MODEL 1
REMARK VINA RESULT:      -8.4      0.000      0.000
REMARK  Name = 
REMARK  1 active torsions:
REMARK  status: ('A' for Active; 'I' for Inactive)
REMARK    1  A    between atoms: N_24  and  C_25
REMARK                            x       y       z     vdW  Elec       q    Type
REMARK                         _______ _______ _______ _____ _____    ______ ____
ROOT
ATOM      1  O   UNL     1       3.788   1.016  18.261  0.00  0.00    +0.000 OA
ATOM      2  C   UNL     1       3.411   2.175  18.403  0.00  0.00    +0.000 C 
ATOM      3  C   UNL     1       3.953   3.122  19.482  0.00  0.00    +0.000 C 
ATOM      4  O   UNL     1       3.910   4.514  19.186  0.00  0.00    +0.000 OA
ATOM      5  C   UNL     1       2.644   4.948  18.644  0.00  0.00    +0.000 C 
ATOM      6  C   UNL     1       1.504   4.836  19.683  0.00  0.00    +0.000 C 
ATOM      7  C   UNL     1       1.779   5.726  20.898  0.00  0.00    +0.000 C 
ATOM      8  N   UNL     1       1.929   7.075  20.392  0.00  0.00    +0.000 N 
ATOM      9  C   UNL     1       1.187   8.101  20.930  0.00  0.00    +0.000 A 
ATOM     10  C   UNL     1       0.834   9.173  20.130  0.00  0.00    +0.000 A 
ATOM     11  C   UNL     1       0.044  10.190  20.634  0.00  0.00    +0.000 A 
ATOM     12  C   UNL     1      -0.371  10.171  21.958  0.00  0.00    +0.000 A 
ATOM     13  N   UNL     1      -1.115  11.211  22.505  0.00  0.00    +0.000 N 
ATOM     14  C   UNL     1      -1.073  12.556  22.159  0.00  0.00    +0.000 A 
ATOM     15  N   UNL     1      -1.865  13.392  22.855  0.00  0.00    +0.000 NA
ATOM     16  C   UNL     1      -1.911  14.700  22.503  0.00  0.00    +0.000 A 
ATOM     17  C   UNL     1      -1.176  15.154  21.408  0.00  0.00    +0.000 A 
ATOM     18  C   UNL     1      -1.025  16.383  20.723  0.00  0.00    +0.000 A 
ATOM     19  C   UNL     1      -1.558  17.667  20.905  0.00  0.00    +0.000 A 
ATOM     20  C   UNL     1      -1.186  18.630  19.983  0.00  0.00    +0.000 A 
ATOM     21  N   UNL     1      -0.363  18.410  18.939  0.00  0.00    +0.000 NA
ATOM     22  C   UNL     1       0.151  17.173  18.758  0.00  0.00    +0.000 A 
ATOM     23  C   UNL     1      -0.169  16.153  19.643  0.00  0.00    +0.000 A 
ATOM     24  N   UNL     1       0.204  14.812  19.680  0.00  0.00    +0.000 N 
ATOM     25  C   UNL     1      -0.388  14.208  20.776  0.00  0.00    +0.000 A 
ATOM     26  N   UNL     1      -0.279  12.935  21.141  0.00  0.00    +0.000 NA
ATOM     27  N   UNL     1      -0.039   9.112  22.719  0.00  0.00    +0.000 NA
ATOM     28  N   UNL     1       0.730   8.071  22.196  0.00  0.00    +0.000 NA
ATOM     29  C   UNL     1       3.022   7.318  19.459  0.00  0.00    +0.000 C 
ATOM     30  C   UNL     1       2.830   6.427  18.236  0.00  0.00    +0.000 C 
ATOM     31  C   UNL     1       2.336   4.106  17.387  0.00  0.00    +0.000 C 
ATOM     32  N   UNL     1       2.378   2.682  17.646  0.00  0.00    +0.000 N 
ATOM     33  H   UNL     1      -1.492  11.035  23.422  0.00  0.00    +0.000 HD
ATOM     34  H   UNL     1       2.049   2.042  16.934  0.00  0.00    +0.000 HD
ENDROOT
BRANCH  24  35
ATOM     35  C   UNL     1       1.027  14.136  18.706  0.00  0.00    +0.000 C 
ATOM     36  C   UNL     1       2.536  14.307  18.910  0.00  0.00    +0.000 C 
ATOM     37  C   UNL     1       3.143  13.211  18.042  0.00  0.00    +0.000 C 
ATOM     38  C   UNL     1       2.109  12.087  17.989  0.00  0.00    +0.000 C 
ATOM     39  C   UNL     1       0.840  12.619  18.648  0.00  0.00    +0.000 C 
ENDBRANCH  24  35
TORSDOF 1
ENDMDL
MODEL 2
REMARK VINA RESULT:      -7.6      4.502     10.858
REMARK  Name = 
REMARK  1 active torsions:
REMARK  status: ('A' for Active; 'I' for Inactive)
REMARK    1  A    between atoms: N_24  and  C_25
REMARK                            x       y       z     vdW  Elec       q    Type
REMARK                         _______ _______ _______ _____ _____    ______ ____
ROOT
ATOM      1  O   UNL     1      -6.089  18.631  25.039  0.00  0.00    +0.000 OA
ATOM      2  C   UNL     1      -5.455  17.689  24.574  0.00  0.00    +0.000 C 
ATOM      3  C   UNL     1      -3.925  17.667  24.457  0.00  0.00    +0.000 C 
ATOM      4  O   UNL     1      -3.304  16.386  24.485  0.00  0.00    +0.000 OA
ATOM      5  C   UNL     1      -3.946  15.417  23.629  0.00  0.00    +0.000 C 
ATOM      6  C   UNL     1      -3.797  15.780  22.133  0.00  0.00    +0.000 C 
ATOM      7  C   UNL     1      -2.323  15.808  21.720  0.00  0.00    +0.000 C 
ATOM      8  N   UNL     1      -1.787  14.497  22.022  0.00  0.00    +0.000 N 
ATOM      9  C   UNL     1      -1.121  13.783  21.052  0.00  0.00    +0.000 A 
ATOM     10  C   UNL     1      -1.164  12.401  21.079  0.00  0.00    +0.000 A 
ATOM     11  C   UNL     1      -0.547  11.663  20.085  0.00  0.00    +0.000 A 
ATOM     12  C   UNL     1       0.160  12.296  19.073  0.00  0.00    +0.000 A 
ATOM     13  N   UNL     1       0.840  11.576  18.097  0.00  0.00    +0.000 N 
ATOM     14  C   UNL     1       1.435  10.327  18.226  0.00  0.00    +0.000 A 
ATOM     15  N   UNL     1       2.073   9.839  17.146  0.00  0.00    +0.000 NA
ATOM     16  C   UNL     1       2.604   8.593  17.204  0.00  0.00    +0.000 A 
ATOM     17  C   UNL     1       2.450   7.822  18.355  0.00  0.00    +0.000 A 
ATOM     18  C   UNL     1       2.793   6.508  18.754  0.00  0.00    +0.000 A 
ATOM     19  C   UNL     1       3.463   5.448  18.127  0.00  0.00    +0.000 A 
ATOM     20  C   UNL     1       3.580   4.273  18.849  0.00  0.00    +0.000 A 
ATOM     21  N   UNL     1       3.091   4.088  20.091  0.00  0.00    +0.000 NA
ATOM     22  C   UNL     1       2.441   5.107  20.698  0.00  0.00    +0.000 A 
ATOM     23  C   UNL     1       2.289   6.321  20.043  0.00  0.00    +0.000 A 
ATOM     24  N   UNL     1       1.664   7.504  20.426  0.00  0.00    +0.000 N 
ATOM     25  C   UNL     1       1.788   8.433  19.406  0.00  0.00    +0.000 A 
ATOM     26  N   UNL     1       1.314   9.674  19.395  0.00  0.00    +0.000 NA
ATOM     27  N   UNL     1       0.176  13.642  19.047  0.00  0.00    +0.000 NA
ATOM     28  N   UNL     1      -0.477  14.383  20.033  0.00  0.00    +0.000 NA
ATOM     29  C   UNL     1      -1.807  14.074  23.416  0.00  0.00    +0.000 C 
ATOM     30  C   UNL     1      -3.252  14.064  23.906  0.00  0.00    +0.000 C 
ATOM     31  C   UNL     1      -5.434  15.318  24.031  0.00  0.00    +0.000 C 
ATOM     32  N   UNL     1      -6.099  16.604  24.022  0.00  0.00    +0.000 N 
ATOM     33  H   UNL     1       1.193  12.122  17.327  0.00  0.00    +0.000 HD
ATOM     34  H   UNL     1      -7.106  16.638  24.125  0.00  0.00    +0.000 HD
ENDROOT
BRANCH  24  35
ATOM     35  C   UNL     1       0.948   7.721  21.661  0.00  0.00    +0.000 C 
ATOM     36  C   UNL     1       1.512   8.839  22.544  0.00  0.00    +0.000 C 
ATOM     37  C   UNL     1       0.386   9.122  23.530  0.00  0.00    +0.000 C 
ATOM     38  C   UNL     1      -0.914   8.774  22.806  0.00  0.00    +0.000 C 
ATOM     39  C   UNL     1      -0.524   8.103  21.492  0.00  0.00    +0.000 C 
ENDBRANCH  24  35
TORSDOF 1
ENDMDL
MODEL 3
REMARK VINA RESULT:      -7.5      6.793      9.760
REMARK  Name = 
REMARK  1 active torsions:
REMARK  status: ('A' for Active; 'I' for Inactive)
REMARK    1  A    between atoms: N_24  and  C_25
REMARK                            x       y       z     vdW  Elec       q    Type
REMARK                         _______ _______ _______ _____ _____    ______ ____
ROOT
ATOM      1  O   UNL     1      -7.660  13.122  24.352  0.00  0.00    +0.000 OA
ATOM      2  C   UNL     1      -6.472  13.227  24.063  0.00  0.00    +0.000 C 
ATOM      3  C   UNL     1      -5.831  14.523  23.548  0.00  0.00    +0.000 C 
ATOM      4  O   UNL     1      -4.444  14.698  23.818  0.00  0.00    +0.000 OA
ATOM      5  C   UNL     1      -3.650  13.526  23.531  0.00  0.00    +0.000 C 
ATOM      6  C   UNL     1      -3.613  13.211  22.018  0.00  0.00    +0.000 C 
ATOM      7  C   UNL     1      -2.979  14.363  21.233  0.00  0.00    +0.000 C 
ATOM      8  N   UNL     1      -1.654  14.555  21.786  0.00  0.00    +0.000 N 
ATOM      9  C   UNL     1      -0.556  14.569  20.957  0.00  0.00    +0.000 A 
ATOM     10  C   UNL     1       0.663  14.129  21.440  0.00  0.00    +0.000 A 
ATOM     11  C   UNL     1       1.769  14.083  20.610  0.00  0.00    +0.000 A 
ATOM     12  C   UNL     1       1.682  14.518  19.296  0.00  0.00    +0.000 A 
ATOM     13  N   UNL     1       2.793  14.540  18.460  0.00  0.00    +0.000 N 
ATOM     14  C   UNL     1       4.121  14.739  18.819  0.00  0.00    +0.000 A 
ATOM     15  N   UNL     1       5.028  14.754  17.825  0.00  0.00    +0.000 NA
ATOM     16  C   UNL     1       6.342  14.871  18.136  0.00  0.00    +0.000 A 
ATOM     17  C   UNL     1       6.740  14.933  19.472  0.00  0.00    +0.000 A 
ATOM     18  C   UNL     1       7.972  14.990  20.165  0.00  0.00    +0.000 A 
ATOM     19  C   UNL     1       9.313  15.031  19.757  0.00  0.00    +0.000 A 
ATOM     20  C   UNL     1      10.267  15.051  20.761  0.00  0.00    +0.000 A 
ATOM     21  N   UNL     1       9.989  15.027  22.079  0.00  0.00    +0.000 NA
ATOM     22  C   UNL     1       8.697  14.984  22.476  0.00  0.00    +0.000 A 
ATOM     23  C   UNL     1       7.681  14.969  21.531  0.00  0.00    +0.000 A 
ATOM     24  N   UNL     1       6.296  14.914  21.664  0.00  0.00    +0.000 N 
ATOM     25  C   UNL     1       5.719  14.922  20.406  0.00  0.00    +0.000 A 
ATOM     26  N   UNL     1       4.422  14.871  20.123  0.00  0.00    +0.000 NA
ATOM     27  N   UNL     1       0.486  14.924  18.832  0.00  0.00    +0.000 NA
ATOM     28  N   UNL     1      -0.635  14.936  19.663  0.00  0.00    +0.000 NA
ATOM     29  C   UNL     1      -1.566  14.929  23.191  0.00  0.00    +0.000 C 
ATOM     30  C   UNL     1      -2.221  13.837  24.031  0.00  0.00    +0.000 C 
ATOM     31  C   UNL     1      -4.224  12.338  24.333  0.00  0.00    +0.000 C 
ATOM     32  N   UNL     1      -5.636  12.133  24.090  0.00  0.00    +0.000 N 
ATOM     33  H   UNL     1       2.598  14.727  17.489  0.00  0.00    +0.000 HD
ATOM     34  H   UNL     1      -6.081  11.296  24.446  0.00  0.00    +0.000 HD
ENDROOT
BRANCH  24  35
ATOM     35  C   UNL     1       5.571  14.807  22.908  0.00  0.00    +0.000 C 
ATOM     36  C   UNL     1       6.119  13.762  23.885  0.00  0.00    +0.000 C 
ATOM     37  C   UNL     1       5.463  14.127  25.210  0.00  0.00    +0.000 C 
ATOM     38  C   UNL     1       5.210  15.633  25.161  0.00  0.00    +0.000 C 
ATOM     39  C   UNL     1       5.529  16.090  23.740  0.00  0.00    +0.000 C 
ENDBRANCH  24  35
TORSDOF 1
ENDMDL
MODEL 4
REMARK VINA RESULT:      -7.4      6.554      9.311
REMARK  Name = 
REMARK  1 active torsions:
REMARK  status: ('A' for Active; 'I' for Inactive)
REMARK    1  A    between atoms: N_24  and  C_25
REMARK                            x       y       z     vdW  Elec       q    Type
REMARK                         _______ _______ _______ _____ _____    ______ ____
ROOT
ATOM      1  O   UNL     1      -7.802  12.628  24.118  0.00  0.00    +0.000 OA
ATOM      2  C   UNL     1      -6.655  12.926  23.801  0.00  0.00    +0.000 C 
ATOM      3  C   UNL     1      -6.304  13.781  22.576  0.00  0.00    +0.000 C 
ATOM      4  O   UNL     1      -5.095  14.529  22.647  0.00  0.00    +0.000 OA
ATOM      5  C   UNL     1      -3.973  13.763  23.136  0.00  0.00    +0.000 C 
ATOM      6  C   UNL     1      -3.565  12.645  22.149  0.00  0.00    +0.000 C 
ATOM      7  C   UNL     1      -3.131  13.232  20.803  0.00  0.00    +0.000 C 
ATOM      8  N   UNL     1      -2.038  14.140  21.086  0.00  0.00    +0.000 N 
ATOM      9  C   UNL     1      -0.848  14.021  20.405  0.00  0.00    +0.000 A 
ATOM     10  C   UNL     1       0.329  14.389  21.030  0.00  0.00    +0.000 A 
ATOM     11  C   UNL     1       1.543  14.229  20.385  0.00  0.00    +0.000 A 
ATOM     12  C   UNL     1       1.593  13.737  19.089  0.00  0.00    +0.000 A 
ATOM     13  N   UNL     1       2.793  13.624  18.397  0.00  0.00    +0.000 N 
ATOM     14  C   UNL     1       3.924  14.423  18.524  0.00  0.00    +0.000 A 
ATOM     15  N   UNL     1       4.964  14.143  17.718  0.00  0.00    +0.000 NA
ATOM     16  C   UNL     1       6.113  14.849  17.859  0.00  0.00    +0.000 A 
ATOM     17  C   UNL     1       6.218  15.820  18.855  0.00  0.00    +0.000 A 
ATOM     18  C   UNL     1       7.233  16.682  19.333  0.00  0.00    +0.000 A 
ATOM     19  C   UNL     1       8.564  16.914  18.959  0.00  0.00    +0.000 A 
ATOM     20  C   UNL     1       9.267  17.840  19.709  0.00  0.00    +0.000 A 
ATOM     21  N   UNL     1       8.761  18.514  20.761  0.00  0.00    +0.000 NA
ATOM     22  C   UNL     1       7.478  18.291  21.127  0.00  0.00    +0.000 A 
ATOM     23  C   UNL     1       6.704  17.382  20.420  0.00  0.00    +0.000 A 
ATOM     24  N   UNL     1       5.387  16.963  20.590  0.00  0.00    +0.000 N 
ATOM     25  C   UNL     1       5.080  16.030  19.614  0.00  0.00    +0.000 A 
ATOM     26  N   UNL     1       3.924  15.395  19.454  0.00  0.00    +0.000 NA
ATOM     27  N   UNL     1       0.441  13.363  18.500  0.00  0.00    +0.000 NA
ATOM     28  N   UNL     1      -0.777  13.495  19.167  0.00  0.00    +0.000 NA
ATOM     29  C   UNL     1      -2.324  15.279  21.948  0.00  0.00    +0.000 C 
ATOM     30  C   UNL     1      -2.804  14.761  23.301  0.00  0.00    +0.000 C 
ATOM     31  C   UNL     1      -4.343  13.179  24.516  0.00  0.00    +0.000 C 
ATOM     32  N   UNL     1      -5.574  12.417  24.485  0.00  0.00    +0.000 N 
ATOM     33  H   UNL     1       2.743  13.120  17.526  0.00  0.00    +0.000 HD
ATOM     34  H   UNL     1      -5.833  11.868  25.296  0.00  0.00    +0.000 HD
ENDROOT
BRANCH  24  35
ATOM     35  C   UNL     1       4.496  17.384  21.645  0.00  0.00    +0.000 C 
ATOM     36  C   UNL     1       3.283  18.195  21.176  0.00  0.00    +0.000 C 
ATOM     37  C   UNL     1       2.340  18.155  22.372  0.00  0.00    +0.000 C 
ATOM     38  C   UNL     1       2.635  16.848  23.106  0.00  0.00    +0.000 C 
ATOM     39  C   UNL     1       3.875  16.243  22.455  0.00  0.00    +0.000 C 
ENDBRANCH  24  35
TORSDOF 1
ENDMDL
MODEL 5
REMARK VINA RESULT:      -7.4      6.118      8.706
REMARK  Name = 
REMARK  1 active torsions:
REMARK  status: ('A' for Active; 'I' for Inactive)
REMARK    1  A    between atoms: N_24  and  C_25
REMARK                            x       y       z     vdW  Elec       q    Type
REMARK                         _______ _______ _______ _____ _____    ______ ____
ROOT
ATOM      1  O   UNL     1       9.594  16.879  18.722  0.00  0.00    +0.000 OA
ATOM      2  C   UNL     1       8.417  16.616  18.949  0.00  0.00    +0.000 C 
ATOM      3  C   UNL     1       7.918  15.222  19.351  0.00  0.00    +0.000 C 
ATOM      4  O   UNL     1       6.732  15.172  20.136  0.00  0.00    +0.000 OA
ATOM      5  C   UNL     1       5.677  16.024  19.639  0.00  0.00    +0.000 C 
ATOM      6  C   UNL     1       5.141  15.539  18.272  0.00  0.00    +0.000 C 
ATOM      7  C   UNL     1       4.542  14.134  18.384  0.00  0.00    +0.000 C 
ATOM      8  N   UNL     1       3.498  14.213  19.386  0.00  0.00    +0.000 N 
ATOM      9  C   UNL     1       2.231  13.760  19.100  0.00  0.00    +0.000 A 
ATOM     10  C   UNL     1       1.145  14.354  19.717  0.00  0.00    +0.000 A 
ATOM     11  C   UNL     1      -0.141  13.952  19.405  0.00  0.00    +0.000 A 
ATOM     12  C   UNL     1      -0.359  12.920  18.503  0.00  0.00    +0.000 A 
ATOM     13  N   UNL     1      -1.638  12.457  18.219  0.00  0.00    +0.000 N 
ATOM     14  C   UNL     1      -2.739  12.432  19.067  0.00  0.00    +0.000 A 
ATOM     15  N   UNL     1      -3.876  11.901  18.580  0.00  0.00    +0.000 NA
ATOM     16  C   UNL     1      -4.993  11.923  19.347  0.00  0.00    +0.000 A 
ATOM     17  C   UNL     1      -4.965  12.528  20.604  0.00  0.00    +0.000 A 
ATOM     18  C   UNL     1      -5.907  12.796  21.625  0.00  0.00    +0.000 A 
ATOM     19  C   UNL     1      -7.273  12.525  21.780  0.00  0.00    +0.000 A 
ATOM     20  C   UNL     1      -7.871  12.986  22.940  0.00  0.00    +0.000 A 
ATOM     21  N   UNL     1      -7.231  13.673  23.907  0.00  0.00    +0.000 NA
ATOM     22  C   UNL     1      -5.913  13.940  23.761  0.00  0.00    +0.000 A 
ATOM     23  C   UNL     1      -5.240  13.504  22.628  0.00  0.00    +0.000 A 
ATOM     24  N   UNL     1      -3.915  13.652  22.228  0.00  0.00    +0.000 N 
ATOM     25  C   UNL     1      -3.739  13.029  21.004  0.00  0.00    +0.000 A 
ATOM     26  N   UNL     1      -2.616  12.963  20.297  0.00  0.00    +0.000 NA
ATOM     27  N   UNL     1       0.706  12.365  17.895  0.00  0.00    +0.000 NA
ATOM     28  N   UNL     1       2.000  12.798  18.187  0.00  0.00    +0.000 NA
ATOM     29  C   UNL     1       3.898  14.589  20.736  0.00  0.00    +0.000 C 
ATOM     30  C   UNL     1       4.544  15.971  20.689  0.00  0.00    +0.000 C 
ATOM     31  C   UNL     1       6.217  17.467  19.543  0.00  0.00    +0.000 C 
ATOM     32  N   UNL     1       7.430  17.557  18.757  0.00  0.00    +0.000 N 
ATOM     33  H   UNL     1      -1.702  11.813  17.446  0.00  0.00    +0.000 HD
ATOM     34  H   UNL     1       7.788  18.470  18.507  0.00  0.00    +0.000 HD
ENDROOT
BRANCH  24  35
ATOM     35  C   UNL     1      -2.894  14.384  22.940  0.00  0.00    +0.000 C 
ATOM     36  C   UNL     1      -3.073  15.905  22.938  0.00  0.00    +0.000 C 
ATOM     37  C   UNL     1      -2.145  16.380  24.049  0.00  0.00    +0.000 C 
ATOM     38  C   UNL     1      -2.064  15.233  25.056  0.00  0.00    +0.000 C 
ATOM     39  C   UNL     1      -2.773  14.038  24.426  0.00  0.00    +0.000 C 
ENDBRANCH  24  35
TORSDOF 1
ENDMDL
MODEL 6
REMARK VINA RESULT:      -7.4      1.369      1.644
REMARK  Name = 
REMARK  1 active torsions:
REMARK  status: ('A' for Active; 'I' for Inactive)
REMARK    1  A    between atoms: N_24  and  C_25
REMARK                            x       y       z     vdW  Elec       q    Type
REMARK                         _______ _______ _______ _____ _____    ______ ____
ROOT
ATOM      1  O   UNL     1       4.188   2.227  18.239  0.00  0.00    +0.000 OA
ATOM      2  C   UNL     1       3.632   3.298  18.461  0.00  0.00    +0.000 C 
ATOM      3  C   UNL     1       4.206   4.380  19.385  0.00  0.00    +0.000 C 
ATOM      4  O   UNL     1       3.825   5.723  19.105  0.00  0.00    +0.000 OA
ATOM      5  C   UNL     1       2.410   5.881  18.866  0.00  0.00    +0.000 C 
ATOM      6  C   UNL     1       1.576   5.602  20.139  0.00  0.00    +0.000 C 
ATOM      7  C   UNL     1       1.936   6.584  21.257  0.00  0.00    +0.000 C 
ATOM      8  N   UNL     1       1.701   7.912  20.727  0.00  0.00    +0.000 N 
ATOM      9  C   UNL     1       0.911   8.802  21.419  0.00  0.00    +0.000 A 
ATOM     10  C   UNL     1       0.185   9.748  20.720  0.00  0.00    +0.000 A 
ATOM     11  C   UNL     1      -0.657  10.618  21.389  0.00  0.00    +0.000 A 
ATOM     12  C   UNL     1      -0.752  10.582  22.773  0.00  0.00    +0.000 A 
ATOM     13  N   UNL     1      -1.543  11.485  23.474  0.00  0.00    +0.000 N 
ATOM     14  C   UNL     1      -1.845  12.796  23.125  0.00  0.00    +0.000 A 
ATOM     15  N   UNL     1      -2.610  13.497  23.983  0.00  0.00    +0.000 NA
ATOM     16  C   UNL     1      -2.990  14.754  23.648  0.00  0.00    +0.000 A 
ATOM     17  C   UNL     1      -2.624  15.289  22.413  0.00  0.00    +0.000 A 
ATOM     18  C   UNL     1      -2.874  16.490  21.709  0.00  0.00    +0.000 A 
ATOM     19  C   UNL     1      -3.595  17.656  22.006  0.00  0.00    +0.000 A 
ATOM     20  C   UNL     1      -3.635  18.628  21.021  0.00  0.00    +0.000 A 
ATOM     21  N   UNL     1      -3.042  18.520  19.817  0.00  0.00    +0.000 NA
ATOM     22  C   UNL     1      -2.348  17.396  19.525  0.00  0.00    +0.000 A 
ATOM     23  C   UNL     1      -2.254  16.377  20.462  0.00  0.00    +0.000 A 
ATOM     24  N   UNL     1      -1.627  15.135  20.416  0.00  0.00    +0.000 N 
ATOM     25  C   UNL     1      -1.827  14.481  21.619  0.00  0.00    +0.000 A 
ATOM     26  N   UNL     1      -1.390  13.272  21.952  0.00  0.00    +0.000 NA
ATOM     27  N   UNL     1      -0.055   9.642  23.440  0.00  0.00    +0.000 NA
ATOM     28  N   UNL     1       0.766   8.745  22.757  0.00  0.00    +0.000 NA
ATOM     29  C   UNL     1       2.487   8.316  19.568  0.00  0.00    +0.000 C 
ATOM     30  C   UNL     1       2.205   7.348  18.423  0.00  0.00    +0.000 C 
ATOM     31  C   UNL     1       1.999   4.938  17.715  0.00  0.00    +0.000 C 
ATOM     32  N   UNL     1       2.377   3.562  17.961  0.00  0.00    +0.000 N 
ATOM     33  H   UNL     1      -1.663  11.284  24.454  0.00  0.00    +0.000 HD
ATOM     34  H   UNL     1       2.029   2.839  17.344  0.00  0.00    +0.000 HD
ENDROOT
BRANCH  24  35
ATOM     35  C   UNL     1      -0.927  14.584  19.279  0.00  0.00    +0.000 C 
ATOM     36  C   UNL     1       0.582  14.406  19.479  0.00  0.00    +0.000 C 
ATOM     37  C   UNL     1       0.987  13.471  18.346  0.00  0.00    +0.000 C 
ATOM     38  C   UNL     1      -0.242  12.616  18.037  0.00  0.00    +0.000 C 
ATOM     39  C   UNL     1      -1.400  13.196  18.845  0.00  0.00    +0.000 C 
ENDBRANCH  24  35
TORSDOF 1
ENDMDL
MODEL 7
REMARK VINA RESULT:      -7.4      5.809      8.864
REMARK  Name = 
REMARK  1 active torsions:
REMARK  status: ('A' for Active; 'I' for Inactive)
REMARK    1  A    between atoms: N_24  and  C_25
REMARK                            x       y       z     vdW  Elec       q    Type
REMARK                         _______ _______ _______ _____ _____    ______ ____
ROOT
ATOM      1  O   UNL     1      12.324  15.702  16.845  0.00  0.00    +0.000 OA
ATOM      2  C   UNL     1      11.232  15.554  17.384  0.00  0.00    +0.000 C 
ATOM      3  C   UNL     1      10.035  16.487  17.153  0.00  0.00    +0.000 C 
ATOM      4  O   UNL     1       8.742  15.915  17.321  0.00  0.00    +0.000 OA
ATOM      5  C   UNL     1       8.614  15.125  18.522  0.00  0.00    +0.000 C 
ATOM      6  C   UNL     1       8.715  15.994  19.798  0.00  0.00    +0.000 C 
ATOM      7  C   UNL     1       7.592  17.033  19.845  0.00  0.00    +0.000 C 
ATOM      8  N   UNL     1       6.347  16.293  19.783  0.00  0.00    +0.000 N 
ATOM      9  C   UNL     1       5.370  16.505  20.728  0.00  0.00    +0.000 A 
ATOM     10  C   UNL     1       4.526  15.465  21.074  0.00  0.00    +0.000 A 
ATOM     11  C   UNL     1       3.571  15.639  22.059  0.00  0.00    +0.000 A 
ATOM     12  C   UNL     1       3.419  16.868  22.684  0.00  0.00    +0.000 A 
ATOM     13  N   UNL     1       2.426  17.086  23.634  0.00  0.00    +0.000 N 
ATOM     14  C   UNL     1       1.174  16.487  23.705  0.00  0.00    +0.000 A 
ATOM     15  N   UNL     1       0.361  16.884  24.701  0.00  0.00    +0.000 NA
ATOM     16  C   UNL     1      -0.840  16.274  24.852  0.00  0.00    +0.000 A 
ATOM     17  C   UNL     1      -1.200  15.224  24.007  0.00  0.00    +0.000 A 
ATOM     18  C   UNL     1      -2.296  14.335  23.899  0.00  0.00    +0.000 A 
ATOM     19  C   UNL     1      -3.492  14.179  24.612  0.00  0.00    +0.000 A 
ATOM     20  C   UNL     1      -4.322  13.145  24.215  0.00  0.00    +0.000 A 
ATOM     21  N   UNL     1      -4.050  12.292  23.208  0.00  0.00    +0.000 NA
ATOM     22  C   UNL     1      -2.896  12.437  22.519  0.00  0.00    +0.000 A 
ATOM     23  C   UNL     1      -2.013  13.454  22.852  0.00  0.00    +0.000 A 
ATOM     24  N   UNL     1      -0.775  13.811  22.325  0.00  0.00    +0.000 N 
ATOM     25  C   UNL     1      -0.291  14.912  23.012  0.00  0.00    +0.000 A 
ATOM     26  N   UNL     1       0.864  15.536  22.805  0.00  0.00    +0.000 NA
ATOM     27  N   UNL     1       4.260  17.865  22.354  0.00  0.00    +0.000 NA
ATOM     28  N   UNL     1       5.245  17.675  21.383  0.00  0.00    +0.000 NA
ATOM     29  C   UNL     1       6.107  15.494  18.589  0.00  0.00    +0.000 C 
ATOM     30  C   UNL     1       7.221  14.459  18.459  0.00  0.00    +0.000 C 
ATOM     31  C   UNL     1       9.704  14.031  18.507  0.00  0.00    +0.000 C 
ATOM     32  N   UNL     1      11.034  14.574  18.330  0.00  0.00    +0.000 N 
ATOM     33  H   UNL     1       2.493  17.958  24.135  0.00  0.00    +0.000 HD
ATOM     34  H   UNL     1      11.834  13.965  18.452  0.00  0.00    +0.000 HD
ENDROOT
BRANCH  24  35
ATOM     35  C   UNL     1      -0.073  13.117  21.271  0.00  0.00    +0.000 C 
ATOM     36  C   UNL     1       0.094  11.611  21.494  0.00  0.00    +0.000 C 
ATOM     37  C   UNL     1       0.476  11.083  20.116  0.00  0.00    +0.000 C 
ATOM     38  C   UNL     1      -0.162  12.033  19.103  0.00  0.00    +0.000 C 
ATOM     39  C   UNL     1      -0.731  13.208  19.893  0.00  0.00    +0.000 C 
ENDBRANCH  24  35
TORSDOF 1
ENDMDL
MODEL 8
REMARK VINA RESULT:      -7.2      6.147      8.978
REMARK  Name = 
REMARK  1 active torsions:
REMARK  status: ('A' for Active; 'I' for Inactive)
REMARK    1  A    between atoms: N_24  and  C_25
REMARK                            x       y       z     vdW  Elec       q    Type
REMARK                         _______ _______ _______ _____ _____    ______ ____
ROOT
ATOM      1  O   UNL     1      10.451  17.688  19.819  0.00  0.00    +0.000 OA
ATOM      2  C   UNL     1       9.274  17.351  19.905  0.00  0.00    +0.000 C 
ATOM      3  C   UNL     1       8.817  15.923  20.231  0.00  0.00    +0.000 C 
ATOM      4  O   UNL     1       7.553  15.791  20.872  0.00  0.00    +0.000 OA
ATOM      5  C   UNL     1       6.514  16.587  20.263  0.00  0.00    +0.000 C 
ATOM      6  C   UNL     1       6.170  16.094  18.838  0.00  0.00    +0.000 C 
ATOM      7  C   UNL     1       5.648  14.655  18.866  0.00  0.00    +0.000 C 
ATOM      8  N   UNL     1       4.493  14.655  19.740  0.00  0.00    +0.000 N 
ATOM      9  C   UNL     1       3.297  14.133  19.303  0.00  0.00    +0.000 A 
ATOM     10  C   UNL     1       2.112  14.651  19.794  0.00  0.00    +0.000 A 
ATOM     11  C   UNL     1       0.898  14.179  19.330  0.00  0.00    +0.000 A 
ATOM     12  C   UNL     1       0.850  13.152  18.399  0.00  0.00    +0.000 A 
ATOM     13  N   UNL     1      -0.358  12.618  17.963  0.00  0.00    +0.000 N 
ATOM     14  C   UNL     1      -1.546  12.514  18.676  0.00  0.00    +0.000 A 
ATOM     15  N   UNL     1      -2.584  11.925  18.054  0.00  0.00    +0.000 NA
ATOM     16  C   UNL     1      -3.782  11.869  18.685  0.00  0.00    +0.000 A 
ATOM     17  C   UNL     1      -3.937  12.453  19.943  0.00  0.00    +0.000 A 
ATOM     18  C   UNL     1      -5.005  12.647  20.850  0.00  0.00    +0.000 A 
ATOM     19  C   UNL     1      -6.362  12.293  20.841  0.00  0.00    +0.000 A 
ATOM     20  C   UNL     1      -7.117  12.699  21.928  0.00  0.00    +0.000 A 
ATOM     21  N   UNL     1      -6.637  13.405  22.970  0.00  0.00    +0.000 NA
ATOM     22  C   UNL     1      -5.329  13.752  22.981  0.00  0.00    +0.000 A 
ATOM     23  C   UNL     1      -4.504  13.376  21.931  0.00  0.00    +0.000 A 
ATOM     24  N   UNL     1      -3.152  13.609  21.690  0.00  0.00    +0.000 N 
ATOM     25  C   UNL     1      -2.798  13.018  20.489  0.00  0.00    +0.000 A 
ATOM     26  N   UNL     1      -1.599  13.031  19.917  0.00  0.00    +0.000 NA
ATOM     27  N   UNL     1       2.010  12.671  17.914  0.00  0.00    +0.000 NA
ATOM     28  N   UNL     1       3.232  13.174  18.360  0.00  0.00    +0.000 NA
ATOM     29  C   UNL     1       4.710  15.031  21.131  0.00  0.00    +0.000 C 
ATOM     30  C   UNL     1       5.271  16.449  21.173  0.00  0.00    +0.000 C 
ATOM     31  C   UNL     1       6.972  18.061  20.246  0.00  0.00    +0.000 C 
ATOM     32  N   UNL     1       8.261  18.235  19.608  0.00  0.00    +0.000 N 
ATOM     33  H   UNL     1      -0.292  11.985  17.181  0.00  0.00    +0.000 HD
ATOM     34  H   UNL     1       8.589  19.172  19.410  0.00  0.00    +0.000 HD
ENDROOT
BRANCH  24  35
ATOM     35  C   UNL     1      -2.267  14.387  22.524  0.00  0.00    +0.000 C 
ATOM     36  C   UNL     1      -2.774  15.793  22.862  0.00  0.00    +0.000 C 
ATOM     37  C   UNL     1      -1.895  16.222  24.030  0.00  0.00    +0.000 C 
ATOM     38  C   UNL     1      -1.493  14.938  24.756  0.00  0.00    +0.000 C 
ATOM     39  C   UNL     1      -1.968  13.773  23.893  0.00  0.00    +0.000 C 
ENDBRANCH  24  35
TORSDOF 1
ENDMDL
MODEL 9
REMARK VINA RESULT:      -7.2      3.294      3.950
REMARK  Name = 
REMARK  1 active torsions:
REMARK  status: ('A' for Active; 'I' for Inactive)
REMARK    1  A    between atoms: N_24  and  C_25
REMARK                            x       y       z     vdW  Elec       q    Type
REMARK                         _______ _______ _______ _____ _____    ______ ____
ROOT
ATOM      1  O   UNL     1       5.590   3.568  17.361  0.00  0.00    +0.000 OA
ATOM      2  C   UNL     1       4.707   4.358  17.677  0.00  0.00    +0.000 C 
ATOM      3  C   UNL     1       4.967   5.823  18.053  0.00  0.00    +0.000 C 
ATOM      4  O   UNL     1       3.904   6.740  17.813  0.00  0.00    +0.000 OA
ATOM      5  C   UNL     1       2.620   6.263  18.269  0.00  0.00    +0.000 C 
ATOM      6  C   UNL     1       2.562   6.148  19.811  0.00  0.00    +0.000 C 
ATOM      7  C   UNL     1       2.774   7.513  20.471  0.00  0.00    +0.000 C 
ATOM      8  N   UNL     1       1.743   8.386  19.947  0.00  0.00    +0.000 N 
ATOM      9  C   UNL     1       0.934   9.093  20.807  0.00  0.00    +0.000 A 
ATOM     10  C   UNL     1      -0.360   9.395  20.425  0.00  0.00    +0.000 A 
ATOM     11  C   UNL     1      -1.208  10.059  21.294  0.00  0.00    +0.000 A 
ATOM     12  C   UNL     1      -0.760  10.468  22.541  0.00  0.00    +0.000 A 
ATOM     13  N   UNL     1      -1.573  11.190  23.408  0.00  0.00    +0.000 N 
ATOM     14  C   UNL     1      -2.583  12.085  23.075  0.00  0.00    +0.000 A 
ATOM     15  N   UNL     1      -3.218  12.697  24.092  0.00  0.00    +0.000 NA
ATOM     16  C   UNL     1      -4.258  13.522  23.816  0.00  0.00    +0.000 A 
ATOM     17  C   UNL     1      -4.681  13.694  22.498  0.00  0.00    +0.000 A 
ATOM     18  C   UNL     1      -5.726  14.393  21.848  0.00  0.00    +0.000 A 
ATOM     19  C   UNL     1      -6.759  15.228  22.296  0.00  0.00    +0.000 A 
ATOM     20  C   UNL     1      -7.628  15.711  21.332  0.00  0.00    +0.000 A 
ATOM     21  N   UNL     1      -7.546  15.426  20.018  0.00  0.00    +0.000 NA
ATOM     22  C   UNL     1      -6.552  14.619  19.582  0.00  0.00    +0.000 A 
ATOM     23  C   UNL     1      -5.636  14.099  20.485  0.00  0.00    +0.000 A 
ATOM     24  N   UNL     1      -4.547  13.249  20.310  0.00  0.00    +0.000 N 
ATOM     25  C   UNL     1      -3.945  13.025  21.536  0.00  0.00    +0.000 A 
ATOM     26  N   UNL     1      -2.884  12.262  21.776  0.00  0.00    +0.000 NA
ATOM     27  N   UNL     1       0.495  10.150  22.908  0.00  0.00    +0.000 NA
ATOM     28  N   UNL     1       1.336   9.450  22.042  0.00  0.00    +0.000 NA
ATOM     29  C   UNL     1       1.743   8.629  18.510  0.00  0.00    +0.000 C 
ATOM     30  C   UNL     1       1.576   7.296  17.787  0.00  0.00    +0.000 C 
ATOM     31  C   UNL     1       2.337   4.901  17.599  0.00  0.00    +0.000 C 
ATOM     32  N   UNL     1       3.401   3.943  17.815  0.00  0.00    +0.000 N 
ATOM     33  H   UNL     1      -1.211  11.309  24.340  0.00  0.00    +0.000 HD
ATOM     34  H   UNL     1       3.255   2.977  17.548  0.00  0.00    +0.000 HD
ENDROOT
BRANCH  24  35
ATOM     35  C   UNL     1      -4.138  12.646  19.063  0.00  0.00    +0.000 C 
ATOM     36  C   UNL     1      -2.656  12.264  18.989  0.00  0.00    +0.000 C 
ATOM     37  C   UNL     1      -2.587  11.320  17.795  0.00  0.00    +0.000 C 
ATOM     38  C   UNL     1      -3.955  10.645  17.704  0.00  0.00    +0.000 C 
ATOM     39  C   UNL     1      -4.864  11.347  18.709  0.00  0.00    +0.000 C 
ENDBRANCH  24  35
TORSDOF 1
ENDMDL
