MODEL 1
REMARK VINA RESULT:      -7.5      0.000      0.000
REMARK  Name = 
REMARK  6 active torsions:
REMARK  status: ('A' for Active; 'I' for Inactive)
REMARK    1  A    between atoms: C_1  and  O_2
REMARK    2  A    between atoms: O_2  and  C_3
REMARK    3  A    between atoms: C_7  and  O_8
REMARK    4  A    between atoms: O_8  and  C_9
REMARK    5  A    between atoms: C_16  and  O_17
REMARK    6  A    between atoms: O_17  and  C_18
REMARK                            x       y       z     vdW  Elec       q    Type
REMARK                         _______ _______ _______ _____ _____    ______ ____
ROOT
ATOM      1  C   UNL     1       6.082   5.534  16.696  0.00  0.00    +0.000 A 
ATOM      2  C   UNL     1       5.252   6.548  16.433  0.00  0.00    +0.000 A 
ATOM      3  C   UNL     1       4.127   6.800  17.329  0.00  0.00    +0.000 A 
ATOM      4  O   UNL     1       3.538   7.877  17.332  0.00  0.00    +0.000 OA
ATOM      5  C   UNL     1       3.731   5.676  18.189  0.00  0.00    +0.000 A 
ATOM      6  C   UNL     1       2.494   5.705  18.827  0.00  0.00    +0.000 A 
ATOM      7  C   UNL     1       2.066   4.572  19.501  0.00  0.00    +0.000 A 
ATOM      8  C   UNL     1       2.861   3.420  19.552  0.00  0.00    +0.000 A 
ATOM      9  C   UNL     1       4.130   3.422  18.961  0.00  0.00    +0.000 A 
ATOM     10  C   UNL     1       4.570   4.569  18.267  0.00  0.00    +0.000 A 
ATOM     11  O   UNL     1       5.822   4.557  17.666  0.00  0.00    +0.000 OA
ENDROOT
BRANCH   8  12
ATOM     12  O   UNL     1       2.230   2.380  20.184  0.00  0.00    +0.000 OA
ATOM     13  C   UNL     1       1.716   2.556  21.490  0.00  0.00    +0.000 C 
ENDBRANCH   8  12
BRANCH   1  14
ATOM     14  O   UNL     1       7.183   5.401  15.854  0.00  0.00    +0.000 OA
BRANCH  14  19
ATOM     15  C   UNL     1       6.127   3.563  12.791  0.00  0.00    +0.000 A 
ATOM     16  C   UNL     1       6.917   4.242  11.865  0.00  0.00    +0.000 A 
ATOM     17  C   UNL     1       7.822   5.212  12.284  0.00  0.00    +0.000 A 
ATOM     18  C   UNL     1       7.902   5.532  13.638  0.00  0.00    +0.000 A 
ATOM     19  C   UNL     1       7.077   4.896  14.578  0.00  0.00    +0.000 A 
ATOM     20  C   UNL     1       6.223   3.872  14.154  0.00  0.00    +0.000 A 
BRANCH  15  22
ATOM     21  C   UNL     1       4.307   3.116  11.323  0.00  0.00    +0.000 C 
ATOM     22  O   UNL     1       5.285   2.637  12.232  0.00  0.00    +0.000 OA
ENDBRANCH  15  22
ENDBRANCH  14  19
ENDBRANCH   1  14
TORSDOF 4
ENDMDL
MODEL 2
REMARK VINA RESULT:      -7.5      1.514      2.843
REMARK  Name = 
REMARK  6 active torsions:
REMARK  status: ('A' for Active; 'I' for Inactive)
REMARK    1  A    between atoms: C_1  and  O_2
REMARK    2  A    between atoms: O_2  and  C_3
REMARK    3  A    between atoms: C_7  and  O_8
REMARK    4  A    between atoms: O_8  and  C_9
REMARK    5  A    between atoms: C_16  and  O_17
REMARK    6  A    between atoms: O_17  and  C_18
REMARK                            x       y       z     vdW  Elec       q    Type
REMARK                         _______ _______ _______ _____ _____    ______ ____
ROOT
ATOM      1  C   UNL     1       6.146   5.480  16.640  0.00  0.00    +0.000 A 
ATOM      2  C   UNL     1       6.327   4.667  17.685  0.00  0.00    +0.000 A 
ATOM      3  C   UNL     1       5.238   4.475  18.639  0.00  0.00    +0.000 A 
ATOM      4  O   UNL     1       5.221   3.523  19.412  0.00  0.00    +0.000 OA
ATOM      5  C   UNL     1       4.195   5.511  18.633  0.00  0.00    +0.000 A 
ATOM      6  C   UNL     1       3.306   5.594  19.701  0.00  0.00    +0.000 A 
ATOM      7  C   UNL     1       2.435   6.671  19.761  0.00  0.00    +0.000 A 
ATOM      8  C   UNL     1       2.437   7.655  18.765  0.00  0.00    +0.000 A 
ATOM      9  C   UNL     1       3.290   7.529  17.662  0.00  0.00    +0.000 A 
ATOM     10  C   UNL     1       4.184   6.440  17.597  0.00  0.00    +0.000 A 
ATOM     11  O   UNL     1       5.042   6.332  16.510  0.00  0.00    +0.000 OA
ENDROOT
BRANCH   8  12
ATOM     12  O   UNL     1       1.572   8.680  19.046  0.00  0.00    +0.000 OA
ATOM     13  C   UNL     1       1.152   8.903  20.377  0.00  0.00    +0.000 C 
ENDBRANCH   8  12
BRANCH   1  14
ATOM     14  O   UNL     1       7.190   5.550  15.722  0.00  0.00    +0.000 OA
BRANCH  14  19
ATOM     15  C   UNL     1       6.181   3.589  12.720  0.00  0.00    +0.000 A 
ATOM     16  C   UNL     1       6.988   4.227  11.780  0.00  0.00    +0.000 A 
ATOM     17  C   UNL     1       7.889   5.211  12.175  0.00  0.00    +0.000 A 
ATOM     18  C   UNL     1       7.947   5.587  13.515  0.00  0.00    +0.000 A 
ATOM     19  C   UNL     1       7.104   4.992  14.466  0.00  0.00    +0.000 A 
ATOM     20  C   UNL     1       6.254   3.954  14.070  0.00  0.00    +0.000 A 
BRANCH  15  22
ATOM     21  C   UNL     1       4.317   3.100  11.322  0.00  0.00    +0.000 C 
ATOM     22  O   UNL     1       5.345   2.642  12.185  0.00  0.00    +0.000 OA
ENDBRANCH  15  22
ENDBRANCH  14  19
ENDBRANCH   1  14
TORSDOF 4
ENDMDL
MODEL 3
REMARK VINA RESULT:      -7.4      3.620      5.433
REMARK  Name = 
REMARK  6 active torsions:
REMARK  status: ('A' for Active; 'I' for Inactive)
REMARK    1  A    between atoms: C_1  and  O_2
REMARK    2  A    between atoms: O_2  and  C_3
REMARK    3  A    between atoms: C_7  and  O_8
REMARK    4  A    between atoms: O_8  and  C_9
REMARK    5  A    between atoms: C_16  and  O_17
REMARK    6  A    between atoms: O_17  and  C_18
REMARK                            x       y       z     vdW  Elec       q    Type
REMARK                         _______ _______ _______ _____ _____    ______ ____
ROOT
ATOM      1  C   UNL     1       2.788   6.864  18.746  0.00  0.00    +0.000 A 
ATOM      2  C   UNL     1       2.540   7.724  17.754  0.00  0.00    +0.000 A 
ATOM      3  C   UNL     1       2.033   9.056  18.074  0.00  0.00    +0.000 A 
ATOM      4  O   UNL     1       2.093   9.977  17.265  0.00  0.00    +0.000 OA
ATOM      5  C   UNL     1       1.418   9.204  19.400  0.00  0.00    +0.000 A 
ATOM      6  C   UNL     1       0.629  10.319  19.669  0.00  0.00    +0.000 A 
ATOM      7  C   UNL     1      -0.074  10.365  20.864  0.00  0.00    +0.000 A 
ATOM      8  C   UNL     1       0.012   9.319  21.791  0.00  0.00    +0.000 A 
ATOM      9  C   UNL     1       0.858   8.232  21.540  0.00  0.00    +0.000 A 
ATOM     10  C   UNL     1       1.570   8.174  20.324  0.00  0.00    +0.000 A 
ATOM     11  O   UNL     1       2.392   7.083  20.072  0.00  0.00    +0.000 OA
ENDROOT
BRANCH   8  12
ATOM     12  O   UNL     1      -0.821   9.506  22.863  0.00  0.00    +0.000 OA
ATOM     13  C   UNL     1      -1.254  10.809  23.201  0.00  0.00    +0.000 C 
ENDBRANCH   8  12
BRANCH   1  14
ATOM     14  O   UNL     1       3.353   5.645  18.382  0.00  0.00    +0.000 OA
BRANCH  14  19
ATOM     15  C   UNL     1       6.676   5.520  16.703  0.00  0.00    +0.000 A 
ATOM     16  C   UNL     1       7.477   5.454  17.842  0.00  0.00    +0.000 A 
ATOM     17  C   UNL     1       6.901   5.367  19.106  0.00  0.00    +0.000 A 
ATOM     18  C   UNL     1       5.514   5.393  19.228  0.00  0.00    +0.000 A 
ATOM     19  C   UNL     1       4.694   5.512  18.096  0.00  0.00    +0.000 A 
ATOM     20  C   UNL     1       5.281   5.525  16.826  0.00  0.00    +0.000 A 
BRANCH  15  22
ATOM     21  C   UNL     1       6.938   4.797  14.450  0.00  0.00    +0.000 C 
ATOM     22  O   UNL     1       7.382   5.600  15.530  0.00  0.00    +0.000 OA
ENDBRANCH  15  22
ENDBRANCH  14  19
ENDBRANCH   1  14
TORSDOF 4
ENDMDL
MODEL 4
REMARK VINA RESULT:      -7.2      1.631      1.846
REMARK  Name = 
REMARK  6 active torsions:
REMARK  status: ('A' for Active; 'I' for Inactive)
REMARK    1  A    between atoms: C_1  and  O_2
REMARK    2  A    between atoms: O_2  and  C_3
REMARK    3  A    between atoms: C_7  and  O_8
REMARK    4  A    between atoms: O_8  and  C_9
REMARK    5  A    between atoms: C_16  and  O_17
REMARK    6  A    between atoms: O_17  and  C_18
REMARK                            x       y       z     vdW  Elec       q    Type
REMARK                         _______ _______ _______ _____ _____    ______ ____
ROOT
ATOM      1  C   UNL     1       6.710   5.055  16.432  0.00  0.00    +0.000 A 
ATOM      2  C   UNL     1       7.053   5.592  17.607  0.00  0.00    +0.000 A 
ATOM      3  C   UNL     1       6.343   5.181  18.815  0.00  0.00    +0.000 A 
ATOM      4  O   UNL     1       6.809   5.379  19.933  0.00  0.00    +0.000 OA
ATOM      5  C   UNL     1       5.032   4.554  18.602  0.00  0.00    +0.000 A 
ATOM      6  C   UNL     1       4.151   4.427  19.673  0.00  0.00    +0.000 A 
ATOM      7  C   UNL     1       2.861   3.984  19.426  0.00  0.00    +0.000 A 
ATOM      8  C   UNL     1       2.447   3.659  18.129  0.00  0.00    +0.000 A 
ATOM      9  C   UNL     1       3.358   3.729  17.068  0.00  0.00    +0.000 A 
ATOM     10  C   UNL     1       4.671   4.185  17.310  0.00  0.00    +0.000 A 
ATOM     11  O   UNL     1       5.563   4.272  16.249  0.00  0.00    +0.000 OA
ENDROOT
BRANCH   8  12
ATOM     12  O   UNL     1       1.117   3.330  18.074  0.00  0.00    +0.000 OA
ATOM     13  C   UNL     1       0.597   2.350  18.951  0.00  0.00    +0.000 C 
ENDBRANCH   8  12
BRANCH   1  14
ATOM     14  O   UNL     1       7.483   5.423  15.334  0.00  0.00    +0.000 OA
BRANCH  14  19
ATOM     15  C   UNL     1       6.186   3.534  12.397  0.00  0.00    +0.000 A 
ATOM     16  C   UNL     1       6.898   4.198  11.398  0.00  0.00    +0.000 A 
ATOM     17  C   UNL     1       7.833   5.175  11.728  0.00  0.00    +0.000 A 
ATOM     18  C   UNL     1       8.021   5.517  13.065  0.00  0.00    +0.000 A 
ATOM     19  C   UNL     1       7.275   4.897  14.079  0.00  0.00    +0.000 A 
ATOM     20  C   UNL     1       6.391   3.866  13.742  0.00  0.00    +0.000 A 
BRANCH  15  22
ATOM     21  C   UNL     1       4.150   3.080  11.250  0.00  0.00    +0.000 C 
ATOM     22  O   UNL     1       5.303   2.599  11.922  0.00  0.00    +0.000 OA
ENDBRANCH  15  22
ENDBRANCH  14  19
ENDBRANCH   1  14
TORSDOF 4
ENDMDL
MODEL 5
REMARK VINA RESULT:      -7.2      1.766      7.079
REMARK  Name = 
REMARK  6 active torsions:
REMARK  status: ('A' for Active; 'I' for Inactive)
REMARK    1  A    between atoms: C_1  and  O_2
REMARK    2  A    between atoms: O_2  and  C_3
REMARK    3  A    between atoms: C_7  and  O_8
REMARK    4  A    between atoms: O_8  and  C_9
REMARK    5  A    between atoms: C_16  and  O_17
REMARK    6  A    between atoms: O_17  and  C_18
REMARK                            x       y       z     vdW  Elec       q    Type
REMARK                         _______ _______ _______ _____ _____    ______ ____
ROOT
ATOM      1  C   UNL     1       5.583   4.287  18.050  0.00  0.00    +0.000 A 
ATOM      2  C   UNL     1       6.617   5.132  18.103  0.00  0.00    +0.000 A 
ATOM      3  C   UNL     1       7.066   5.789  16.878  0.00  0.00    +0.000 A 
ATOM      4  O   UNL     1       7.773   6.792  16.910  0.00  0.00    +0.000 OA
ATOM      5  C   UNL     1       6.649   5.152  15.622  0.00  0.00    +0.000 A 
ATOM      6  C   UNL     1       7.282   5.503  14.432  0.00  0.00    +0.000 A 
ATOM      7  C   UNL     1       6.992   4.780  13.285  0.00  0.00    +0.000 A 
ATOM      8  C   UNL     1       6.075   3.723  13.312  0.00  0.00    +0.000 A 
ATOM      9  C   UNL     1       5.396   3.419  14.498  0.00  0.00    +0.000 A 
ATOM     10  C   UNL     1       5.690   4.145  15.672  0.00  0.00    +0.000 A 
ATOM     11  O   UNL     1       5.028   3.824  16.849  0.00  0.00    +0.000 OA
ENDROOT
BRANCH   8  12
ATOM     12  O   UNL     1       5.991   3.077  12.106  0.00  0.00    +0.000 OA
ATOM     13  C   UNL     1       4.738   2.938  11.466  0.00  0.00    +0.000 C 
ENDBRANCH   8  12
BRANCH   1  14
ATOM     14  O   UNL     1       5.149   3.762  19.264  0.00  0.00    +0.000 OA
BRANCH  14  19
ATOM     15  C   UNL     1       1.971   5.322  20.424  0.00  0.00    +0.000 A 
ATOM     16  C   UNL     1       1.198   4.165  20.513  0.00  0.00    +0.000 A 
ATOM     17  C   UNL     1       1.765   2.917  20.275  0.00  0.00    +0.000 A 
ATOM     18  C   UNL     1       3.105   2.835  19.901  0.00  0.00    +0.000 A 
ATOM     19  C   UNL     1       3.883   3.993  19.755  0.00  0.00    +0.000 A 
ATOM     20  C   UNL     1       3.323   5.236  20.067  0.00  0.00    +0.000 A 
BRANCH  15  22
ATOM     21  C   UNL     1       1.864   7.694  20.258  0.00  0.00    +0.000 C 
ATOM     22  O   UNL     1       1.279   6.476  20.686  0.00  0.00    +0.000 OA
ENDBRANCH  15  22
ENDBRANCH  14  19
ENDBRANCH   1  14
TORSDOF 4
ENDMDL
MODEL 6
REMARK VINA RESULT:      -7.2      2.119      2.889
REMARK  Name = 
REMARK  6 active torsions:
REMARK  status: ('A' for Active; 'I' for Inactive)
REMARK    1  A    between atoms: C_1  and  O_2
REMARK    2  A    between atoms: O_2  and  C_3
REMARK    3  A    between atoms: C_7  and  O_8
REMARK    4  A    between atoms: O_8  and  C_9
REMARK    5  A    between atoms: C_16  and  O_17
REMARK    6  A    between atoms: O_17  and  C_18
REMARK                            x       y       z     vdW  Elec       q    Type
REMARK                         _______ _______ _______ _____ _____    ______ ____
ROOT
ATOM      1  C   UNL     1       6.338   4.328  15.155  0.00  0.00    +0.000 A 
ATOM      2  C   UNL     1       7.206   4.812  16.048  0.00  0.00    +0.000 A 
ATOM      3  C   UNL     1       6.968   4.585  17.471  0.00  0.00    +0.000 A 
ATOM      4  O   UNL     1       7.864   4.712  18.301  0.00  0.00    +0.000 OA
ATOM      5  C   UNL     1       5.589   4.236  17.840  0.00  0.00    +0.000 A 
ATOM      6  C   UNL     1       5.194   4.320  19.173  0.00  0.00    +0.000 A 
ATOM      7  C   UNL     1       3.854   4.146  19.482  0.00  0.00    +0.000 A 
ATOM      8  C   UNL     1       2.912   3.881  18.481  0.00  0.00    +0.000 A 
ATOM      9  C   UNL     1       3.328   3.736  17.152  0.00  0.00    +0.000 A 
ATOM     10  C   UNL     1       4.689   3.919  16.828  0.00  0.00    +0.000 A 
ATOM     11  O   UNL     1       5.091   3.794  15.505  0.00  0.00    +0.000 OA
ENDROOT
BRANCH   8  12
ATOM     12  O   UNL     1       1.633   3.831  18.971  0.00  0.00    +0.000 OA
ATOM     13  C   UNL     1       0.880   2.640  18.856  0.00  0.00    +0.000 C 
ENDBRANCH   8  12
BRANCH   1  14
ATOM     14  O   UNL     1       6.669   4.502  13.814  0.00  0.00    +0.000 OA
BRANCH  14  19
ATOM     15  C   UNL     1       6.066   1.771  11.354  0.00  0.00    +0.000 A 
ATOM     16  C   UNL     1       4.770   2.120  10.976  0.00  0.00    +0.000 A 
ATOM     17  C   UNL     1       4.178   3.277  11.472  0.00  0.00    +0.000 A 
ATOM     18  C   UNL     1       4.874   4.062  12.388  0.00  0.00    +0.000 A 
ATOM     19  C   UNL     1       6.158   3.697  12.820  0.00  0.00    +0.000 A 
ATOM     20  C   UNL     1       6.772   2.572  12.260  0.00  0.00    +0.000 A 
BRANCH  15  22
ATOM     21  C   UNL     1       6.030  -0.610  11.325  0.00  0.00    +0.000 C 
ATOM     22  O   UNL     1       6.517   0.607  10.785  0.00  0.00    +0.000 OA
ENDBRANCH  15  22
ENDBRANCH  14  19
ENDBRANCH   1  14
TORSDOF 4
ENDMDL
MODEL 7
REMARK VINA RESULT:      -7.2      2.821      7.603
REMARK  Name = 
REMARK  6 active torsions:
REMARK  status: ('A' for Active; 'I' for Inactive)
REMARK    1  A    between atoms: C_1  and  O_2
REMARK    2  A    between atoms: O_2  and  C_3
REMARK    3  A    between atoms: C_7  and  O_8
REMARK    4  A    between atoms: O_8  and  C_9
REMARK    5  A    between atoms: C_16  and  O_17
REMARK    6  A    between atoms: O_17  and  C_18
REMARK                            x       y       z     vdW  Elec       q    Type
REMARK                         _______ _______ _______ _____ _____    ______ ____
ROOT
ATOM      1  C   UNL     1       3.639   5.963  18.642  0.00  0.00    +0.000 A 
ATOM      2  C   UNL     1       4.518   5.453  19.510  0.00  0.00    +0.000 A 
ATOM      3  C   UNL     1       5.908   5.275  19.098  0.00  0.00    +0.000 A 
ATOM      4  O   UNL     1       6.807   5.125  19.920  0.00  0.00    +0.000 OA
ATOM      5  C   UNL     1       6.146   5.251  17.648  0.00  0.00    +0.000 A 
ATOM      6  C   UNL     1       7.359   4.770  17.161  0.00  0.00    +0.000 A 
ATOM      7  C   UNL     1       7.507   4.602  15.793  0.00  0.00    +0.000 A 
ATOM      8  C   UNL     1       6.466   4.916  14.911  0.00  0.00    +0.000 A 
ATOM      9  C   UNL     1       5.273   5.459  15.405  0.00  0.00    +0.000 A 
ATOM     10  C   UNL     1       5.112   5.626  16.797  0.00  0.00    +0.000 A 
ATOM     11  O   UNL     1       3.919   6.146  17.281  0.00  0.00    +0.000 OA
ENDROOT
BRANCH   8  12
ATOM     12  O   UNL     1       6.770   4.598  13.614  0.00  0.00    +0.000 OA
ATOM     13  C   UNL     1       6.030   3.597  12.941  0.00  0.00    +0.000 C 
ENDBRANCH   8  12
BRANCH   1  14
ATOM     14  O   UNL     1       2.353   6.189  19.124  0.00  0.00    +0.000 OA
BRANCH  14  19
ATOM     15  C   UNL     1       1.222   9.737  19.231  0.00  0.00    +0.000 A 
ATOM     16  C   UNL     1       0.799   9.775  20.559  0.00  0.00    +0.000 A 
ATOM     17  C   UNL     1       0.976   8.672  21.389  0.00  0.00    +0.000 A 
ATOM     18  C   UNL     1       1.541   7.510  20.868  0.00  0.00    +0.000 A 
ATOM     19  C   UNL     1       1.924   7.436  19.521  0.00  0.00    +0.000 A 
ATOM     20  C   UNL     1       1.808   8.574  18.715  0.00  0.00    +0.000 A 
BRANCH  15  22
ATOM     21  C   UNL     1      -0.257  11.543  18.766  0.00  0.00    +0.000 C 
ATOM     22  O   UNL     1       0.983  10.895  18.537  0.00  0.00    +0.000 OA
ENDBRANCH  15  22
ENDBRANCH  14  19
ENDBRANCH   1  14
TORSDOF 4
ENDMDL
MODEL 8
REMARK VINA RESULT:      -7.1      4.078      6.303
REMARK  Name = 
REMARK  6 active torsions:
REMARK  status: ('A' for Active; 'I' for Inactive)
REMARK    1  A    between atoms: C_1  and  O_2
REMARK    2  A    between atoms: O_2  and  C_3
REMARK    3  A    between atoms: C_7  and  O_8
REMARK    4  A    between atoms: O_8  and  C_9
REMARK    5  A    between atoms: C_16  and  O_17
REMARK    6  A    between atoms: O_17  and  C_18
REMARK                            x       y       z     vdW  Elec       q    Type
REMARK                         _______ _______ _______ _____ _____    ______ ____
ROOT
ATOM      1  C   UNL     1       2.242   6.837  19.574  0.00  0.00    +0.000 A 
ATOM      2  C   UNL     1       2.132   7.512  18.426  0.00  0.00    +0.000 A 
ATOM      3  C   UNL     1       1.775   8.928  18.461  0.00  0.00    +0.000 A 
ATOM      4  O   UNL     1       1.971   9.664  17.499  0.00  0.00    +0.000 OA
ATOM      5  C   UNL     1       1.137   9.395  19.700  0.00  0.00    +0.000 A 
ATOM      6  C   UNL     1       0.477  10.621  19.711  0.00  0.00    +0.000 A 
ATOM      7  C   UNL     1      -0.255  10.973  20.834  0.00  0.00    +0.000 A 
ATOM      8  C   UNL     1      -0.326  10.122  21.944  0.00  0.00    +0.000 A 
ATOM      9  C   UNL     1       0.393   8.921  21.949  0.00  0.00    +0.000 A 
ATOM     10  C   UNL     1       1.135   8.552  20.807  0.00  0.00    +0.000 A 
ATOM     11  O   UNL     1       1.829   7.349  20.811  0.00  0.00    +0.000 OA
ENDROOT
BRANCH   8  12
ATOM     12  O   UNL     1      -1.167  10.602  22.914  0.00  0.00    +0.000 OA
ATOM     13  C   UNL     1      -1.417  11.991  23.006  0.00  0.00    +0.000 C 
ENDBRANCH   8  12
BRANCH   1  14
ATOM     14  O   UNL     1       2.671   5.516  19.476  0.00  0.00    +0.000 OA
BRANCH  14  19
ATOM     15  C   UNL     1       6.099   4.735  18.248  0.00  0.00    +0.000 A 
ATOM     16  C   UNL     1       5.749   4.097  17.059  0.00  0.00    +0.000 A 
ATOM     17  C   UNL     1       4.416   4.023  16.664  0.00  0.00    +0.000 A 
ATOM     18  C   UNL     1       3.428   4.552  17.491  0.00  0.00    +0.000 A 
ATOM     19  C   UNL     1       3.759   5.150  18.716  0.00  0.00    +0.000 A 
ATOM     20  C   UNL     1       5.106   5.284  19.069  0.00  0.00    +0.000 A 
BRANCH  15  22
ATOM     21  C   UNL     1       7.972   5.835  19.223  0.00  0.00    +0.000 C 
ATOM     22  O   UNL     1       7.446   4.731  18.505  0.00  0.00    +0.000 OA
ENDBRANCH  15  22
ENDBRANCH  14  19
ENDBRANCH   1  14
TORSDOF 4
ENDMDL
MODEL 9
REMARK VINA RESULT:      -7.1      2.945      7.743
REMARK  Name = 
REMARK  6 active torsions:
REMARK  status: ('A' for Active; 'I' for Inactive)
REMARK    1  A    between atoms: C_1  and  O_2
REMARK    2  A    between atoms: O_2  and  C_3
REMARK    3  A    between atoms: C_7  and  O_8
REMARK    4  A    between atoms: O_8  and  C_9
REMARK    5  A    between atoms: C_16  and  O_17
REMARK    6  A    between atoms: O_17  and  C_18
REMARK                            x       y       z     vdW  Elec       q    Type
REMARK                         _______ _______ _______ _____ _____    ______ ____
ROOT
ATOM      1  C   UNL     1       3.531   5.963  18.656  0.00  0.00    +0.000 A 
ATOM      2  C   UNL     1       4.405   5.489  19.549  0.00  0.00    +0.000 A 
ATOM      3  C   UNL     1       5.801   5.310  19.158  0.00  0.00    +0.000 A 
ATOM      4  O   UNL     1       6.692   5.195  19.994  0.00  0.00    +0.000 OA
ATOM      5  C   UNL     1       6.054   5.240  17.712  0.00  0.00    +0.000 A 
ATOM      6  C   UNL     1       7.276   4.754  17.254  0.00  0.00    +0.000 A 
ATOM      7  C   UNL     1       7.440   4.542  15.894  0.00  0.00    +0.000 A 
ATOM      8  C   UNL     1       6.406   4.818  14.992  0.00  0.00    +0.000 A 
ATOM      9  C   UNL     1       5.204   5.366  15.455  0.00  0.00    +0.000 A 
ATOM     10  C   UNL     1       5.026   5.578  16.838  0.00  0.00    +0.000 A 
ATOM     11  O   UNL     1       3.824   6.103  17.293  0.00  0.00    +0.000 OA
ENDROOT
BRANCH   8  12
ATOM     12  O   UNL     1       6.727   4.460  13.708  0.00  0.00    +0.000 OA
ATOM     13  C   UNL     1       5.852   3.630  12.969  0.00  0.00    +0.000 C 
ENDBRANCH   8  12
BRANCH   1  14
ATOM     14  O   UNL     1       2.238   6.193  19.117  0.00  0.00    +0.000 OA
BRANCH  14  19
ATOM     15  C   UNL     1       1.220   9.223  21.031  0.00  0.00    +0.000 A 
ATOM     16  C   UNL     1       1.160  10.123  19.968  0.00  0.00    +0.000 A 
ATOM     17  C   UNL     1       1.370   9.690  18.662  0.00  0.00    +0.000 A 
ATOM     18  C   UNL     1       1.686   8.354  18.429  0.00  0.00    +0.000 A 
ATOM     19  C   UNL     1       1.803   7.445  19.491  0.00  0.00    +0.000 A 
ATOM     20  C   UNL     1       1.519   7.875  20.792  0.00  0.00    +0.000 A 
BRANCH  15  22
ATOM     21  C   UNL     1      -0.215   9.447  22.917  0.00  0.00    +0.000 C 
ATOM     22  O   UNL     1       0.991   9.792  22.257  0.00  0.00    +0.000 OA
ENDBRANCH  15  22
ENDBRANCH  14  19
ENDBRANCH   1  14
TORSDOF 4
ENDMDL
