MODEL 1
REMARK VINA RESULT:      -6.1      0.000      0.000
REMARK  Name = 
REMARK  4 active torsions:
REMARK  status: ('A' for Active; 'I' for Inactive)
REMARK    1  A    between atoms: C_1  and  C_2
REMARK    2  A    between atoms: C_2  and  C_3
REMARK    3  A    between atoms: C_6  and  O_7
REMARK    4  A    between atoms: C_18  and  C_19
REMARK                            x       y       z     vdW  Elec       q    Type
REMARK                         _______ _______ _______ _____ _____    ______ ____
ROOT
ATOM      1  C   UNL     1      -4.026  13.930  22.428  0.00  0.00    +0.000 C 
ATOM      2  O   UNL     1      -2.958  14.896  22.664  0.00  0.00    +0.000 OA
ATOM      3  C   UNL     1      -1.835  14.323  23.341  0.00  0.00    +0.000 C 
ATOM      4  C   UNL     1      -1.327  13.089  22.648  0.00  0.00    +0.000 C 
ATOM      5  C   UNL     1      -1.962  12.582  21.584  0.00  0.00    +0.000 C 
ATOM      6  C   UNL     1      -3.391  12.959  21.372  0.00  0.00    +0.000 C 
ATOM      7  N   UNL     1      -4.060  12.629  20.296  0.00  0.00    +0.000 NA
ATOM      8  C   UNL     1      -3.418  11.938  19.271  0.00  0.00    +0.000 C 
ATOM      9  C   UNL     1      -2.111  11.617  19.296  0.00  0.00    +0.000 C 
ATOM     10  C   UNL     1      -1.514  10.847  18.168  0.00  0.00    +0.000 C 
ATOM     11  O   UNL     1      -0.349  10.457  18.211  0.00  0.00    +0.000 OA
ATOM     12  C   UNL     1      -2.436  10.494  17.018  0.00  0.00    +0.000 C 
ATOM     13  O   UNL     1      -3.445  11.475  16.848  0.00  0.00    +0.000 OA
ATOM     14  C   UNL     1      -4.249  11.642  18.025  0.00  0.00    +0.000 C 
ATOM     15  C   UNL     1      -1.200  11.996  20.417  0.00  0.00    +0.000 C 
ENDROOT
BRANCH  15  16
ATOM     16  C   UNL     1      -0.152  13.042  19.953  0.00  0.00    +0.000 A 
ATOM     17  C   UNL     1       1.214  12.718  19.855  0.00  0.00    +0.000 A 
ATOM     18  C   UNL     1       2.115  13.600  19.246  0.00  0.00    +0.000 A 
ATOM     19  C   UNL     1       1.662  14.816  18.727  0.00  0.00    +0.000 A 
ATOM     20 CL   UNL     1       2.813  15.828  17.925  0.00  0.00    +0.000 Cl
ATOM     21  C   UNL     1       0.311  15.161  18.839  0.00  0.00    +0.000 A 
ATOM     22 CL   UNL     1      -0.332  16.618  18.167  0.00  0.00    +0.000 Cl
ATOM     23  C   UNL     1      -0.585  14.284  19.465  0.00  0.00    +0.000 A 
ENDBRANCH  15  16
BRANCH   1  25
ATOM     24  C   UNL     1      -4.508  12.268  24.490  0.00  0.00    +0.000 C 
ATOM     25  C   UNL     1      -4.589  13.627  23.833  0.00  0.00    +0.000 C 
ENDBRANCH   1  25
BRANCH   4  26
ATOM     26  O   UNL     1      -0.052  12.657  22.964  0.00  0.00    +0.000 OA
ATOM     27  H   UNL     1      -0.046  12.230  23.847  0.00  0.00    +0.000 HD
ENDBRANCH   4  26
TORSDOF 3
ENDMDL
MODEL 2
REMARK VINA RESULT:      -6.0      3.033      5.376
REMARK  Name = 
REMARK  4 active torsions:
REMARK  status: ('A' for Active; 'I' for Inactive)
REMARK    1  A    between atoms: C_1  and  C_2
REMARK    2  A    between atoms: C_2  and  C_3
REMARK    3  A    between atoms: C_6  and  O_7
REMARK    4  A    between atoms: C_18  and  C_19
REMARK                            x       y       z     vdW  Elec       q    Type
REMARK                         _______ _______ _______ _____ _____    ______ ____
ROOT
ATOM      1  C   UNL     1      -5.365  11.524  18.901  0.00  0.00    +0.000 C 
ATOM      2  O   UNL     1      -4.803  10.302  18.336  0.00  0.00    +0.000 OA
ATOM      3  C   UNL     1      -4.003  10.549  17.175  0.00  0.00    +0.000 C 
ATOM      4  C   UNL     1      -2.943  11.585  17.429  0.00  0.00    +0.000 C 
ATOM      5  C   UNL     1      -2.877  12.235  18.598  0.00  0.00    +0.000 C 
ATOM      6  C   UNL     1      -4.099  12.267  19.454  0.00  0.00    +0.000 C 
ATOM      7  N   UNL     1      -4.102  12.758  20.669  0.00  0.00    +0.000 NA
ATOM      8  C   UNL     1      -2.914  13.231  21.222  0.00  0.00    +0.000 C 
ATOM      9  C   UNL     1      -1.726  13.175  20.592  0.00  0.00    +0.000 C 
ATOM     10  C   UNL     1      -0.511  13.735  21.249  0.00  0.00    +0.000 C 
ATOM     11  O   UNL     1       0.565  13.786  20.656  0.00  0.00    +0.000 OA
ATOM     12  C   UNL     1      -0.691  14.317  22.637  0.00  0.00    +0.000 C 
ATOM     13  O   UNL     1      -1.726  13.653  23.343  0.00  0.00    +0.000 OA
ATOM     14  C   UNL     1      -2.987  13.730  22.663  0.00  0.00    +0.000 C 
ATOM     15  C   UNL     1      -1.550  12.572  19.238  0.00  0.00    +0.000 C 
ENDROOT
BRANCH  15  16
ATOM     16  C   UNL     1      -0.709  11.270  19.315  0.00  0.00    +0.000 A 
ATOM     17  C   UNL     1       0.433  11.086  18.512  0.00  0.00    +0.000 A 
ATOM     18  C   UNL     1       1.294  10.004  18.732  0.00  0.00    +0.000 A 
ATOM     19  C   UNL     1       1.025   9.094  19.758  0.00  0.00    +0.000 A 
ATOM     20 CL   UNL     1       2.165   7.820  20.023  0.00  0.00    +0.000 Cl
ATOM     21  C   UNL     1      -0.119   9.251  20.548  0.00  0.00    +0.000 A 
ATOM     22 CL   UNL     1      -0.482   8.201  21.872  0.00  0.00    +0.000 Cl
ATOM     23  C   UNL     1      -0.988  10.325  20.313  0.00  0.00    +0.000 A 
ENDBRANCH  15  16
BRANCH   1  25
ATOM     24  C   UNL     1      -6.454  13.391  17.296  0.00  0.00    +0.000 C 
ATOM     25  C   UNL     1      -6.405  11.990  17.859  0.00  0.00    +0.000 C 
ENDBRANCH   1  25
BRANCH   4  26
ATOM     26  O   UNL     1      -1.886  11.649  16.540  0.00  0.00    +0.000 OA
ATOM     27  H   UNL     1      -1.417  12.506  16.629  0.00  0.00    +0.000 HD
ENDBRANCH   4  26
TORSDOF 3
ENDMDL
MODEL 3
REMARK VINA RESULT:      -6.0      7.900     10.464
REMARK  Name = 
REMARK  4 active torsions:
REMARK  status: ('A' for Active; 'I' for Inactive)
REMARK    1  A    between atoms: C_1  and  C_2
REMARK    2  A    between atoms: C_2  and  C_3
REMARK    3  A    between atoms: C_6  and  O_7
REMARK    4  A    between atoms: C_18  and  C_19
REMARK                            x       y       z     vdW  Elec       q    Type
REMARK                         _______ _______ _______ _____ _____    ______ ____
ROOT
ATOM      1  C   UNL     1       5.561   6.720  16.435  0.00  0.00    +0.000 C 
ATOM      2  O   UNL     1       5.356   5.275  16.427  0.00  0.00    +0.000 OA
ATOM      3  C   UNL     1       5.772   4.652  17.647  0.00  0.00    +0.000 C 
ATOM      4  C   UNL     1       5.147   5.298  18.852  0.00  0.00    +0.000 C 
ATOM      5  C   UNL     1       4.381   6.389  18.734  0.00  0.00    +0.000 C 
ATOM      6  C   UNL     1       4.519   7.214  17.498  0.00  0.00    +0.000 C 
ATOM      7  N   UNL     1       3.725   8.220  17.224  0.00  0.00    +0.000 NA
ATOM      8  C   UNL     1       2.672   8.520  18.084  0.00  0.00    +0.000 C 
ATOM      9  C   UNL     1       2.382   7.799  19.183  0.00  0.00    +0.000 C 
ATOM     10  C   UNL     1       1.253   8.213  20.065  0.00  0.00    +0.000 C 
ATOM     11  O   UNL     1       1.030   7.631  21.125  0.00  0.00    +0.000 OA
ATOM     12  C   UNL     1       0.463   9.432  19.637  0.00  0.00    +0.000 C 
ATOM     13  O   UNL     1       0.440   9.561  18.225  0.00  0.00    +0.000 OA
ATOM     14  C   UNL     1       1.756   9.667  17.665  0.00  0.00    +0.000 C 
ATOM     15  C   UNL     1       3.144   6.579  19.583  0.00  0.00    +0.000 C 
ENDROOT
BRANCH  15  16
ATOM     16  C   UNL     1       2.268   5.306  19.447  0.00  0.00    +0.000 A 
ATOM     17  C   UNL     1       1.866   4.822  18.188  0.00  0.00    +0.000 A 
ATOM     18  C   UNL     1       1.252   3.571  18.066  0.00  0.00    +0.000 A 
ATOM     19  C   UNL     1       1.032   2.786  19.202  0.00  0.00    +0.000 A 
ATOM     20 CL   UNL     1       0.333   1.220  18.975  0.00  0.00    +0.000 Cl
ATOM     21  C   UNL     1       1.404   3.265  20.463  0.00  0.00    +0.000 A 
ATOM     22 CL   UNL     1       1.219   2.325  21.902  0.00  0.00    +0.000 Cl
ATOM     23  C   UNL     1       2.002   4.526  20.583  0.00  0.00    +0.000 A 
ENDBRANCH  15  16
BRANCH   1  25
ATOM     24  C   UNL     1       7.867   7.693  17.426  0.00  0.00    +0.000 C 
ATOM     25  C   UNL     1       7.095   6.893  16.403  0.00  0.00    +0.000 C 
ENDBRANCH   1  25
BRANCH   4  26
ATOM     26  O   UNL     1       5.159   4.585  20.037  0.00  0.00    +0.000 OA
ATOM     27  H   UNL     1       5.406   5.169  20.784  0.00  0.00    +0.000 HD
ENDBRANCH   4  26
TORSDOF 3
ENDMDL
MODEL 4
REMARK VINA RESULT:      -6.0      3.100      6.084
REMARK  Name = 
REMARK  4 active torsions:
REMARK  status: ('A' for Active; 'I' for Inactive)
REMARK    1  A    between atoms: C_1  and  C_2
REMARK    2  A    between atoms: C_2  and  C_3
REMARK    3  A    between atoms: C_6  and  O_7
REMARK    4  A    between atoms: C_18  and  C_19
REMARK                            x       y       z     vdW  Elec       q    Type
REMARK                         _______ _______ _______ _____ _____    ______ ____
ROOT
ATOM      1  C   UNL     1       0.303  10.408  19.113  0.00  0.00    +0.000 C 
ATOM      2  O   UNL     1      -0.761   9.660  19.776  0.00  0.00    +0.000 OA
ATOM      3  C   UNL     1      -0.472   9.392  21.152  0.00  0.00    +0.000 C 
ATOM      4  C   UNL     1      -0.115  10.642  21.908  0.00  0.00    +0.000 C 
ATOM      5  C   UNL     1       0.000  11.820  21.283  0.00  0.00    +0.000 C 
ATOM      6  C   UNL     1       0.225  11.813  19.807  0.00  0.00    +0.000 C 
ATOM      7  N   UNL     1       0.216  12.904  19.082  0.00  0.00    +0.000 NA
ATOM      8  C   UNL     1      -0.059  14.129  19.687  0.00  0.00    +0.000 C 
ATOM      9  C   UNL     1      -0.367  14.262  20.990  0.00  0.00    +0.000 C 
ATOM     10  C   UNL     1      -0.615  15.618  21.559  0.00  0.00    +0.000 C 
ATOM     11  O   UNL     1      -0.801  15.776  22.764  0.00  0.00    +0.000 OA
ATOM     12  C   UNL     1      -0.535  16.787  20.599  0.00  0.00    +0.000 C 
ATOM     13  O   UNL     1      -0.922  16.405  19.290  0.00  0.00    +0.000 OA
ATOM     14  C   UNL     1      -0.109  15.346  18.766  0.00  0.00    +0.000 C 
ATOM     15  C   UNL     1      -0.476  13.103  21.924  0.00  0.00    +0.000 C 
ENDROOT
BRANCH  15  16
ATOM     16  C   UNL     1      -1.944  12.895  22.383  0.00  0.00    +0.000 A 
ATOM     17  C   UNL     1      -2.319  13.044  23.731  0.00  0.00    +0.000 A 
ATOM     18  C   UNL     1      -3.669  13.054  24.100  0.00  0.00    +0.000 A 
ATOM     19  C   UNL     1      -4.662  12.916  23.125  0.00  0.00    +0.000 A 
ATOM     20 CL   UNL     1      -6.312  13.007  23.637  0.00  0.00    +0.000 Cl
ATOM     21  C   UNL     1      -4.302  12.742  21.784  0.00  0.00    +0.000 A 
ATOM     22 CL   UNL     1      -5.474  12.626  20.518  0.00  0.00    +0.000 Cl
ATOM     23  C   UNL     1      -2.950  12.714  21.421  0.00  0.00    +0.000 A 
ENDBRANCH  15  16
BRANCH   1  25
ATOM     24  C   UNL     1       1.971   8.805  17.737  0.00  0.00    +0.000 C 
ATOM     25  C   UNL     1       1.481   9.413  19.030  0.00  0.00    +0.000 C 
ENDBRANCH   1  25
BRANCH   4  26
ATOM     26  O   UNL     1      -0.179  10.594  23.288  0.00  0.00    +0.000 OA
ATOM     27  H   UNL     1      -0.952  10.063  23.576  0.00  0.00    +0.000 HD
ENDBRANCH   4  26
TORSDOF 3
ENDMDL
MODEL 5
REMARK VINA RESULT:      -5.8      3.019      5.272
REMARK  Name = 
REMARK  4 active torsions:
REMARK  status: ('A' for Active; 'I' for Inactive)
REMARK    1  A    between atoms: C_1  and  C_2
REMARK    2  A    between atoms: C_2  and  C_3
REMARK    3  A    between atoms: C_6  and  O_7
REMARK    4  A    between atoms: C_18  and  C_19
REMARK                            x       y       z     vdW  Elec       q    Type
REMARK                         _______ _______ _______ _____ _____    ______ ____
ROOT
ATOM      1  C   UNL     1       1.736  12.838  20.086  0.00  0.00    +0.000 C 
ATOM      2  O   UNL     1       1.443  13.146  21.481  0.00  0.00    +0.000 OA
ATOM      3  C   UNL     1       0.786  14.408  21.641  0.00  0.00    +0.000 C 
ATOM      4  C   UNL     1      -0.438  14.522  20.776  0.00  0.00    +0.000 C 
ATOM      5  C   UNL     1      -0.761  13.559  19.904  0.00  0.00    +0.000 C 
ATOM      6  C   UNL     1       0.311  12.615  19.470  0.00  0.00    +0.000 C 
ATOM      7  N   UNL     1       0.072  11.561  18.730  0.00  0.00    +0.000 NA
ATOM      8  C   UNL     1      -1.238  11.263  18.360  0.00  0.00    +0.000 C 
ATOM      9  C   UNL     1      -2.305  11.980  18.760  0.00  0.00    +0.000 C 
ATOM     10  C   UNL     1      -3.668  11.606  18.287  0.00  0.00    +0.000 C 
ATOM     11  O   UNL     1      -4.646  12.301  18.557  0.00  0.00    +0.000 OA
ATOM     12  C   UNL     1      -3.772  10.389  17.390  0.00  0.00    +0.000 C 
ATOM     13  O   UNL     1      -2.761   9.441  17.691  0.00  0.00    +0.000 OA
ATOM     14  C   UNL     1      -1.441   9.986  17.548  0.00  0.00    +0.000 C 
ATOM     15  C   UNL     1      -2.200  13.158  19.670  0.00  0.00    +0.000 C 
ENDROOT
BRANCH  15  16
ATOM     16  C   UNL     1      -2.846  12.856  21.048  0.00  0.00    +0.000 A 
ATOM     17  C   UNL     1      -2.192  12.058  22.005  0.00  0.00    +0.000 A 
ATOM     18  C   UNL     1      -2.687  11.959  23.310  0.00  0.00    +0.000 A 
ATOM     19  C   UNL     1      -3.841  12.658  23.676  0.00  0.00    +0.000 A 
ATOM     20 CL   UNL     1      -4.359  12.550  25.323  0.00  0.00    +0.000 Cl
ATOM     21  C   UNL     1      -4.514  13.436  22.728  0.00  0.00    +0.000 A 
ATOM     22 CL   UNL     1      -5.910  14.375  23.124  0.00  0.00    +0.000 Cl
ATOM     23  C   UNL     1      -4.026  13.518  21.418  0.00  0.00    +0.000 A 
ENDBRANCH  15  16
BRANCH   1  25
ATOM     24  C   UNL     1       2.860  14.578  18.366  0.00  0.00    +0.000 C 
ATOM     25  C   UNL     1       2.834  13.850  19.690  0.00  0.00    +0.000 C 
ENDBRANCH   1  25
BRANCH   4  26
ATOM     26  O   UNL     1      -1.357  15.504  21.095  0.00  0.00    +0.000 OA
ATOM     27  H   UNL     1      -1.387  15.641  22.066  0.00  0.00    +0.000 HD
ENDBRANCH   4  26
TORSDOF 3
ENDMDL
MODEL 6
REMARK VINA RESULT:      -5.8      3.404      6.390
REMARK  Name = 
REMARK  4 active torsions:
REMARK  status: ('A' for Active; 'I' for Inactive)
REMARK    1  A    between atoms: C_1  and  C_2
REMARK    2  A    between atoms: C_2  and  C_3
REMARK    3  A    between atoms: C_6  and  O_7
REMARK    4  A    between atoms: C_18  and  C_19
REMARK                            x       y       z     vdW  Elec       q    Type
REMARK                         _______ _______ _______ _____ _____    ______ ____
ROOT
ATOM      1  C   UNL     1       0.849  10.383  18.947  0.00  0.00    +0.000 C 
ATOM      2  O   UNL     1      -0.511   9.894  19.150  0.00  0.00    +0.000 OA
ATOM      3  C   UNL     1      -0.716   9.362  20.463  0.00  0.00    +0.000 C 
ATOM      4  C   UNL     1      -0.307  10.332  21.536  0.00  0.00    +0.000 C 
ATOM      5  C   UNL     1       0.270  11.500  21.229  0.00  0.00    +0.000 C 
ATOM      6  C   UNL     1       0.912  11.637  19.889  0.00  0.00    +0.000 C 
ATOM      7  N   UNL     1       1.384  12.773  19.440  0.00  0.00    +0.000 NA
ATOM      8  C   UNL     1       1.248  13.927  20.209  0.00  0.00    +0.000 C 
ATOM      9  C   UNL     1       0.609  13.958  21.394  0.00  0.00    +0.000 C 
ATOM     10  C   UNL     1       0.540  15.233  22.165  0.00  0.00    +0.000 C 
ATOM     11  O   UNL     1       0.050  15.267  23.292  0.00  0.00    +0.000 OA
ATOM     12  C   UNL     1       1.182  16.451  21.532  0.00  0.00    +0.000 C 
ATOM     13  O   UNL     1       1.119  16.388  20.117  0.00  0.00    +0.000 OA
ATOM     14  C   UNL     1       1.768  15.222  19.592  0.00  0.00    +0.000 C 
ATOM     15  C   UNL     1      -0.049  12.762  21.997  0.00  0.00    +0.000 C 
ENDROOT
BRANCH  15  16
ATOM     16  C   UNL     1      -1.592  12.931  22.025  0.00  0.00    +0.000 A 
ATOM     17  C   UNL     1      -2.334  13.088  20.839  0.00  0.00    +0.000 A 
ATOM     18  C   UNL     1      -3.732  13.036  20.861  0.00  0.00    +0.000 A 
ATOM     19  C   UNL     1      -4.407  12.825  22.067  0.00  0.00    +0.000 A 
ATOM     20 CL   UNL     1      -6.131  12.701  22.014  0.00  0.00    +0.000 Cl
ATOM     21  C   UNL     1      -3.682  12.692  23.256  0.00  0.00    +0.000 A 
ATOM     22 CL   UNL     1      -4.445  12.369  24.774  0.00  0.00    +0.000 Cl
ATOM     23  C   UNL     1      -2.283  12.763  23.234  0.00  0.00    +0.000 A 
ENDBRANCH  15  16
BRANCH   1  25
ATOM     24  C   UNL     1       2.378   8.552  17.700  0.00  0.00    +0.000 C 
ATOM     25  C   UNL     1       1.721   9.109  18.942  0.00  0.00    +0.000 C 
ENDBRANCH   1  25
BRANCH   4  26
ATOM     26  O   UNL     1      -0.786  10.110  22.814  0.00  0.00    +0.000 OA
ATOM     27  H   UNL     1      -0.049  10.120  23.460  0.00  0.00    +0.000 HD
ENDBRANCH   4  26
TORSDOF 3
ENDMDL
MODEL 7
REMARK VINA RESULT:      -5.8      3.184      4.334
REMARK  Name = 
REMARK  4 active torsions:
REMARK  status: ('A' for Active; 'I' for Inactive)
REMARK    1  A    between atoms: C_1  and  C_2
REMARK    2  A    between atoms: C_2  and  C_3
REMARK    3  A    between atoms: C_6  and  O_7
REMARK    4  A    between atoms: C_18  and  C_19
REMARK                            x       y       z     vdW  Elec       q    Type
REMARK                         _______ _______ _______ _____ _____    ______ ____
ROOT
ATOM      1  C   UNL     1      -3.728  13.590  23.492  0.00  0.00    +0.000 C 
ATOM      2  O   UNL     1      -4.574  13.925  22.351  0.00  0.00    +0.000 OA
ATOM      3  C   UNL     1      -4.008  14.949  21.526  0.00  0.00    +0.000 C 
ATOM      4  C   UNL     1      -2.604  14.620  21.101  0.00  0.00    +0.000 C 
ATOM      5  C   UNL     1      -1.980  13.529  21.560  0.00  0.00    +0.000 C 
ATOM      6  C   UNL     1      -2.489  12.904  22.816  0.00  0.00    +0.000 C 
ATOM      7  N   UNL     1      -2.037  11.763  23.275  0.00  0.00    +0.000 NA
ATOM      8  C   UNL     1      -1.075  11.063  22.551  0.00  0.00    +0.000 C 
ATOM      9  C   UNL     1      -0.599  11.470  21.359  0.00  0.00    +0.000 C 
ATOM     10  C   UNL     1       0.455  10.672  20.670  0.00  0.00    +0.000 C 
ATOM     11  O   UNL     1       0.976  11.073  19.631  0.00  0.00    +0.000 OA
ATOM     12  C   UNL     1       0.910   9.401  21.358  0.00  0.00    +0.000 C 
ATOM     13  O   UNL     1      -0.139   8.822  22.116  0.00  0.00    +0.000 OA
ATOM     14  C   UNL     1      -0.644   9.713  23.120  0.00  0.00    +0.000 C 
ATOM     15  C   UNL     1      -1.075  12.706  20.671  0.00  0.00    +0.000 C 
ENDROOT
BRANCH  15  16
ATOM     16  C   UNL     1      -1.860  12.356  19.379  0.00  0.00    +0.000 A 
ATOM     17  C   UNL     1      -1.218  12.276  18.129  0.00  0.00    +0.000 A 
ATOM     18  C   UNL     1      -1.889  11.765  17.013  0.00  0.00    +0.000 A 
ATOM     19  C   UNL     1      -3.211  11.326  17.131  0.00  0.00    +0.000 A 
ATOM     20 CL   UNL     1      -3.960  10.640  15.731  0.00  0.00    +0.000 Cl
ATOM     21  C   UNL     1      -3.869  11.422  18.362  0.00  0.00    +0.000 A 
ATOM     22 CL   UNL     1      -5.481  10.843  18.597  0.00  0.00    +0.000 Cl
ATOM     23  C   UNL     1      -3.200  11.951  19.473  0.00  0.00    +0.000 A 
ENDBRANCH  15  16
BRANCH   1  25
ATOM     24  C   UNL     1      -2.632  15.317  25.242  0.00  0.00    +0.000 C 
ATOM     25  C   UNL     1      -3.791  14.837  24.400  0.00  0.00    +0.000 C 
ENDBRANCH   1  25
BRANCH   4  26
ATOM     26  O   UNL     1      -2.083  15.316  20.025  0.00  0.00    +0.000 OA
ATOM     27  H   UNL     1      -2.065  16.277  20.218  0.00  0.00    +0.000 HD
ENDBRANCH   4  26
TORSDOF 3
ENDMDL
MODEL 8
REMARK VINA RESULT:      -5.7      3.035      4.756
REMARK  Name = 
REMARK  4 active torsions:
REMARK  status: ('A' for Active; 'I' for Inactive)
REMARK    1  A    between atoms: C_1  and  C_2
REMARK    2  A    between atoms: C_2  and  C_3
REMARK    3  A    between atoms: C_6  and  O_7
REMARK    4  A    between atoms: C_18  and  C_19
REMARK                            x       y       z     vdW  Elec       q    Type
REMARK                         _______ _______ _______ _____ _____    ______ ____
ROOT
ATOM      1  C   UNL     1      -1.335  14.740  22.969  0.00  0.00    +0.000 C 
ATOM      2  O   UNL     1      -2.417  15.160  22.085  0.00  0.00    +0.000 OA
ATOM      3  C   UNL     1      -1.949  15.577  20.798  0.00  0.00    +0.000 C 
ATOM      4  C   UNL     1      -1.073  14.539  20.152  0.00  0.00    +0.000 C 
ATOM      5  C   UNL     1      -0.729  13.422  20.804  0.00  0.00    +0.000 C 
ATOM      6  C   UNL     1      -0.827  13.418  22.293  0.00  0.00    +0.000 C 
ATOM      7  N   UNL     1      -0.644  12.339  23.014  0.00  0.00    +0.000 NA
ATOM      8  C   UNL     1      -0.393  11.124  22.382  0.00  0.00    +0.000 C 
ATOM      9  C   UNL     1      -0.369  10.973  21.044  0.00  0.00    +0.000 C 
ATOM     10  C   UNL     1      -0.060   9.639  20.455  0.00  0.00    +0.000 C 
ATOM     11  O   UNL     1       0.065   9.496  19.239  0.00  0.00    +0.000 OA
ATOM     12  C   UNL     1       0.181   8.501  21.425  0.00  0.00    +0.000 C 
ATOM     13  O   UNL     1      -0.567   8.674  22.617  0.00  0.00    +0.000 OA
ATOM     14  C   UNL     1      -0.251   9.903  23.287  0.00  0.00    +0.000 C 
ATOM     15  C   UNL     1      -0.639  12.091  20.093  0.00  0.00    +0.000 C 
ENDROOT
BRANCH  15  16
ATOM     16  C   UNL     1      -1.971  11.863  19.330  0.00  0.00    +0.000 A 
ATOM     17  C   UNL     1      -3.212  12.188  19.908  0.00  0.00    +0.000 A 
ATOM     18  C   UNL     1      -4.383  12.169  19.142  0.00  0.00    +0.000 A 
ATOM     19  C   UNL     1      -4.328  11.825  17.788  0.00  0.00    +0.000 A 
ATOM     20 CL   UNL     1      -5.800  11.889  16.881  0.00  0.00    +0.000 Cl
ATOM     21  C   UNL     1      -3.105  11.476  17.207  0.00  0.00    +0.000 A 
ATOM     22 CL   UNL     1      -2.951  11.101  15.526  0.00  0.00    +0.000 Cl
ATOM     23  C   UNL     1      -1.937  11.479  17.981  0.00  0.00    +0.000 A 
ENDBRANCH  15  16
BRANCH   1  25
ATOM     24  C   UNL     1      -1.122  17.145  24.159  0.00  0.00    +0.000 C 
ATOM     25  C   UNL     1      -0.568  16.042  23.287  0.00  0.00    +0.000 C 
ENDBRANCH   1  25
BRANCH   4  26
ATOM     26  O   UNL     1      -0.863  14.639  18.789  0.00  0.00    +0.000 OA
ATOM     27  H   UNL     1      -1.385  15.381  18.417  0.00  0.00    +0.000 HD
ENDBRANCH   4  26
TORSDOF 3
ENDMDL
MODEL 9
REMARK VINA RESULT:      -5.7      3.094      5.670
REMARK  Name = 
REMARK  4 active torsions:
REMARK  status: ('A' for Active; 'I' for Inactive)
REMARK    1  A    between atoms: C_1  and  C_2
REMARK    2  A    between atoms: C_2  and  C_3
REMARK    3  A    between atoms: C_6  and  O_7
REMARK    4  A    between atoms: C_18  and  C_19
REMARK                            x       y       z     vdW  Elec       q    Type
REMARK                         _______ _______ _______ _____ _____    ______ ____
ROOT
ATOM      1  C   UNL     1      -6.071  13.510  22.572  0.00  0.00    +0.000 C 
ATOM      2  O   UNL     1      -5.691  12.205  22.040  0.00  0.00    +0.000 OA
ATOM      3  C   UNL     1      -5.097  12.291  20.741  0.00  0.00    +0.000 C 
ATOM      4  C   UNL     1      -3.950  13.263  20.707  0.00  0.00    +0.000 C 
ATOM      5  C   UNL     1      -3.639  14.004  21.777  0.00  0.00    +0.000 C 
ATOM      6  C   UNL     1      -4.685  14.201  22.824  0.00  0.00    +0.000 C 
ATOM      7  N   UNL     1      -4.443  14.793  23.967  0.00  0.00    +0.000 NA
ATOM      8  C   UNL     1      -3.151  15.222  24.260  0.00  0.00    +0.000 C 
ATOM      9  C   UNL     1      -2.099  15.024  23.443  0.00  0.00    +0.000 C 
ATOM     10  C   UNL     1      -0.756  15.547  23.824  0.00  0.00    +0.000 C 
ATOM     11  O   UNL     1       0.198  15.466  23.052  0.00  0.00    +0.000 OA
ATOM     12  C   UNL     1      -0.652  16.257  25.158  0.00  0.00    +0.000 C 
ATOM     13  O   UNL     1      -1.581  15.735  26.092  0.00  0.00    +0.000 OA
ATOM     14  C   UNL     1      -2.937  15.847  25.636  0.00  0.00    +0.000 C 
ATOM     15  C   UNL     1      -2.202  14.295  22.144  0.00  0.00    +0.000 C 
ENDROOT
BRANCH  15  16
ATOM     16  C   UNL     1      -1.438  12.946  22.202  0.00  0.00    +0.000 A 
ATOM     17  C   UNL     1      -1.774  11.952  23.141  0.00  0.00    +0.000 A 
ATOM     18  C   UNL     1      -1.219  10.670  23.053  0.00  0.00    +0.000 A 
ATOM     19  C   UNL     1      -0.322  10.365  22.024  0.00  0.00    +0.000 A 
ATOM     20 CL   UNL     1       0.273   8.743  21.931  0.00  0.00    +0.000 Cl
ATOM     21  C   UNL     1       0.039  11.350  21.099  0.00  0.00    +0.000 A 
ATOM     22 CL   UNL     1       1.093  11.028  19.767  0.00  0.00    +0.000 Cl
ATOM     23  C   UNL     1      -0.505  12.637  21.201  0.00  0.00    +0.000 A 
ENDBRANCH  15  16
BRANCH   1  25
ATOM     24  C   UNL     1      -7.324  15.313  21.015  0.00  0.00    +0.000 C 
ATOM     25  C   UNL     1      -7.251  13.960  21.683  0.00  0.00    +0.000 C 
ENDBRANCH   1  25
BRANCH   4  26
ATOM     26  O   UNL     1      -3.066  13.172  19.647  0.00  0.00    +0.000 OA
ATOM     27  H   UNL     1      -2.806  12.238  19.500  0.00  0.00    +0.000 HD
ENDBRANCH   4  26
TORSDOF 3
ENDMDL
