MODEL 1
REMARK VINA RESULT:      -8.3      0.000      0.000
REMARK  Name = 
REMARK  8 active torsions:
REMARK  status: ('A' for Active; 'I' for Inactive)
REMARK    1  A    between atoms: C_1  and  O_2
REMARK    2  A    between atoms: O_2  and  C_3
REMARK    3  A    between atoms: C_3  and  C_4
REMARK    4  A    between atoms: C_6  and  C_7
REMARK    5  A    between atoms: C_7  and  N_8
REMARK    6  A    between atoms: N_8  and  C_9
REMARK    7  A    between atoms: C_10  and  C_12
REMARK    8  A    between atoms: C_16  and  C_17
REMARK                            x       y       z     vdW  Elec       q    Type
REMARK                         _______ _______ _______ _____ _____    ______ ____
ROOT
ATOM      1  N   UNL     1       5.928   4.169  17.249  0.00  0.00    +0.000 N 
ATOM      2  C   UNL     1       5.407   4.104  15.892  0.00  0.00    +0.000 C 
ATOM      3  C   UNL     1       5.226   3.814  18.404  0.00  0.00    +0.000 C 
ATOM      4  O   UNL     1       5.749   3.900  19.518  0.00  0.00    +0.000 OA
ENDROOT
BRANCH   3   5
ATOM      5  C   UNL     1       3.844   3.353  18.272  0.00  0.00    +0.000 A 
ATOM      6  C   UNL     1       3.424   2.059  18.012  0.00  0.00    +0.000 A 
ATOM      7  N   UNL     1       2.069   2.099  17.938  0.00  0.00    +0.000 N 
ATOM      8  N   UNL     1       1.554   3.291  18.243  0.00  0.00    +0.000 NA
ATOM      9  C   UNL     1       2.620   4.080  18.483  0.00  0.00    +0.000 A 
ATOM     10  H   UNL     1       1.430   1.347  17.702  0.00  0.00    +0.000 HD
BRANCH   9  11
ATOM     11  C   UNL     1       2.403   5.470  18.909  0.00  0.00    +0.000 A 
ATOM     12  C   UNL     1       2.035   5.798  20.221  0.00  0.00    +0.000 A 
ATOM     13  C   UNL     1       1.764   7.123  20.583  0.00  0.00    +0.000 A 
ATOM     14  C   UNL     1       1.894   8.140  19.643  0.00  0.00    +0.000 A 
ATOM     15  C   UNL     1       2.303   7.827  18.353  0.00  0.00    +0.000 A 
ATOM     16  F   UNL     1       2.445   8.809  17.452  0.00  0.00    +0.000 F 
ATOM     17  C   UNL     1       2.558   6.511  17.981  0.00  0.00    +0.000 A 
ENDBRANCH   9  11
ENDBRANCH   3   5
BRANCH   1  18
ATOM     18  C   UNL     1       7.326   4.583  17.387  0.00  0.00    +0.000 C 
BRANCH  18  21
ATOM     19  C   UNL     1       8.106   8.098  18.222  0.00  0.00    +0.000 A 
ATOM     20  C   UNL     1       8.068   6.779  18.619  0.00  0.00    +0.000 A 
ATOM     21  C   UNL     1       7.462   6.074  17.547  0.00  0.00    +0.000 A 
ATOM     22  N   UNL     1       7.086   6.913  16.571  0.00  0.00    +0.000 NA
ATOM     23  N   UNL     1       7.471   8.130  17.012  0.00  0.00    +0.000 N 
ATOM     24  H   UNL     1       7.302   8.940  16.425  0.00  0.00    +0.000 HD
BRANCH  19  25
ATOM     25  C   UNL     1       8.717   9.302  18.832  0.00  0.00    +0.000 C 
BRANCH  25  27
ATOM     26  C   UNL     1       9.296  11.521  18.328  0.00  0.00    +0.000 C 
ATOM     27  O   UNL     1       8.602  10.359  17.884  0.00  0.00    +0.000 OA
ENDBRANCH  25  27
ENDBRANCH  19  25
ENDBRANCH  18  21
ENDBRANCH   1  18
TORSDOF 6
ENDMDL
MODEL 2
REMARK VINA RESULT:      -7.9      3.272      5.302
REMARK  Name = 
REMARK  8 active torsions:
REMARK  status: ('A' for Active; 'I' for Inactive)
REMARK    1  A    between atoms: C_1  and  O_2
REMARK    2  A    between atoms: O_2  and  C_3
REMARK    3  A    between atoms: C_3  and  C_4
REMARK    4  A    between atoms: C_6  and  C_7
REMARK    5  A    between atoms: C_7  and  N_8
REMARK    6  A    between atoms: N_8  and  C_9
REMARK    7  A    between atoms: C_10  and  C_12
REMARK    8  A    between atoms: C_16  and  C_17
REMARK                            x       y       z     vdW  Elec       q    Type
REMARK                         _______ _______ _______ _____ _____    ______ ____
ROOT
ATOM      1  N   UNL     1       6.097   5.581  17.481  0.00  0.00    +0.000 N 
ATOM      2  C   UNL     1       6.684   6.829  17.942  0.00  0.00    +0.000 C 
ATOM      3  C   UNL     1       4.729   5.304  17.422  0.00  0.00    +0.000 C 
ATOM      4  O   UNL     1       4.318   4.214  17.014  0.00  0.00    +0.000 OA
ENDROOT
BRANCH   3   5
ATOM      5  C   UNL     1       3.784   6.325  17.872  0.00  0.00    +0.000 A 
ATOM      6  C   UNL     1       3.705   7.634  17.426  0.00  0.00    +0.000 A 
ATOM      7  N   UNL     1       2.714   8.227  18.141  0.00  0.00    +0.000 N 
ATOM      8  N   UNL     1       2.057   7.386  18.939  0.00  0.00    +0.000 NA
ATOM      9  C   UNL     1       2.672   6.198  18.776  0.00  0.00    +0.000 A 
ATOM     10  H   UNL     1       2.422   9.199  18.123  0.00  0.00    +0.000 HD
BRANCH   9  11
ATOM     11  C   UNL     1       2.152   5.018  19.483  0.00  0.00    +0.000 A 
ATOM     12  C   UNL     1       2.373   4.813  20.852  0.00  0.00    +0.000 A 
ATOM     13  C   UNL     1       1.930   3.646  21.486  0.00  0.00    +0.000 A 
ATOM     14  C   UNL     1       1.228   2.687  20.763  0.00  0.00    +0.000 A 
ATOM     15  C   UNL     1       0.965   2.906  19.417  0.00  0.00    +0.000 A 
ATOM     16  F   UNL     1       0.273   1.991  18.725  0.00  0.00    +0.000 F 
ATOM     17  C   UNL     1       1.417   4.055  18.776  0.00  0.00    +0.000 A 
ENDBRANCH   9  11
ENDBRANCH   3   5
BRANCH   1  18
ATOM     18  C   UNL     1       7.033   4.571  16.982  0.00  0.00    +0.000 C 
BRANCH  18  21
ATOM     19  C   UNL     1       6.539   4.037  13.358  0.00  0.00    +0.000 A 
ATOM     20  C   UNL     1       6.363   3.579  14.645  0.00  0.00    +0.000 A 
ATOM     21  C   UNL     1       7.045   4.503  15.478  0.00  0.00    +0.000 A 
ATOM     22  N   UNL     1       7.664   5.443  14.747  0.00  0.00    +0.000 NA
ATOM     23  N   UNL     1       7.356   5.127  13.470  0.00  0.00    +0.000 N 
ATOM     24  H   UNL     1       7.707   5.716  12.722  0.00  0.00    +0.000 HD
BRANCH  19  25
ATOM     25  C   UNL     1       5.982   3.592  12.060  0.00  0.00    +0.000 C 
BRANCH  25  27
ATOM     26  C   UNL     1       3.944   2.993  11.057  0.00  0.00    +0.000 C 
ATOM     27  O   UNL     1       4.563   3.616  12.179  0.00  0.00    +0.000 OA
ENDBRANCH  25  27
ENDBRANCH  19  25
ENDBRANCH  18  21
ENDBRANCH   1  18
TORSDOF 6
ENDMDL
MODEL 3
REMARK VINA RESULT:      -7.7      2.808      4.063
REMARK  Name = 
REMARK  8 active torsions:
REMARK  status: ('A' for Active; 'I' for Inactive)
REMARK    1  A    between atoms: C_1  and  O_2
REMARK    2  A    between atoms: O_2  and  C_3
REMARK    3  A    between atoms: C_3  and  C_4
REMARK    4  A    between atoms: C_6  and  C_7
REMARK    5  A    between atoms: C_7  and  N_8
REMARK    6  A    between atoms: N_8  and  C_9
REMARK    7  A    between atoms: C_10  and  C_12
REMARK    8  A    between atoms: C_16  and  C_17
REMARK                            x       y       z     vdW  Elec       q    Type
REMARK                         _______ _______ _______ _____ _____    ______ ____
ROOT
ATOM      1  N   UNL     1       5.098   4.207  17.440  0.00  0.00    +0.000 N 
ATOM      2  C   UNL     1       4.225   4.347  16.285  0.00  0.00    +0.000 C 
ATOM      3  C   UNL     1       4.712   3.722  18.693  0.00  0.00    +0.000 C 
ATOM      4  O   UNL     1       5.523   3.637  19.619  0.00  0.00    +0.000 OA
ENDROOT
BRANCH   3   5
ATOM      5  C   UNL     1       3.318   3.332  18.896  0.00  0.00    +0.000 A 
ATOM      6  C   UNL     1       2.820   2.041  18.959  0.00  0.00    +0.000 A 
ATOM      7  N   UNL     1       1.476   2.151  19.121  0.00  0.00    +0.000 N 
ATOM      8  N   UNL     1       1.062   3.407  19.287  0.00  0.00    +0.000 NA
ATOM      9  C   UNL     1       2.176   4.158  19.183  0.00  0.00    +0.000 A 
ATOM     10  H   UNL     1       0.783   1.410  19.145  0.00  0.00    +0.000 HD
BRANCH   9  11
ATOM     11  C   UNL     1       2.081   5.613  19.376  0.00  0.00    +0.000 A 
ATOM     12  C   UNL     1       1.743   6.180  20.613  0.00  0.00    +0.000 A 
ATOM     13  C   UNL     1       1.589   7.564  20.753  0.00  0.00    +0.000 A 
ATOM     14  C   UNL     1       1.808   8.401  19.663  0.00  0.00    +0.000 A 
ATOM     15  C   UNL     1       2.189   7.849  18.447  0.00  0.00    +0.000 A 
ATOM     16  F   UNL     1       2.416   8.656  17.402  0.00  0.00    +0.000 F 
ATOM     17  C   UNL     1       2.327   6.473  18.296  0.00  0.00    +0.000 A 
ENDBRANCH   9  11
ENDBRANCH   3   5
BRANCH   1  18
ATOM     18  C   UNL     1       6.507   4.550  17.232  0.00  0.00    +0.000 C 
BRANCH  18  21
ATOM     19  C   UNL     1       6.901   4.288  13.566  0.00  0.00    +0.000 A 
ATOM     20  C   UNL     1       6.490   3.707  14.746  0.00  0.00    +0.000 A 
ATOM     21  C   UNL     1       6.864   4.614  15.771  0.00  0.00    +0.000 A 
ATOM     22  N   UNL     1       7.528   5.664  15.265  0.00  0.00    +0.000 NA
ATOM     23  N   UNL     1       7.551   5.433  13.934  0.00  0.00    +0.000 N 
ATOM     24  H   UNL     1       7.996   6.113  13.327  0.00  0.00    +0.000 HD
BRANCH  19  25
ATOM     25  C   UNL     1       6.701   3.908  12.149  0.00  0.00    +0.000 C 
BRANCH  25  27
ATOM     26  C   UNL     1       4.509   3.276  11.595  0.00  0.00    +0.000 C 
ATOM     27  O   UNL     1       5.757   2.842  12.127  0.00  0.00    +0.000 OA
ENDBRANCH  25  27
ENDBRANCH  19  25
ENDBRANCH  18  21
ENDBRANCH   1  18
TORSDOF 6
ENDMDL
MODEL 4
REMARK VINA RESULT:      -7.4      1.360      1.795
REMARK  Name = 
REMARK  8 active torsions:
REMARK  status: ('A' for Active; 'I' for Inactive)
REMARK    1  A    between atoms: C_1  and  O_2
REMARK    2  A    between atoms: O_2  and  C_3
REMARK    3  A    between atoms: C_3  and  C_4
REMARK    4  A    between atoms: C_6  and  C_7
REMARK    5  A    between atoms: C_7  and  N_8
REMARK    6  A    between atoms: N_8  and  C_9
REMARK    7  A    between atoms: C_10  and  C_12
REMARK    8  A    between atoms: C_16  and  C_17
REMARK                            x       y       z     vdW  Elec       q    Type
REMARK                         _______ _______ _______ _____ _____    ______ ____
ROOT
ATOM      1  N   UNL     1       5.811   4.336  18.082  0.00  0.00    +0.000 N 
ATOM      2  C   UNL     1       5.655   4.433  19.525  0.00  0.00    +0.000 C 
ATOM      3  C   UNL     1       4.859   3.821  17.198  0.00  0.00    +0.000 C 
ATOM      4  O   UNL     1       5.076   3.779  15.984  0.00  0.00    +0.000 OA
ENDROOT
BRANCH   3   5
ATOM      5  C   UNL     1       3.600   3.311  17.739  0.00  0.00    +0.000 A 
ATOM      6  C   UNL     1       3.231   1.982  17.867  0.00  0.00    +0.000 A 
ATOM      7  N   UNL     1       1.973   1.977  18.379  0.00  0.00    +0.000 N 
ATOM      8  N   UNL     1       1.527   3.189  18.708  0.00  0.00    +0.000 NA
ATOM      9  C   UNL     1       2.517   4.033  18.354  0.00  0.00    +0.000 A 
ATOM     10  H   UNL     1       1.367   1.181  18.546  0.00  0.00    +0.000 HD
BRANCH   9  11
ATOM     11  C   UNL     1       2.372   5.469  18.636  0.00  0.00    +0.000 A 
ATOM     12  C   UNL     1       2.604   6.446  17.658  0.00  0.00    +0.000 A 
ATOM     13  C   UNL     1       2.530   7.808  17.970  0.00  0.00    +0.000 A 
ATOM     14  C   UNL     1       2.184   8.208  19.257  0.00  0.00    +0.000 A 
ATOM     15  C   UNL     1       1.906   7.244  20.217  0.00  0.00    +0.000 A 
ATOM     16  F   UNL     1       1.556   7.629  21.453  0.00  0.00    +0.000 F 
ATOM     17  C   UNL     1       1.995   5.889  19.920  0.00  0.00    +0.000 A 
ENDBRANCH   9  11
ENDBRANCH   3   5
BRANCH   1  18
ATOM     18  C   UNL     1       7.048   4.889  17.526  0.00  0.00    +0.000 C 
BRANCH  18  21
ATOM     19  C   UNL     1       7.722   8.512  17.806  0.00  0.00    +0.000 A 
ATOM     20  C   UNL     1       8.044   7.227  18.183  0.00  0.00    +0.000 A 
ATOM     21  C   UNL     1       7.069   6.394  17.578  0.00  0.00    +0.000 A 
ATOM     22  N   UNL     1       6.156   7.123  16.918  0.00  0.00    +0.000 NA
ATOM     23  N   UNL     1       6.565   8.399  17.088  0.00  0.00    +0.000 N 
ATOM     24  H   UNL     1       6.028   9.146  16.658  0.00  0.00    +0.000 HD
BRANCH  19  25
ATOM     25  C   UNL     1       8.410   9.809  18.006  0.00  0.00    +0.000 C 
BRANCH  25  27
ATOM     26  C   UNL     1       9.943  10.862  19.439  0.00  0.00    +0.000 C 
ATOM     27  O   UNL     1       9.087   9.738  19.257  0.00  0.00    +0.000 OA
ENDBRANCH  25  27
ENDBRANCH  19  25
ENDBRANCH  18  21
ENDBRANCH   1  18
TORSDOF 6
ENDMDL
MODEL 5
REMARK VINA RESULT:      -7.3      3.364      5.441
REMARK  Name = 
REMARK  8 active torsions:
REMARK  status: ('A' for Active; 'I' for Inactive)
REMARK    1  A    between atoms: C_1  and  O_2
REMARK    2  A    between atoms: O_2  and  C_3
REMARK    3  A    between atoms: C_3  and  C_4
REMARK    4  A    between atoms: C_6  and  C_7
REMARK    5  A    between atoms: C_7  and  N_8
REMARK    6  A    between atoms: N_8  and  C_9
REMARK    7  A    between atoms: C_10  and  C_12
REMARK    8  A    between atoms: C_16  and  C_17
REMARK                            x       y       z     vdW  Elec       q    Type
REMARK                         _______ _______ _______ _____ _____    ______ ____
ROOT
ATOM      1  N   UNL     1       6.134   6.006  17.307  0.00  0.00    +0.000 N 
ATOM      2  C   UNL     1       6.519   7.408  17.363  0.00  0.00    +0.000 C 
ATOM      3  C   UNL     1       4.853   5.508  17.558  0.00  0.00    +0.000 C 
ATOM      4  O   UNL     1       4.615   4.299  17.486  0.00  0.00    +0.000 OA
ENDROOT
BRANCH   3   5
ATOM      5  C   UNL     1       3.794   6.446  17.928  0.00  0.00    +0.000 A 
ATOM      6  C   UNL     1       3.653   7.752  17.488  0.00  0.00    +0.000 A 
ATOM      7  N   UNL     1       2.558   8.255  18.113  0.00  0.00    +0.000 N 
ATOM      8  N   UNL     1       1.898   7.353  18.840  0.00  0.00    +0.000 NA
ATOM      9  C   UNL     1       2.617   6.219  18.724  0.00  0.00    +0.000 A 
ATOM     10  H   UNL     1       2.193   9.202  18.076  0.00  0.00    +0.000 HD
BRANCH   9  11
ATOM     11  C   UNL     1       2.129   4.991  19.369  0.00  0.00    +0.000 A 
ATOM     12  C   UNL     1       1.385   4.029  18.671  0.00  0.00    +0.000 A 
ATOM     13  C   UNL     1       0.871   2.903  19.326  0.00  0.00    +0.000 A 
ATOM     14  C   UNL     1       1.127   2.710  20.680  0.00  0.00    +0.000 A 
ATOM     15  C   UNL     1       1.902   3.636  21.365  0.00  0.00    +0.000 A 
ATOM     16  F   UNL     1       2.163   3.440  22.665  0.00  0.00    +0.000 F 
ATOM     17  C   UNL     1       2.403   4.765  20.726  0.00  0.00    +0.000 A 
ENDBRANCH   9  11
ENDBRANCH   3   5
BRANCH   1  18
ATOM     18  C   UNL     1       7.176   5.065  16.890  0.00  0.00    +0.000 C 
BRANCH  18  21
ATOM     19  C   UNL     1       6.473   4.045  13.408  0.00  0.00    +0.000 A 
ATOM     20  C   UNL     1       6.310   3.807  14.754  0.00  0.00    +0.000 A 
ATOM     21  C   UNL     1       7.115   4.770  15.414  0.00  0.00    +0.000 A 
ATOM     22  N   UNL     1       7.791   5.520  14.530  0.00  0.00    +0.000 NA
ATOM     23  N   UNL     1       7.397   5.048  13.327  0.00  0.00    +0.000 N 
ATOM     24  H   UNL     1       7.771   5.478  12.487  0.00  0.00    +0.000 HD
BRANCH  19  25
ATOM     25  C   UNL     1       5.818   3.469  12.210  0.00  0.00    +0.000 C 
BRANCH  25  27
ATOM     26  C   UNL     1       6.068   1.315  11.309  0.00  0.00    +0.000 C 
ATOM     27  O   UNL     1       6.728   2.533  11.641  0.00  0.00    +0.000 OA
ENDBRANCH  25  27
ENDBRANCH  19  25
ENDBRANCH  18  21
ENDBRANCH   1  18
TORSDOF 6
ENDMDL
MODEL 6
REMARK VINA RESULT:      -7.3      1.023      1.051
REMARK  Name = 
REMARK  8 active torsions:
REMARK  status: ('A' for Active; 'I' for Inactive)
REMARK    1  A    between atoms: C_1  and  O_2
REMARK    2  A    between atoms: O_2  and  C_3
REMARK    3  A    between atoms: C_3  and  C_4
REMARK    4  A    between atoms: C_6  and  C_7
REMARK    5  A    between atoms: C_7  and  N_8
REMARK    6  A    between atoms: N_8  and  C_9
REMARK    7  A    between atoms: C_10  and  C_12
REMARK    8  A    between atoms: C_16  and  C_17
REMARK                            x       y       z     vdW  Elec       q    Type
REMARK                         _______ _______ _______ _____ _____    ______ ____
ROOT
ATOM      1  N   UNL     1       5.368   4.232  17.797  0.00  0.00    +0.000 N 
ATOM      2  C   UNL     1       4.411   3.933  16.743  0.00  0.00    +0.000 C 
ATOM      3  C   UNL     1       5.121   4.126  19.168  0.00  0.00    +0.000 C 
ATOM      4  O   UNL     1       5.996   4.400  19.995  0.00  0.00    +0.000 OA
ENDROOT
BRANCH   3   5
ATOM      5  C   UNL     1       3.795   3.702  19.613  0.00  0.00    +0.000 A 
ATOM      6  C   UNL     1       3.433   2.439  20.052  0.00  0.00    +0.000 A 
ATOM      7  N   UNL     1       2.104   2.490  20.325  0.00  0.00    +0.000 N 
ATOM      8  N   UNL     1       1.584   3.712  20.213  0.00  0.00    +0.000 NA
ATOM      9  C   UNL     1       2.606   4.490  19.804  0.00  0.00    +0.000 A 
ATOM     10  H   UNL     1       1.491   1.732  20.609  0.00  0.00    +0.000 HD
BRANCH   9  11
ATOM     11  C   UNL     1       2.386   5.934  19.633  0.00  0.00    +0.000 A 
ATOM     12  C   UNL     1       1.814   6.724  20.640  0.00  0.00    +0.000 A 
ATOM     13  C   UNL     1       1.548   8.081  20.427  0.00  0.00    +0.000 A 
ATOM     14  C   UNL     1       1.887   8.672  19.213  0.00  0.00    +0.000 A 
ATOM     15  C   UNL     1       2.497   7.906  18.229  0.00  0.00    +0.000 A 
ATOM     16  F   UNL     1       2.839   8.479  17.068  0.00  0.00    +0.000 F 
ATOM     17  C   UNL     1       2.748   6.552  18.427  0.00  0.00    +0.000 A 
ENDBRANCH   9  11
ENDBRANCH   3   5
BRANCH   1  18
ATOM     18  C   UNL     1       6.715   4.611  17.361  0.00  0.00    +0.000 C 
BRANCH  18  21
ATOM     19  C   UNL     1       7.871   8.054  18.044  0.00  0.00    +0.000 A 
ATOM     20  C   UNL     1       7.873   6.724  18.402  0.00  0.00    +0.000 A 
ATOM     21  C   UNL     1       6.966   6.087  17.517  0.00  0.00    +0.000 A 
ATOM     22  N   UNL     1       6.385   6.979  16.700  0.00  0.00    +0.000 NA
ATOM     23  N   UNL     1       6.937   8.160  17.052  0.00  0.00    +0.000 N 
ATOM     24  H   UNL     1       6.659   8.999  16.553  0.00  0.00    +0.000 HD
BRANCH  19  25
ATOM     25  C   UNL     1       8.685   9.206  18.497  0.00  0.00    +0.000 C 
BRANCH  25  27
ATOM     26  C   UNL     1       9.030  11.492  18.086  0.00  0.00    +0.000 C 
ATOM     27  O   UNL     1       8.333  10.318  17.679  0.00  0.00    +0.000 OA
ENDBRANCH  25  27
ENDBRANCH  19  25
ENDBRANCH  18  21
ENDBRANCH   1  18
TORSDOF 6
ENDMDL
MODEL 7
REMARK VINA RESULT:      -7.3      1.693      2.212
REMARK  Name = 
REMARK  8 active torsions:
REMARK  status: ('A' for Active; 'I' for Inactive)
REMARK    1  A    between atoms: C_1  and  O_2
REMARK    2  A    between atoms: O_2  and  C_3
REMARK    3  A    between atoms: C_3  and  C_4
REMARK    4  A    between atoms: C_6  and  C_7
REMARK    5  A    between atoms: C_7  and  N_8
REMARK    6  A    between atoms: N_8  and  C_9
REMARK    7  A    between atoms: C_10  and  C_12
REMARK    8  A    between atoms: C_16  and  C_17
REMARK                            x       y       z     vdW  Elec       q    Type
REMARK                         _______ _______ _______ _____ _____    ______ ____
ROOT
ATOM      1  N   UNL     1       4.270   3.600  17.788  0.00  0.00    +0.000 N 
ATOM      2  C   UNL     1       5.053   3.645  19.013  0.00  0.00    +0.000 C 
ATOM      3  C   UNL     1       2.878   3.493  17.720  0.00  0.00    +0.000 C 
ATOM      4  O   UNL     1       2.295   3.462  16.633  0.00  0.00    +0.000 OA
ENDROOT
BRANCH   3   5
ATOM      5  C   UNL     1       2.119   3.398  18.966  0.00  0.00    +0.000 A 
ATOM      6  C   UNL     1       1.797   2.239  19.653  0.00  0.00    +0.000 A 
ATOM      7  N   UNL     1       1.057   2.619  20.727  0.00  0.00    +0.000 N 
ATOM      8  N   UNL     1       0.965   3.941  20.869  0.00  0.00    +0.000 NA
ATOM      9  C   UNL     1       1.633   4.452  19.817  0.00  0.00    +0.000 A 
ATOM     10  H   UNL     1       0.600   2.029  21.415  0.00  0.00    +0.000 HD
BRANCH   9  11
ATOM     11  C   UNL     1       1.774   5.911  19.696  0.00  0.00    +0.000 A 
ATOM     12  C   UNL     1       1.422   6.782  20.737  0.00  0.00    +0.000 A 
ATOM     13  C   UNL     1       1.498   8.169  20.572  0.00  0.00    +0.000 A 
ATOM     14  C   UNL     1       1.963   8.701  19.373  0.00  0.00    +0.000 A 
ATOM     15  C   UNL     1       2.358   7.843  18.355  0.00  0.00    +0.000 A 
ATOM     16  F   UNL     1       2.822   8.355  17.207  0.00  0.00    +0.000 F 
ATOM     17  C   UNL     1       2.269   6.463  18.505  0.00  0.00    +0.000 A 
ENDBRANCH   9  11
ENDBRANCH   3   5
BRANCH   1  18
ATOM     18  C   UNL     1       5.017   3.743  16.536  0.00  0.00    +0.000 C 
BRANCH  18  21
ATOM     19  C   UNL     1       6.775   6.968  16.953  0.00  0.00    +0.000 A 
ATOM     20  C   UNL     1       5.586   6.273  16.948  0.00  0.00    +0.000 A 
ATOM     21  C   UNL     1       5.914   4.953  16.548  0.00  0.00    +0.000 A 
ATOM     22  N   UNL     1       7.220   4.849  16.256  0.00  0.00    +0.000 NA
ATOM     23  N   UNL     1       7.712   6.085  16.493  0.00  0.00    +0.000 N 
ATOM     24  H   UNL     1       8.703   6.252  16.354  0.00  0.00    +0.000 HD
BRANCH  19  25
ATOM     25  C   UNL     1       7.123   8.340  17.390  0.00  0.00    +0.000 C 
BRANCH  25  27
ATOM     26  C   UNL     1       8.738   9.531  18.609  0.00  0.00    +0.000 C 
ATOM     27  O   UNL     1       8.292   8.242  18.197  0.00  0.00    +0.000 OA
ENDBRANCH  25  27
ENDBRANCH  19  25
ENDBRANCH  18  21
ENDBRANCH   1  18
TORSDOF 6
ENDMDL
MODEL 8
REMARK VINA RESULT:      -7.2      2.965      4.293
REMARK  Name = 
REMARK  8 active torsions:
REMARK  status: ('A' for Active; 'I' for Inactive)
REMARK    1  A    between atoms: C_1  and  O_2
REMARK    2  A    between atoms: O_2  and  C_3
REMARK    3  A    between atoms: C_3  and  C_4
REMARK    4  A    between atoms: C_6  and  C_7
REMARK    5  A    between atoms: C_7  and  N_8
REMARK    6  A    between atoms: N_8  and  C_9
REMARK    7  A    between atoms: C_10  and  C_12
REMARK    8  A    between atoms: C_16  and  C_17
REMARK                            x       y       z     vdW  Elec       q    Type
REMARK                         _______ _______ _______ _____ _____    ______ ____
ROOT
ATOM      1  N   UNL     1       5.093   4.177  17.543  0.00  0.00    +0.000 N 
ATOM      2  C   UNL     1       4.225   4.342  16.387  0.00  0.00    +0.000 C 
ATOM      3  C   UNL     1       4.698   3.679  18.787  0.00  0.00    +0.000 C 
ATOM      4  O   UNL     1       5.505   3.572  19.715  0.00  0.00    +0.000 OA
ENDROOT
BRANCH   3   5
ATOM      5  C   UNL     1       3.299   3.302  18.981  0.00  0.00    +0.000 A 
ATOM      6  C   UNL     1       2.798   2.018  19.118  0.00  0.00    +0.000 A 
ATOM      7  N   UNL     1       1.451   2.138  19.238  0.00  0.00    +0.000 N 
ATOM      8  N   UNL     1       1.033   3.402  19.309  0.00  0.00    +0.000 NA
ATOM      9  C   UNL     1       2.150   4.145  19.183  0.00  0.00    +0.000 A 
ATOM     10  H   UNL     1       0.757   1.400  19.294  0.00  0.00    +0.000 HD
BRANCH   9  11
ATOM     11  C   UNL     1       2.052   5.610  19.275  0.00  0.00    +0.000 A 
ATOM     12  C   UNL     1       2.269   6.442  18.168  0.00  0.00    +0.000 A 
ATOM     13  C   UNL     1       2.241   7.835  18.297  0.00  0.00    +0.000 A 
ATOM     14  C   UNL     1       1.958   8.412  19.532  0.00  0.00    +0.000 A 
ATOM     15  C   UNL     1       1.696   7.593  20.622  0.00  0.00    +0.000 A 
ATOM     16  F   UNL     1       1.406   8.148  21.806  0.00  0.00    +0.000 F 
ATOM     17  C   UNL     1       1.739   6.208  20.505  0.00  0.00    +0.000 A 
ENDBRANCH   9  11
ENDBRANCH   3   5
BRANCH   1  18
ATOM     18  C   UNL     1       6.506   4.506  17.343  0.00  0.00    +0.000 C 
BRANCH  18  21
ATOM     19  C   UNL     1       6.872   4.390  13.667  0.00  0.00    +0.000 A 
ATOM     20  C   UNL     1       6.431   3.781  14.821  0.00  0.00    +0.000 A 
ATOM     21  C   UNL     1       6.862   4.615  15.884  0.00  0.00    +0.000 A 
ATOM     22  N   UNL     1       7.587   5.646  15.423  0.00  0.00    +0.000 NA
ATOM     23  N   UNL     1       7.591   5.475  14.083  0.00  0.00    +0.000 N 
ATOM     24  H   UNL     1       8.075   6.154  13.505  0.00  0.00    +0.000 HD
BRANCH  19  25
ATOM     25  C   UNL     1       6.645   4.088  12.235  0.00  0.00    +0.000 C 
BRANCH  25  27
ATOM     26  C   UNL     1       5.511   2.178  11.473  0.00  0.00    +0.000 C 
ATOM     27  O   UNL     1       6.696   2.672  12.090  0.00  0.00    +0.000 OA
ENDBRANCH  25  27
ENDBRANCH  19  25
ENDBRANCH  18  21
ENDBRANCH   1  18
TORSDOF 6
ENDMDL
MODEL 9
REMARK VINA RESULT:      -7.2      3.405      5.567
REMARK  Name = 
REMARK  8 active torsions:
REMARK  status: ('A' for Active; 'I' for Inactive)
REMARK    1  A    between atoms: C_1  and  O_2
REMARK    2  A    between atoms: O_2  and  C_3
REMARK    3  A    between atoms: C_3  and  C_4
REMARK    4  A    between atoms: C_6  and  C_7
REMARK    5  A    between atoms: C_7  and  N_8
REMARK    6  A    between atoms: N_8  and  C_9
REMARK    7  A    between atoms: C_10  and  C_12
REMARK    8  A    between atoms: C_16  and  C_17
REMARK                            x       y       z     vdW  Elec       q    Type
REMARK                         _______ _______ _______ _____ _____    ______ ____
ROOT
ATOM      1  N   UNL     1       5.602   6.102  16.579  0.00  0.00    +0.000 N 
ATOM      2  C   UNL     1       5.038   6.832  15.455  0.00  0.00    +0.000 C 
ATOM      3  C   UNL     1       5.025   5.998  17.848  0.00  0.00    +0.000 C 
ATOM      4  O   UNL     1       5.575   5.354  18.746  0.00  0.00    +0.000 OA
ENDROOT
BRANCH   3   5
ATOM      5  C   UNL     1       3.759   6.684  18.103  0.00  0.00    +0.000 A 
ATOM      6  C   UNL     1       3.472   8.015  17.847  0.00  0.00    +0.000 A 
ATOM      7  N   UNL     1       2.200   8.225  18.272  0.00  0.00    +0.000 N 
ATOM      8  N   UNL     1       1.584   7.116  18.680  0.00  0.00    +0.000 NA
ATOM      9  C   UNL     1       2.507   6.141  18.561  0.00  0.00    +0.000 A 
ATOM     10  H   UNL     1       1.682   9.098  18.297  0.00  0.00    +0.000 HD
BRANCH   9  11
ATOM     11  C   UNL     1       2.134   4.755  18.881  0.00  0.00    +0.000 A 
ATOM     12  C   UNL     1       2.117   3.745  17.908  0.00  0.00    +0.000 A 
ATOM     13  C   UNL     1       1.689   2.451  18.222  0.00  0.00    +0.000 A 
ATOM     14  C   UNL     1       1.306   2.142  19.523  0.00  0.00    +0.000 A 
ATOM     15  C   UNL     1       1.365   3.126  20.502  0.00  0.00    +0.000 A 
ATOM     16  F   UNL     1       1.013   2.825  21.759  0.00  0.00    +0.000 F 
ATOM     17  C   UNL     1       1.774   4.419  20.194  0.00  0.00    +0.000 A 
ENDBRANCH   9  11
ENDBRANCH   3   5
BRANCH   1  18
ATOM     18  C   UNL     1       6.844   5.372  16.320  0.00  0.00    +0.000 C 
BRANCH  18  21
ATOM     19  C   UNL     1       6.386   3.796  13.008  0.00  0.00    +0.000 A 
ATOM     20  C   UNL     1       6.078   3.814  14.350  0.00  0.00    +0.000 A 
ATOM     21  C   UNL     1       6.897   4.824  14.918  0.00  0.00    +0.000 A 
ATOM     22  N   UNL     1       7.713   5.356  13.996  0.00  0.00    +0.000 NA
ATOM     23  N   UNL     1       7.395   4.705  12.856  0.00  0.00    +0.000 N 
ATOM     24  H   UNL     1       7.881   4.952  11.999  0.00  0.00    +0.000 HD
BRANCH  19  25
ATOM     25  C   UNL     1       5.800   3.061  11.863  0.00  0.00    +0.000 C 
BRANCH  25  27
ATOM     26  C   UNL     1       3.757   3.400  10.756  0.00  0.00    +0.000 C 
ATOM     27  O   UNL     1       4.384   3.121  12.005  0.00  0.00    +0.000 OA
ENDBRANCH  25  27
ENDBRANCH  19  25
ENDBRANCH  18  21
ENDBRANCH   1  18
TORSDOF 6
ENDMDL
