MODEL 1
REMARK VINA RESULT:      -7.2      0.000      0.000
REMARK  Name = 
REMARK  7 active torsions:
REMARK  status: ('A' for Active; 'I' for Inactive)
REMARK    1  A    between atoms: C_1  and  O_2
REMARK    2  A    between atoms: O_2  and  C_3
REMARK    3  A    between atoms: C_8  and  C_9
REMARK    4  A    between atoms: N_11  and  N_12
REMARK    5  A    between atoms: N_12  and  C_13
REMARK    6  A    between atoms: C_13  and  N_15
REMARK    7  A    between atoms: N_15  and  C_16
REMARK                            x       y       z     vdW  Elec       q    Type
REMARK                         _______ _______ _______ _____ _____    ______ ____
ROOT
ATOM      1  N   UNL     1       6.190   5.826  19.146  0.00  0.00    +0.000 N 
ATOM      2  H   UNL     1       6.528   5.839  20.109  0.00  0.00    +0.000 HD
ENDROOT
BRANCH   1   5
ATOM      3  C   UNL     1       4.619   4.043  19.323  0.00  0.00    +0.000 C 
ATOM      4  O   UNL     1       5.517   3.255  19.600  0.00  0.00    +0.000 OA
ATOM      5  N   UNL     1       4.890   5.350  18.963  0.00  0.00    +0.000 N 
ATOM      6  H   UNL     1       4.150   6.023  18.774  0.00  0.00    +0.000 HD
BRANCH   3  12
ATOM      7  C   UNL     1       2.157   4.243  20.090  0.00  0.00    +0.000 A 
ATOM      8  C   UNL     1       0.839   3.766  19.987  0.00  0.00    +0.000 A 
ATOM      9  C   UNL     1       0.541   2.631  19.235  0.00  0.00    +0.000 A 
ATOM     10  C   UNL     1       1.549   1.978  18.550  0.00  0.00    +0.000 A 
ATOM     11  C   UNL     1       2.853   2.468  18.603  0.00  0.00    +0.000 A 
ATOM     12  C   UNL     1       3.180   3.613  19.356  0.00  0.00    +0.000 A 
BRANCH   7  14
ATOM     13  C   UNL     1       1.820   6.541  20.489  0.00  0.00    +0.000 C 
ATOM     14  O   UNL     1       2.462   5.324  20.884  0.00  0.00    +0.000 OA
ENDBRANCH   7  14
ENDBRANCH   3  12
ENDBRANCH   1   5
BRANCH   1  15
ATOM     15  C   UNL     1       7.042   6.102  18.103  0.00  0.00    +0.000 C 
ATOM     16  S   UNL     1       7.547   7.631  17.658  0.00  0.00    +0.000 S 
BRANCH  15  17
ATOM     17  N   UNL     1       7.463   5.005  17.385  0.00  0.00    +0.000 N 
ATOM     18  H   UNL     1       7.956   4.296  17.918  0.00  0.00    +0.000 HD
BRANCH  17  19
ATOM     19  C   UNL     1       6.998   4.615  16.107  0.00  0.00    +0.000 A 
ATOM     20  C   UNL     1       5.831   3.856  16.018  0.00  0.00    +0.000 A 
ATOM     21  C   UNL     1       5.322   3.493  14.766  0.00  0.00    +0.000 A 
ATOM     22  C   UNL     1       5.947   3.942  13.594  0.00  0.00    +0.000 A 
ATOM     23 CL   UNL     1       5.229   3.511  12.082  0.00  0.00    +0.000 Cl
ATOM     24  C   UNL     1       7.097   4.722  13.682  0.00  0.00    +0.000 A 
ATOM     25 CL   UNL     1       7.894   5.365  12.288  0.00  0.00    +0.000 Cl
ATOM     26  C   UNL     1       7.630   5.043  14.935  0.00  0.00    +0.000 A 
ENDBRANCH  17  19
ENDBRANCH  15  17
ENDBRANCH   1  15
TORSDOF 6
ENDMDL
MODEL 2
REMARK VINA RESULT:      -7.2      4.052      6.755
REMARK  Name = 
REMARK  7 active torsions:
REMARK  status: ('A' for Active; 'I' for Inactive)
REMARK    1  A    between atoms: C_1  and  O_2
REMARK    2  A    between atoms: O_2  and  C_3
REMARK    3  A    between atoms: C_8  and  C_9
REMARK    4  A    between atoms: N_11  and  N_12
REMARK    5  A    between atoms: N_12  and  C_13
REMARK    6  A    between atoms: C_13  and  N_15
REMARK    7  A    between atoms: N_15  and  C_16
REMARK                            x       y       z     vdW  Elec       q    Type
REMARK                         _______ _______ _______ _____ _____    ______ ____
ROOT
ATOM      1  N   UNL     1       3.497   3.441  20.297  0.00  0.00    +0.000 N 
ATOM      2  H   UNL     1       3.755   2.689  20.936  0.00  0.00    +0.000 HD
ENDROOT
BRANCH   1   5
ATOM      3  C   UNL     1       4.425   3.385  18.103  0.00  0.00    +0.000 C 
ATOM      4  O   UNL     1       3.654   2.487  17.781  0.00  0.00    +0.000 OA
ATOM      5  N   UNL     1       4.489   3.850  19.403  0.00  0.00    +0.000 N 
ATOM      6  H   UNL     1       5.094   4.624  19.671  0.00  0.00    +0.000 HD
BRANCH   3  12
ATOM      7  C   UNL     1       6.626   4.522  17.360  0.00  0.00    +0.000 A 
ATOM      8  C   UNL     1       7.399   5.037  16.305  0.00  0.00    +0.000 A 
ATOM      9  C   UNL     1       6.884   5.128  15.013  0.00  0.00    +0.000 A 
ATOM     10  C   UNL     1       5.604   4.676  14.751  0.00  0.00    +0.000 A 
ATOM     11  C   UNL     1       4.843   4.117  15.778  0.00  0.00    +0.000 A 
ATOM     12  C   UNL     1       5.340   4.014  17.092  0.00  0.00    +0.000 A 
BRANCH   7  14
ATOM     13  C   UNL     1       7.687   5.726  19.086  0.00  0.00    +0.000 C 
ATOM     14  O   UNL     1       7.110   4.492  18.647  0.00  0.00    +0.000 OA
ENDBRANCH   7  14
ENDBRANCH   3  12
ENDBRANCH   1   5
BRANCH   1  15
ATOM     15  C   UNL     1       2.302   4.105  20.446  0.00  0.00    +0.000 C 
ATOM     16  S   UNL     1       0.809   3.504  19.999  0.00  0.00    +0.000 S 
BRANCH  15  17
ATOM     17  N   UNL     1       2.398   5.369  20.987  0.00  0.00    +0.000 N 
ATOM     18  H   UNL     1       2.902   5.431  21.865  0.00  0.00    +0.000 HD
BRANCH  17  19
ATOM     19  C   UNL     1       2.179   6.587  20.303  0.00  0.00    +0.000 A 
ATOM     20  C   UNL     1       2.605   6.703  18.980  0.00  0.00    +0.000 A 
ATOM     21  C   UNL     1       2.363   7.881  18.263  0.00  0.00    +0.000 A 
ATOM     22  C   UNL     1       1.637   8.927  18.851  0.00  0.00    +0.000 A 
ATOM     23 CL   UNL     1       1.319  10.327  17.889  0.00  0.00    +0.000 Cl
ATOM     24  C   UNL     1       1.189   8.801  20.163  0.00  0.00    +0.000 A 
ATOM     25 CL   UNL     1       0.238  10.019  20.941  0.00  0.00    +0.000 Cl
ATOM     26  C   UNL     1       1.474   7.642  20.892  0.00  0.00    +0.000 A 
ENDBRANCH  17  19
ENDBRANCH  15  17
ENDBRANCH   1  15
TORSDOF 6
ENDMDL
MODEL 3
REMARK VINA RESULT:      -6.8      3.457      5.160
REMARK  Name = 
REMARK  7 active torsions:
REMARK  status: ('A' for Active; 'I' for Inactive)
REMARK    1  A    between atoms: C_1  and  O_2
REMARK    2  A    between atoms: O_2  and  C_3
REMARK    3  A    between atoms: C_8  and  C_9
REMARK    4  A    between atoms: N_11  and  N_12
REMARK    5  A    between atoms: N_12  and  C_13
REMARK    6  A    between atoms: C_13  and  N_15
REMARK    7  A    between atoms: N_15  and  C_16
REMARK                            x       y       z     vdW  Elec       q    Type
REMARK                         _______ _______ _______ _____ _____    ______ ____
ROOT
ATOM      1  N   UNL     1       2.740   5.121  20.964  0.00  0.00    +0.000 N 
ATOM      2  H   UNL     1       3.446   5.024  21.696  0.00  0.00    +0.000 HD
ENDROOT
BRANCH   1   5
ATOM      3  C   UNL     1       2.371   7.168  19.800  0.00  0.00    +0.000 C 
ATOM      4  O   UNL     1       3.283   6.910  19.021  0.00  0.00    +0.000 OA
ATOM      5  N   UNL     1       2.104   6.362  20.892  0.00  0.00    +0.000 N 
ATOM      6  H   UNL     1       1.322   6.543  21.518  0.00  0.00    +0.000 HD
BRANCH   3  12
ATOM      7  C   UNL     1       0.908   9.133  20.629  0.00  0.00    +0.000 A 
ATOM      8  C   UNL     1       0.166  10.282  20.302  0.00  0.00    +0.000 A 
ATOM      9  C   UNL     1      -0.054  10.641  18.973  0.00  0.00    +0.000 A 
ATOM     10  C   UNL     1       0.490   9.879  17.957  0.00  0.00    +0.000 A 
ATOM     11  C   UNL     1       1.270   8.766  18.267  0.00  0.00    +0.000 A 
ATOM     12  C   UNL     1       1.507   8.381  19.601  0.00  0.00    +0.000 A 
BRANCH   7  14
ATOM     13  C   UNL     1       0.157   9.354  22.852  0.00  0.00    +0.000 C 
ATOM     14  O   UNL     1       1.072   8.742  21.937  0.00  0.00    +0.000 OA
ENDBRANCH   7  14
ENDBRANCH   3  12
ENDBRANCH   1   5
BRANCH   1  15
ATOM     15  C   UNL     1       2.344   4.030  20.227  0.00  0.00    +0.000 C 
ATOM     16  S   UNL     1       0.757   3.587  19.950  0.00  0.00    +0.000 S 
BRANCH  15  17
ATOM     17  N   UNL     1       3.369   3.261  19.722  0.00  0.00    +0.000 N 
ATOM     18  H   UNL     1       3.299   2.266  19.905  0.00  0.00    +0.000 HD
BRANCH  17  19
ATOM     19  C   UNL     1       4.287   3.649  18.719  0.00  0.00    +0.000 A 
ATOM     20  C   UNL     1       3.921   3.510  17.380  0.00  0.00    +0.000 A 
ATOM     21  C   UNL     1       4.792   3.927  16.366  0.00  0.00    +0.000 A 
ATOM     22  C   UNL     1       6.009   4.543  16.691  0.00  0.00    +0.000 A 
ATOM     23 CL   UNL     1       7.006   5.092  15.391  0.00  0.00    +0.000 Cl
ATOM     24  C   UNL     1       6.363   4.707  18.028  0.00  0.00    +0.000 A 
ATOM     25 CL   UNL     1       7.817   5.508  18.513  0.00  0.00    +0.000 Cl
ATOM     26  C   UNL     1       5.511   4.245  19.038  0.00  0.00    +0.000 A 
ENDBRANCH  17  19
ENDBRANCH  15  17
ENDBRANCH   1  15
TORSDOF 6
ENDMDL
MODEL 4
REMARK VINA RESULT:      -6.8      4.527      6.595
REMARK  Name = 
REMARK  7 active torsions:
REMARK  status: ('A' for Active; 'I' for Inactive)
REMARK    1  A    between atoms: C_1  and  O_2
REMARK    2  A    between atoms: O_2  and  C_3
REMARK    3  A    between atoms: C_8  and  C_9
REMARK    4  A    between atoms: N_11  and  N_12
REMARK    5  A    between atoms: N_12  and  C_13
REMARK    6  A    between atoms: C_13  and  N_15
REMARK    7  A    between atoms: N_15  and  C_16
REMARK                            x       y       z     vdW  Elec       q    Type
REMARK                         _______ _______ _______ _____ _____    ______ ____
ROOT
ATOM      1  N   UNL     1       1.691   7.399  21.150  0.00  0.00    +0.000 N 
ATOM      2  H   UNL     1       1.907   6.936  22.034  0.00  0.00    +0.000 HD
ENDROOT
BRANCH   1   5
ATOM      3  C   UNL     1       0.704   9.388  22.016  0.00  0.00    +0.000 C 
ATOM      4  O   UNL     1       1.587   9.479  22.863  0.00  0.00    +0.000 OA
ATOM      5  N   UNL     1       0.618   8.293  21.177  0.00  0.00    +0.000 N 
ATOM      6  H   UNL     1      -0.084   8.229  20.442  0.00  0.00    +0.000 HD
BRANCH   3  12
ATOM      7  C   UNL     1      -0.640  11.135  20.662  0.00  0.00    +0.000 A 
ATOM      8  C   UNL     1      -1.672  12.090  20.650  0.00  0.00    +0.000 A 
ATOM      9  C   UNL     1      -2.337  12.445  21.822  0.00  0.00    +0.000 A 
ATOM     10  C   UNL     1      -2.005  11.828  23.014  0.00  0.00    +0.000 A 
ATOM     11  C   UNL     1      -1.018  10.843  23.032  0.00  0.00    +0.000 A 
ATOM     12  C   UNL     1      -0.330  10.467  21.862  0.00  0.00    +0.000 A 
BRANCH   7  14
ATOM     13  C   UNL     1      -0.758  10.401  18.426  0.00  0.00    +0.000 C 
ATOM     14  O   UNL     1       0.061  10.831  19.519  0.00  0.00    +0.000 OA
ENDBRANCH   7  14
ENDBRANCH   3  12
ENDBRANCH   1   5
BRANCH   1  15
ATOM     15  C   UNL     1       2.322   7.019  19.990  0.00  0.00    +0.000 C 
ATOM     16  S   UNL     1       2.289   7.875  18.556  0.00  0.00    +0.000 S 
BRANCH  15  17
ATOM     17  N   UNL     1       2.999   5.821  20.057  0.00  0.00    +0.000 N 
ATOM     18  H   UNL     1       2.718   5.202  20.810  0.00  0.00    +0.000 HD
BRANCH  17  19
ATOM     19  C   UNL     1       3.769   5.238  19.023  0.00  0.00    +0.000 A 
ATOM     20  C   UNL     1       3.111   4.626  17.957  0.00  0.00    +0.000 A 
ATOM     21  C   UNL     1       3.846   4.079  16.898  0.00  0.00    +0.000 A 
ATOM     22  C   UNL     1       5.242   4.200  16.872  0.00  0.00    +0.000 A 
ATOM     23 CL   UNL     1       6.082   3.561  15.504  0.00  0.00    +0.000 Cl
ATOM     24  C   UNL     1       5.898   4.835  17.924  0.00  0.00    +0.000 A 
ATOM     25 CL   UNL     1       7.611   5.077  17.942  0.00  0.00    +0.000 Cl
ATOM     26  C   UNL     1       5.164   5.337  19.004  0.00  0.00    +0.000 A 
ENDBRANCH  17  19
ENDBRANCH  15  17
ENDBRANCH   1  15
TORSDOF 6
ENDMDL
MODEL 5
REMARK VINA RESULT:      -6.6      5.926      8.152
REMARK  Name = 
REMARK  7 active torsions:
REMARK  status: ('A' for Active; 'I' for Inactive)
REMARK    1  A    between atoms: C_1  and  O_2
REMARK    2  A    between atoms: O_2  and  C_3
REMARK    3  A    between atoms: C_8  and  C_9
REMARK    4  A    between atoms: N_11  and  N_12
REMARK    5  A    between atoms: N_12  and  C_13
REMARK    6  A    between atoms: C_13  and  N_15
REMARK    7  A    between atoms: N_15  and  C_16
REMARK                            x       y       z     vdW  Elec       q    Type
REMARK                         _______ _______ _______ _____ _____    ______ ____
ROOT
ATOM      1  N   UNL     1       2.033   8.208  20.913  0.00  0.00    +0.000 N 
ATOM      2  H   UNL     1       2.897   8.668  21.201  0.00  0.00    +0.000 HD
ENDROOT
BRANCH   1   5
ATOM      3  C   UNL     1       2.515   6.728  19.109  0.00  0.00    +0.000 C 
ATOM      4  O   UNL     1       2.507   7.663  18.315  0.00  0.00    +0.000 OA
ATOM      5  N   UNL     1       2.168   6.902  20.435  0.00  0.00    +0.000 N 
ATOM      6  H   UNL     1       2.214   6.141  21.111  0.00  0.00    +0.000 HD
BRANCH   3  12
ATOM      7  C   UNL     1       4.107   4.693  18.975  0.00  0.00    +0.000 A 
ATOM      8  C   UNL     1       4.312   3.373  18.537  0.00  0.00    +0.000 A 
ATOM      9  C   UNL     1       3.375   2.728  17.732  0.00  0.00    +0.000 A 
ATOM     10  C   UNL     1       2.207   3.379  17.382  0.00  0.00    +0.000 A 
ATOM     11  C   UNL     1       1.967   4.670  17.850  0.00  0.00    +0.000 A 
ATOM     12  C   UNL     1       2.898   5.344  18.664  0.00  0.00    +0.000 A 
BRANCH   7  14
ATOM     13  C   UNL     1       6.365   5.350  19.129  0.00  0.00    +0.000 C 
ATOM     14  O   UNL     1       5.059   5.353  19.716  0.00  0.00    +0.000 OA
ENDBRANCH   7  14
ENDBRANCH   3  12
ENDBRANCH   1   5
BRANCH   1  15
ATOM     15  C   UNL     1       0.854   8.912  20.848  0.00  0.00    +0.000 C 
ATOM     16  S   UNL     1      -0.489   8.622  21.799  0.00  0.00    +0.000 S 
BRANCH  15  17
ATOM     17  N   UNL     1       0.816   9.904  19.894  0.00  0.00    +0.000 N 
ATOM     18  H   UNL     1       1.705  10.125  19.458  0.00  0.00    +0.000 HD
BRANCH  17  19
ATOM     19  C   UNL     1      -0.340  10.386  19.236  0.00  0.00    +0.000 A 
ATOM     20  C   UNL     1      -0.700   9.826  18.010  0.00  0.00    +0.000 A 
ATOM     21  C   UNL     1      -1.863  10.251  17.357  0.00  0.00    +0.000 A 
ATOM     22  C   UNL     1      -2.705  11.196  17.960  0.00  0.00    +0.000 A 
ATOM     23 CL   UNL     1      -4.157  11.629  17.129  0.00  0.00    +0.000 Cl
ATOM     24  C   UNL     1      -2.359  11.736  19.197  0.00  0.00    +0.000 A 
ATOM     25 CL   UNL     1      -3.371  12.862  20.034  0.00  0.00    +0.000 Cl
ATOM     26  C   UNL     1      -1.172  11.344  19.824  0.00  0.00    +0.000 A 
ENDBRANCH  17  19
ENDBRANCH  15  17
ENDBRANCH   1  15
TORSDOF 6
ENDMDL
MODEL 6
REMARK VINA RESULT:      -6.6      1.667      1.823
REMARK  Name = 
REMARK  7 active torsions:
REMARK  status: ('A' for Active; 'I' for Inactive)
REMARK    1  A    between atoms: C_1  and  O_2
REMARK    2  A    between atoms: O_2  and  C_3
REMARK    3  A    between atoms: C_8  and  C_9
REMARK    4  A    between atoms: N_11  and  N_12
REMARK    5  A    between atoms: N_12  and  C_13
REMARK    6  A    between atoms: C_13  and  N_15
REMARK    7  A    between atoms: N_15  and  C_16
REMARK                            x       y       z     vdW  Elec       q    Type
REMARK                         _______ _______ _______ _____ _____    ______ ____
ROOT
ATOM      1  N   UNL     1       7.056   4.380  17.344  0.00  0.00    +0.000 N 
ATOM      2  H   UNL     1       7.823   3.782  17.654  0.00  0.00    +0.000 HD
ENDROOT
BRANCH   1   5
ATOM      3  C   UNL     1       5.123   3.930  18.663  0.00  0.00    +0.000 C 
ATOM      4  O   UNL     1       5.708   4.296  19.677  0.00  0.00    +0.000 OA
ATOM      5  N   UNL     1       5.776   3.832  17.448  0.00  0.00    +0.000 N 
ATOM      6  H   UNL     1       5.289   3.572  16.592  0.00  0.00    +0.000 HD
BRANCH   3  12
ATOM      7  C   UNL     1       2.615   4.343  18.182  0.00  0.00    +0.000 A 
ATOM      8  C   UNL     1       1.299   3.854  18.240  0.00  0.00    +0.000 A 
ATOM      9  C   UNL     1       1.007   2.649  18.877  0.00  0.00    +0.000 A 
ATOM     10  C   UNL     1       2.028   1.902  19.434  0.00  0.00    +0.000 A 
ATOM     11  C   UNL     1       3.345   2.351  19.340  0.00  0.00    +0.000 A 
ATOM     12  C   UNL     1       3.666   3.565  18.703  0.00  0.00    +0.000 A 
BRANCH   7  14
ATOM     13  C   UNL     1       2.622   6.684  18.457  0.00  0.00    +0.000 C 
ATOM     14  O   UNL     1       2.896   5.563  17.611  0.00  0.00    +0.000 OA
ENDBRANCH   7  14
ENDBRANCH   3  12
ENDBRANCH   1   5
BRANCH   1  15
ATOM     15  C   UNL     1       7.313   5.572  16.709  0.00  0.00    +0.000 C 
ATOM     16  S   UNL     1       7.283   7.073  17.442  0.00  0.00    +0.000 S 
BRANCH  15  17
ATOM     17  N   UNL     1       7.585   5.472  15.362  0.00  0.00    +0.000 N 
ATOM     18  H   UNL     1       8.536   5.699  15.091  0.00  0.00    +0.000 HD
BRANCH  17  19
ATOM     19  C   UNL     1       6.808   4.782  14.403  0.00  0.00    +0.000 A 
ATOM     20  C   UNL     1       5.423   4.939  14.419  0.00  0.00    +0.000 A 
ATOM     21  C   UNL     1       4.631   4.303  13.455  0.00  0.00    +0.000 A 
ATOM     22  C   UNL     1       5.232   3.555  12.432  0.00  0.00    +0.000 A 
ATOM     23 CL   UNL     1       4.201   2.851  11.237  0.00  0.00    +0.000 Cl
ATOM     24  C   UNL     1       6.618   3.419  12.401  0.00  0.00    +0.000 A 
ATOM     25 CL   UNL     1       7.439   2.564  11.142  0.00  0.00    +0.000 Cl
ATOM     26  C   UNL     1       7.401   4.017  13.394  0.00  0.00    +0.000 A 
ENDBRANCH  17  19
ENDBRANCH  15  17
ENDBRANCH   1  15
TORSDOF 6
ENDMDL
MODEL 7
REMARK VINA RESULT:      -6.6      4.079      7.103
REMARK  Name = 
REMARK  7 active torsions:
REMARK  status: ('A' for Active; 'I' for Inactive)
REMARK    1  A    between atoms: C_1  and  O_2
REMARK    2  A    between atoms: O_2  and  C_3
REMARK    3  A    between atoms: C_8  and  C_9
REMARK    4  A    between atoms: N_11  and  N_12
REMARK    5  A    between atoms: N_12  and  C_13
REMARK    6  A    between atoms: C_13  and  N_15
REMARK    7  A    between atoms: N_15  and  C_16
REMARK                            x       y       z     vdW  Elec       q    Type
REMARK                         _______ _______ _______ _____ _____    ______ ____
ROOT
ATOM      1  N   UNL     1       2.141   4.702  18.855  0.00  0.00    +0.000 N 
ATOM      2  H   UNL     1       1.367   4.270  18.348  0.00  0.00    +0.000 HD
ENDROOT
BRANCH   1   5
ATOM      3  C   UNL     1       4.166   3.991  17.820  0.00  0.00    +0.000 C 
ATOM      4  O   UNL     1       4.094   2.904  18.384  0.00  0.00    +0.000 OA
ATOM      5  N   UNL     1       3.272   5.008  18.095  0.00  0.00    +0.000 N 
ATOM      6  H   UNL     1       3.297   5.898  17.601  0.00  0.00    +0.000 HD
BRANCH   3  12
ATOM      7  C   UNL     1       6.602   4.478  17.100  0.00  0.00    +0.000 A 
ATOM      8  C   UNL     1       7.513   4.669  16.046  0.00  0.00    +0.000 A 
ATOM      9  C   UNL     1       7.080   4.730  14.723  0.00  0.00    +0.000 A 
ATOM     10  C   UNL     1       5.739   4.569  14.432  0.00  0.00    +0.000 A 
ATOM     11  C   UNL     1       4.830   4.329  15.462  0.00  0.00    +0.000 A 
ATOM     12  C   UNL     1       5.242   4.263  16.807  0.00  0.00    +0.000 A 
BRANCH   7  14
ATOM     13  C   UNL     1       7.237   5.788  18.953  0.00  0.00    +0.000 C 
ATOM     14  O   UNL     1       7.020   4.482  18.410  0.00  0.00    +0.000 OA
ENDBRANCH   7  14
ENDBRANCH   3  12
ENDBRANCH   1   5
BRANCH   1  15
ATOM     15  C   UNL     1       2.107   4.803  20.226  0.00  0.00    +0.000 C 
ATOM     16  S   UNL     1       1.687   3.568  21.268  0.00  0.00    +0.000 S 
BRANCH  15  17
ATOM     17  N   UNL     1       2.428   6.045  20.729  0.00  0.00    +0.000 N 
ATOM     18  H   UNL     1       3.369   6.137  21.098  0.00  0.00    +0.000 HD
BRANCH  17  19
ATOM     19  C   UNL     1       1.733   7.251  20.480  0.00  0.00    +0.000 A 
ATOM     20  C   UNL     1       0.830   7.718  21.435  0.00  0.00    +0.000 A 
ATOM     21  C   UNL     1       0.160   8.930  21.236  0.00  0.00    +0.000 A 
ATOM     22  C   UNL     1       0.439   9.714  20.107  0.00  0.00    +0.000 A 
ATOM     23 CL   UNL     1      -0.375  11.230  19.956  0.00  0.00    +0.000 Cl
ATOM     24  C   UNL     1       1.361   9.261  19.166  0.00  0.00    +0.000 A 
ATOM     25 CL   UNL     1       1.805  10.192  17.778  0.00  0.00    +0.000 Cl
ATOM     26  C   UNL     1       1.993   8.025  19.345  0.00  0.00    +0.000 A 
ENDBRANCH  17  19
ENDBRANCH  15  17
ENDBRANCH   1  15
TORSDOF 6
ENDMDL
MODEL 8
REMARK VINA RESULT:      -6.6      5.550      8.218
REMARK  Name = 
REMARK  7 active torsions:
REMARK  status: ('A' for Active; 'I' for Inactive)
REMARK    1  A    between atoms: C_1  and  O_2
REMARK    2  A    between atoms: O_2  and  C_3
REMARK    3  A    between atoms: C_8  and  C_9
REMARK    4  A    between atoms: N_11  and  N_12
REMARK    5  A    between atoms: N_12  and  C_13
REMARK    6  A    between atoms: C_13  and  N_15
REMARK    7  A    between atoms: N_15  and  C_16
REMARK                            x       y       z     vdW  Elec       q    Type
REMARK                         _______ _______ _______ _____ _____    ______ ____
ROOT
ATOM      1  N   UNL     1       7.428   8.429  17.692  0.00  0.00    +0.000 N 
ATOM      2  H   UNL     1       6.774   9.015  17.173  0.00  0.00    +0.000 HD
ENDROOT
BRANCH   1   5
ATOM      3  C   UNL     1       8.683  10.429  18.009  0.00  0.00    +0.000 C 
ATOM      4  O   UNL     1       7.850  11.073  17.380  0.00  0.00    +0.000 OA
ATOM      5  N   UNL     1       8.602   9.053  18.117  0.00  0.00    +0.000 N 
ATOM      6  H   UNL     1       9.264   8.515  18.674  0.00  0.00    +0.000 HD
BRANCH   3  12
ATOM      7  C   UNL     1       9.986  11.274  20.077  0.00  0.00    +0.000 A 
ATOM      8  C   UNL     1      11.145  11.892  20.580  0.00  0.00    +0.000 A 
ATOM      9  C   UNL     1      12.108  12.421  19.722  0.00  0.00    +0.000 A 
ATOM     10  C   UNL     1      11.942  12.312  18.354  0.00  0.00    +0.000 A 
ATOM     11  C   UNL     1      10.822  11.659  17.842  0.00  0.00    +0.000 A 
ATOM     12  C   UNL     1       9.835  11.115  18.687  0.00  0.00    +0.000 A 
BRANCH   7  14
ATOM     13  C   UNL     1       8.682  11.701  21.993  0.00  0.00    +0.000 C 
ATOM     14  O   UNL     1       9.006  10.809  20.922  0.00  0.00    +0.000 OA
ENDBRANCH   7  14
ENDBRANCH   3  12
ENDBRANCH   1   5
BRANCH   1  15
ATOM     15  C   UNL     1       7.216   7.074  17.802  0.00  0.00    +0.000 C 
ATOM     16  S   UNL     1       7.966   6.074  18.910  0.00  0.00    +0.000 S 
BRANCH  15  17
ATOM     17  N   UNL     1       6.330   6.544  16.890  0.00  0.00    +0.000 N 
ATOM     18  H   UNL     1       6.689   6.431  15.948  0.00  0.00    +0.000 HD
BRANCH  17  19
ATOM     19  C   UNL     1       5.138   5.847  17.193  0.00  0.00    +0.000 A 
ATOM     20  C   UNL     1       4.913   4.606  16.597  0.00  0.00    +0.000 A 
ATOM     21  C   UNL     1       3.763   3.873  16.912  0.00  0.00    +0.000 A 
ATOM     22  C   UNL     1       2.862   4.352  17.874  0.00  0.00    +0.000 A 
ATOM     23 CL   UNL     1       1.497   3.366  18.262  0.00  0.00    +0.000 Cl
ATOM     24  C   UNL     1       3.100   5.579  18.489  0.00  0.00    +0.000 A 
ATOM     25 CL   UNL     1       2.071   6.213  19.726  0.00  0.00    +0.000 Cl
ATOM     26  C   UNL     1       4.226   6.331  18.136  0.00  0.00    +0.000 A 
ENDBRANCH  17  19
ENDBRANCH  15  17
ENDBRANCH   1  15
TORSDOF 6
ENDMDL
MODEL 9
REMARK VINA RESULT:      -6.6      5.954      8.190
REMARK  Name = 
REMARK  7 active torsions:
REMARK  status: ('A' for Active; 'I' for Inactive)
REMARK    1  A    between atoms: C_1  and  O_2
REMARK    2  A    between atoms: O_2  and  C_3
REMARK    3  A    between atoms: C_8  and  C_9
REMARK    4  A    between atoms: N_11  and  N_12
REMARK    5  A    between atoms: N_12  and  C_13
REMARK    6  A    between atoms: C_13  and  N_15
REMARK    7  A    between atoms: N_15  and  C_16
REMARK                            x       y       z     vdW  Elec       q    Type
REMARK                         _______ _______ _______ _____ _____    ______ ____
ROOT
ATOM      1  N   UNL     1       1.987   8.318  21.221  0.00  0.00    +0.000 N 
ATOM      2  H   UNL     1       2.871   8.692  21.569  0.00  0.00    +0.000 HD
ENDROOT
BRANCH   1   5
ATOM      3  C   UNL     1       2.415   7.032  19.261  0.00  0.00    +0.000 C 
ATOM      4  O   UNL     1       2.470   8.052  18.582  0.00  0.00    +0.000 OA
ATOM      5  N   UNL     1       2.058   7.071  20.596  0.00  0.00    +0.000 N 
ATOM      6  H   UNL     1       2.053   6.236  21.178  0.00  0.00    +0.000 HD
BRANCH   3  12
ATOM      7  C   UNL     1       2.136   4.470  19.040  0.00  0.00    +0.000 A 
ATOM      8  C   UNL     1       2.485   3.292  18.356  0.00  0.00    +0.000 A 
ATOM      9  C   UNL     1       3.465   3.299  17.365  0.00  0.00    +0.000 A 
ATOM     10  C   UNL     1       4.085   4.485  17.022  0.00  0.00    +0.000 A 
ATOM     11  C   UNL     1       3.715   5.670  17.657  0.00  0.00    +0.000 A 
ATOM     12  C   UNL     1       2.728   5.690  18.662  0.00  0.00    +0.000 A 
BRANCH   7  14
ATOM     13  C   UNL     1       1.115   3.196  20.740  0.00  0.00    +0.000 C 
ATOM     14  O   UNL     1       1.216   4.453  20.062  0.00  0.00    +0.000 OA
ENDBRANCH   7  14
ENDBRANCH   3  12
ENDBRANCH   1   5
BRANCH   1  15
ATOM     15  C   UNL     1       0.850   9.090  21.228  0.00  0.00    +0.000 C 
ATOM     16  S   UNL     1      -0.468   8.846  22.225  0.00  0.00    +0.000 S 
BRANCH  15  17
ATOM     17  N   UNL     1       0.832  10.115  20.308  0.00  0.00    +0.000 N 
ATOM     18  H   UNL     1       1.741  10.423  19.980  0.00  0.00    +0.000 HD
BRANCH  17  19
ATOM     19  C   UNL     1      -0.283  10.531  19.544  0.00  0.00    +0.000 A 
ATOM     20  C   UNL     1      -0.505   9.940  18.301  0.00  0.00    +0.000 A 
ATOM     21  C   UNL     1      -1.625  10.300  17.541  0.00  0.00    +0.000 A 
ATOM     22  C   UNL     1      -2.562  11.209  18.053  0.00  0.00    +0.000 A 
ATOM     23 CL   UNL     1      -3.954  11.559  17.091  0.00  0.00    +0.000 Cl
ATOM     24  C   UNL     1      -2.353  11.780  19.306  0.00  0.00    +0.000 A 
ATOM     25 CL   UNL     1      -3.488  12.864  20.034  0.00  0.00    +0.000 Cl
ATOM     26  C   UNL     1      -1.208  11.454  20.042  0.00  0.00    +0.000 A 
ENDBRANCH  17  19
ENDBRANCH  15  17
ENDBRANCH   1  15
TORSDOF 6
ENDMDL
