MODEL 1
REMARK VINA RESULT:      -7.5      0.000      0.000
REMARK  Name = 
REMARK  5 active torsions:
REMARK  status: ('A' for Active; 'I' for Inactive)
REMARK    1  A    between atoms: C_1  and  C_2
REMARK    2  A    between atoms: C_2  and  C_3
REMARK    3  A    between atoms: C_2  and  C_4
REMARK    4  A    between atoms: C_4  and  C_5
REMARK    5  A    between atoms: C_5  and  N_6
REMARK                            x       y       z     vdW  Elec       q    Type
REMARK                         _______ _______ _______ _____ _____    ______ ____
ROOT
ATOM      1  N   UNL     1       2.780   5.919  19.594  0.00  0.00    +0.000 N 
ATOM      2  C   UNL     1       3.771   5.484  18.730  0.00  0.00    +0.000 A 
ATOM      3  C   UNL     1       3.976   6.481  17.782  0.00  0.00    +0.000 A 
ATOM      4  C   UNL     1       3.033   7.521  18.050  0.00  0.00    +0.000 A 
ATOM      5  C   UNL     1       2.748   8.755  17.425  0.00  0.00    +0.000 A 
ATOM      6  C   UNL     1       1.845   9.644  18.013  0.00  0.00    +0.000 A 
ATOM      7  C   UNL     1       1.240   9.324  19.223  0.00  0.00    +0.000 A 
ATOM      8  C   UNL     1       1.491   8.102  19.852  0.00  0.00    +0.000 A 
ATOM      9  C   UNL     1       2.374   7.195  19.235  0.00  0.00    +0.000 A 
ATOM     10  C   UNL     1       4.996   6.547  16.743  0.00  0.00    +0.000 C 
ATOM     11  O   UNL     1       4.825   7.134  15.675  0.00  0.00    +0.000 OA
ATOM     12  N   UNL     1       6.265   6.102  17.034  0.00  0.00    +0.000 N 
ATOM     13  C   UNL     1       6.610   4.806  17.576  0.00  0.00    +0.000 C 
ATOM     14  C   UNL     1       6.004   4.423  18.918  0.00  0.00    +0.000 C 
ATOM     15  C   UNL     1       4.500   4.186  18.826  0.00  0.00    +0.000 C 
ATOM     16  H   UNL     1       6.873   6.401  16.284  0.00  0.00    +0.000 HD
ENDROOT
BRANCH   1  17
ATOM     17  C   UNL     1       2.269   5.227  20.775  0.00  0.00    +0.000 C 
BRANCH  17  18
ATOM     18  C   UNL     1       1.023   4.372  20.503  0.00  0.00    +0.000 C 
BRANCH  18  20
ATOM     19  C   UNL     1       1.445   2.191  19.316  0.00  0.00    +0.000 C 
ATOM     20  C   UNL     1       1.268   2.861  20.685  0.00  0.00    +0.000 C 
ATOM     21  C   UNL     1       2.488   2.569  21.559  0.00  0.00    +0.000 C 
ENDBRANCH  18  20
ENDBRANCH  17  18
ENDBRANCH   1  17
TORSDOF 3
ENDMDL
MODEL 2
REMARK VINA RESULT:      -7.4      2.056      5.110
REMARK  Name = 
REMARK  5 active torsions:
REMARK  status: ('A' for Active; 'I' for Inactive)
REMARK    1  A    between atoms: C_1  and  C_2
REMARK    2  A    between atoms: C_2  and  C_3
REMARK    3  A    between atoms: C_2  and  C_4
REMARK    4  A    between atoms: C_4  and  C_5
REMARK    5  A    between atoms: C_5  and  N_6
REMARK                            x       y       z     vdW  Elec       q    Type
REMARK                         _______ _______ _______ _____ _____    ______ ____
ROOT
ATOM      1  N   UNL     1       2.917   6.266  18.522  0.00  0.00    +0.000 N 
ATOM      2  C   UNL     1       2.459   5.090  19.093  0.00  0.00    +0.000 A 
ATOM      3  C   UNL     1       3.062   4.030  18.423  0.00  0.00    +0.000 A 
ATOM      4  C   UNL     1       3.858   4.590  17.376  0.00  0.00    +0.000 A 
ATOM      5  C   UNL     1       4.669   4.023  16.367  0.00  0.00    +0.000 A 
ATOM      6  C   UNL     1       5.456   4.846  15.559  0.00  0.00    +0.000 A 
ATOM      7  C   UNL     1       5.457   6.222  15.757  0.00  0.00    +0.000 A 
ATOM      8  C   UNL     1       4.650   6.809  16.735  0.00  0.00    +0.000 A 
ATOM      9  C   UNL     1       3.832   5.976  17.522  0.00  0.00    +0.000 A 
ATOM     10  C   UNL     1       2.998   2.608  18.735  0.00  0.00    +0.000 C 
ATOM     11  O   UNL     1       3.096   1.731  17.876  0.00  0.00    +0.000 OA
ATOM     12  N   UNL     1       3.020   2.220  20.054  0.00  0.00    +0.000 N 
ATOM     13  C   UNL     1       2.139   2.696  21.097  0.00  0.00    +0.000 C 
ATOM     14  C   UNL     1       2.131   4.191  21.380  0.00  0.00    +0.000 C 
ATOM     15  C   UNL     1       1.509   4.991  20.239  0.00  0.00    +0.000 C 
ATOM     16  H   UNL     1       3.168   1.220  20.075  0.00  0.00    +0.000 HD
ENDROOT
BRANCH   1  17
ATOM     17  C   UNL     1       2.596   7.631  18.932  0.00  0.00    +0.000 C 
BRANCH  17  18
ATOM     18  C   UNL     1       1.725   8.394  17.924  0.00  0.00    +0.000 C 
BRANCH  18  20
ATOM     19  C   UNL     1      -0.330   9.850  17.865  0.00  0.00    +0.000 C 
ATOM     20  C   UNL     1       1.038   9.636  18.528  0.00  0.00    +0.000 C 
ATOM     21  C   UNL     1       0.861   9.527  20.043  0.00  0.00    +0.000 C 
ENDBRANCH  18  20
ENDBRANCH  17  18
ENDBRANCH   1  17
TORSDOF 3
ENDMDL
MODEL 3
REMARK VINA RESULT:      -7.3      2.211      4.675
REMARK  Name = 
REMARK  5 active torsions:
REMARK  status: ('A' for Active; 'I' for Inactive)
REMARK    1  A    between atoms: C_1  and  C_2
REMARK    2  A    between atoms: C_2  and  C_3
REMARK    3  A    between atoms: C_2  and  C_4
REMARK    4  A    between atoms: C_4  and  C_5
REMARK    5  A    between atoms: C_5  and  N_6
REMARK                            x       y       z     vdW  Elec       q    Type
REMARK                         _______ _______ _______ _____ _____    ______ ____
ROOT
ATOM      1  N   UNL     1       4.098   5.975  17.539  0.00  0.00    +0.000 N 
ATOM      2  C   UNL     1       3.975   4.807  18.273  0.00  0.00    +0.000 A 
ATOM      3  C   UNL     1       3.085   5.053  19.315  0.00  0.00    +0.000 A 
ATOM      4  C   UNL     1       2.713   6.431  19.237  0.00  0.00    +0.000 A 
ATOM      5  C   UNL     1       1.873   7.253  20.021  0.00  0.00    +0.000 A 
ATOM      6  C   UNL     1       1.585   8.555  19.607  0.00  0.00    +0.000 A 
ATOM      7  C   UNL     1       2.111   9.039  18.414  0.00  0.00    +0.000 A 
ATOM      8  C   UNL     1       2.958   8.252  17.630  0.00  0.00    +0.000 A 
ATOM      9  C   UNL     1       3.273   6.953  18.072  0.00  0.00    +0.000 A 
ATOM     10  C   UNL     1       2.537   4.108  20.279  0.00  0.00    +0.000 C 
ATOM     11  O   UNL     1       2.203   4.434  21.418  0.00  0.00    +0.000 OA
ATOM     12  N   UNL     1       2.201   2.846  19.848  0.00  0.00    +0.000 N 
ATOM     13  C   UNL     1       3.064   1.930  19.136  0.00  0.00    +0.000 C 
ATOM     14  C   UNL     1       3.634   2.397  17.805  0.00  0.00    +0.000 C 
ATOM     15  C   UNL     1       4.658   3.516  17.975  0.00  0.00    +0.000 C 
ATOM     16  H   UNL     1       1.664   2.405  20.584  0.00  0.00    +0.000 HD
ENDROOT
BRANCH   1  17
ATOM     17  C   UNL     1       4.885   6.177  16.324  0.00  0.00    +0.000 C 
BRANCH  17  18
ATOM     18  C   UNL     1       6.401   6.089  16.545  0.00  0.00    +0.000 C 
BRANCH  18  20
ATOM     19  C   UNL     1       7.651   5.826  18.716  0.00  0.00    +0.000 C 
ATOM     20  C   UNL     1       6.875   6.806  17.825  0.00  0.00    +0.000 C 
ATOM     21  C   UNL     1       7.749   8.024  17.523  0.00  0.00    +0.000 C 
ENDBRANCH  18  20
ENDBRANCH  17  18
ENDBRANCH   1  17
TORSDOF 3
ENDMDL
MODEL 4
REMARK VINA RESULT:      -7.2      2.208      4.679
REMARK  Name = 
REMARK  5 active torsions:
REMARK  status: ('A' for Active; 'I' for Inactive)
REMARK    1  A    between atoms: C_1  and  C_2
REMARK    2  A    between atoms: C_2  and  C_3
REMARK    3  A    between atoms: C_2  and  C_4
REMARK    4  A    between atoms: C_4  and  C_5
REMARK    5  A    between atoms: C_5  and  N_6
REMARK                            x       y       z     vdW  Elec       q    Type
REMARK                         _______ _______ _______ _____ _____    ______ ____
ROOT
ATOM      1  N   UNL     1       3.789   5.855  17.808  0.00  0.00    +0.000 N 
ATOM      2  C   UNL     1       3.669   4.637  18.454  0.00  0.00    +0.000 A 
ATOM      3  C   UNL     1       2.815   4.814  19.539  0.00  0.00    +0.000 A 
ATOM      4  C   UNL     1       2.464   6.200  19.579  0.00  0.00    +0.000 A 
ATOM      5  C   UNL     1       1.662   6.971  20.449  0.00  0.00    +0.000 A 
ATOM      6  C   UNL     1       1.384   8.305  20.144  0.00  0.00    +0.000 A 
ATOM      7  C   UNL     1       1.881   8.871  18.976  0.00  0.00    +0.000 A 
ATOM      8  C   UNL     1       2.692   8.135  18.108  0.00  0.00    +0.000 A 
ATOM      9  C   UNL     1       2.998   6.801  18.440  0.00  0.00    +0.000 A 
ATOM     10  C   UNL     1       2.280   3.806  20.445  0.00  0.00    +0.000 C 
ATOM     11  O   UNL     1       1.986   4.048  21.616  0.00  0.00    +0.000 OA
ATOM     12  N   UNL     1       1.910   2.585  19.930  0.00  0.00    +0.000 N 
ATOM     13  C   UNL     1       2.736   1.715  19.123  0.00  0.00    +0.000 C 
ATOM     14  C   UNL     1       3.274   2.274  17.814  0.00  0.00    +0.000 C 
ATOM     15  C   UNL     1       4.321   3.362  18.037  0.00  0.00    +0.000 C 
ATOM     16  H   UNL     1       1.388   2.098  20.646  0.00  0.00    +0.000 HD
ENDROOT
BRANCH   1  17
ATOM     17  C   UNL     1       4.543   6.139  16.589  0.00  0.00    +0.000 C 
BRANCH  17  18
ATOM     18  C   UNL     1       6.002   6.544  16.840  0.00  0.00    +0.000 C 
BRANCH  18  20
ATOM     19  C   UNL     1       7.559   4.669  17.476  0.00  0.00    +0.000 C 
ATOM     20  C   UNL     1       7.021   5.513  16.313  0.00  0.00    +0.000 C 
ATOM     21  C   UNL     1       6.424   4.594  15.247  0.00  0.00    +0.000 C 
ENDBRANCH  18  20
ENDBRANCH  17  18
ENDBRANCH   1  17
TORSDOF 3
ENDMDL
MODEL 5
REMARK VINA RESULT:      -7.1      1.109      1.695
REMARK  Name = 
REMARK  5 active torsions:
REMARK  status: ('A' for Active; 'I' for Inactive)
REMARK    1  A    between atoms: C_1  and  C_2
REMARK    2  A    between atoms: C_2  and  C_3
REMARK    3  A    between atoms: C_2  and  C_4
REMARK    4  A    between atoms: C_4  and  C_5
REMARK    5  A    between atoms: C_5  and  N_6
REMARK                            x       y       z     vdW  Elec       q    Type
REMARK                         _______ _______ _______ _____ _____    ______ ____
ROOT
ATOM      1  N   UNL     1       3.870   4.832  18.996  0.00  0.00    +0.000 N 
ATOM      2  C   UNL     1       4.679   4.844  17.872  0.00  0.00    +0.000 A 
ATOM      3  C   UNL     1       4.468   6.051  17.211  0.00  0.00    +0.000 A 
ATOM      4  C   UNL     1       3.453   6.755  17.931  0.00  0.00    +0.000 A 
ATOM      5  C   UNL     1       2.812   7.999  17.733  0.00  0.00    +0.000 A 
ATOM      6  C   UNL     1       1.942   8.498  18.705  0.00  0.00    +0.000 A 
ATOM      7  C   UNL     1       1.718   7.781  19.874  0.00  0.00    +0.000 A 
ATOM      8  C   UNL     1       2.324   6.540  20.085  0.00  0.00    +0.000 A 
ATOM      9  C   UNL     1       3.173   6.026  19.086  0.00  0.00    +0.000 A 
ATOM     10  C   UNL     1       5.174   6.585  16.053  0.00  0.00    +0.000 C 
ATOM     11  O   UNL     1       4.645   7.343  15.240  0.00  0.00    +0.000 OA
ATOM     12  N   UNL     1       6.532   6.391  15.962  0.00  0.00    +0.000 N 
ATOM     13  C   UNL     1       7.220   5.122  16.052  0.00  0.00    +0.000 C 
ATOM     14  C   UNL     1       7.039   4.315  17.328  0.00  0.00    +0.000 C 
ATOM     15  C   UNL     1       5.623   3.763  17.467  0.00  0.00    +0.000 C 
ATOM     16  H   UNL     1       6.876   6.985  15.219  0.00  0.00    +0.000 HD
ENDROOT
BRANCH   1  17
ATOM     17  C   UNL     1       3.793   3.791  20.019  0.00  0.00    +0.000 C 
BRANCH  17  18
ATOM     18  C   UNL     1       3.070   2.518  19.557  0.00  0.00    +0.000 C 
BRANCH  18  20
ATOM     19  C   UNL     1       1.613   2.889  21.577  0.00  0.00    +0.000 C 
ATOM     20  C   UNL     1       1.644   2.384  20.129  0.00  0.00    +0.000 C 
ATOM     21  C   UNL     1       0.609   3.144  19.299  0.00  0.00    +0.000 C 
ENDBRANCH  18  20
ENDBRANCH  17  18
ENDBRANCH   1  17
TORSDOF 3
ENDMDL
MODEL 6
REMARK VINA RESULT:      -7.0      2.089      4.816
REMARK  Name = 
REMARK  5 active torsions:
REMARK  status: ('A' for Active; 'I' for Inactive)
REMARK    1  A    between atoms: C_1  and  C_2
REMARK    2  A    between atoms: C_2  and  C_3
REMARK    3  A    between atoms: C_2  and  C_4
REMARK    4  A    between atoms: C_4  and  C_5
REMARK    5  A    between atoms: C_5  and  N_6
REMARK                            x       y       z     vdW  Elec       q    Type
REMARK                         _______ _______ _______ _____ _____    ______ ____
ROOT
ATOM      1  N   UNL     1       2.650   6.165  18.618  0.00  0.00    +0.000 N 
ATOM      2  C   UNL     1       2.364   4.940  19.196  0.00  0.00    +0.000 A 
ATOM      3  C   UNL     1       3.151   3.980  18.568  0.00  0.00    +0.000 A 
ATOM      4  C   UNL     1       3.887   4.644  17.538  0.00  0.00    +0.000 A 
ATOM      5  C   UNL     1       4.814   4.198  16.569  0.00  0.00    +0.000 A 
ATOM      6  C   UNL     1       5.489   5.125  15.771  0.00  0.00    +0.000 A 
ATOM      7  C   UNL     1       5.264   6.486  15.941  0.00  0.00    +0.000 A 
ATOM      8  C   UNL     1       4.340   6.950  16.879  0.00  0.00    +0.000 A 
ATOM      9  C   UNL     1       3.636   6.010  17.655  0.00  0.00    +0.000 A 
ATOM     10  C   UNL     1       3.303   2.570  18.907  0.00  0.00    +0.000 C 
ATOM     11  O   UNL     1       3.569   1.708  18.070  0.00  0.00    +0.000 OA
ATOM     12  N   UNL     1       3.338   2.210  20.234  0.00  0.00    +0.000 N 
ATOM     13  C   UNL     1       2.355   2.555  21.237  0.00  0.00    +0.000 C 
ATOM     14  C   UNL     1       2.099   4.034  21.488  0.00  0.00    +0.000 C 
ATOM     15  C   UNL     1       1.401   4.708  20.311  0.00  0.00    +0.000 C 
ATOM     16  H   UNL     1       3.642   1.247  20.280  0.00  0.00    +0.000 HD
ENDROOT
BRANCH   1  17
ATOM     17  C   UNL     1       2.103   7.468  18.988  0.00  0.00    +0.000 C 
BRANCH  17  18
ATOM     18  C   UNL     1       1.931   7.662  20.501  0.00  0.00    +0.000 C 
BRANCH  18  20
ATOM     19  C   UNL     1       0.727   9.681  19.597  0.00  0.00    +0.000 C 
ATOM     20  C   UNL     1       1.073   8.891  20.866  0.00  0.00    +0.000 C 
ATOM     21  C   UNL     1      -0.215   8.507  21.597  0.00  0.00    +0.000 C 
ENDBRANCH  18  20
ENDBRANCH  17  18
ENDBRANCH   1  17
TORSDOF 3
ENDMDL
MODEL 7
REMARK VINA RESULT:      -6.8      0.894      1.210
REMARK  Name = 
REMARK  5 active torsions:
REMARK  status: ('A' for Active; 'I' for Inactive)
REMARK    1  A    between atoms: C_1  and  C_2
REMARK    2  A    between atoms: C_2  and  C_3
REMARK    3  A    between atoms: C_2  and  C_4
REMARK    4  A    between atoms: C_4  and  C_5
REMARK    5  A    between atoms: C_5  and  N_6
REMARK                            x       y       z     vdW  Elec       q    Type
REMARK                         _______ _______ _______ _____ _____    ______ ____
ROOT
ATOM      1  N   UNL     1       3.554   5.401  19.396  0.00  0.00    +0.000 N 
ATOM      2  C   UNL     1       4.477   5.216  18.380  0.00  0.00    +0.000 A 
ATOM      3  C   UNL     1       4.376   6.298  17.512  0.00  0.00    +0.000 A 
ATOM      4  C   UNL     1       3.314   7.127  17.991  0.00  0.00    +0.000 A 
ATOM      5  C   UNL     1       2.738   8.330  17.525  0.00  0.00    +0.000 A 
ATOM      6  C   UNL     1       1.786   8.996  18.300  0.00  0.00    +0.000 A 
ATOM      7  C   UNL     1       1.417   8.485  19.539  0.00  0.00    +0.000 A 
ATOM      8  C   UNL     1       1.958   7.288  20.015  0.00  0.00    +0.000 A 
ATOM      9  C   UNL     1       2.890   6.604  19.212  0.00  0.00    +0.000 A 
ATOM     10  C   UNL     1       5.218   6.623  16.367  0.00  0.00    +0.000 C 
ATOM     11  O   UNL     1       4.803   7.244  15.388  0.00  0.00    +0.000 OA
ATOM     12  N   UNL     1       6.571   6.397  16.458  0.00  0.00    +0.000 N 
ATOM     13  C   UNL     1       7.205   5.151  16.829  0.00  0.00    +0.000 C 
ATOM     14  C   UNL     1       6.863   4.570  18.192  0.00  0.00    +0.000 C 
ATOM     15  C   UNL     1       5.423   4.069  18.263  0.00  0.00    +0.000 C 
ATOM     16  H   UNL     1       7.010   6.855  15.670  0.00  0.00    +0.000 HD
ENDROOT
BRANCH   1  17
ATOM     17  C   UNL     1       3.336   4.545  20.560  0.00  0.00    +0.000 C 
BRANCH  17  18
ATOM     18  C   UNL     1       2.069   3.684  20.469  0.00  0.00    +0.000 C 
BRANCH  18  20
ATOM     19  C   UNL     1       2.829   1.784  19.001  0.00  0.00    +0.000 C 
ATOM     20  C   UNL     1       1.893   2.997  19.100  0.00  0.00    +0.000 C 
ATOM     21  C   UNL     1       0.451   2.553  18.851  0.00  0.00    +0.000 C 
ENDBRANCH  18  20
ENDBRANCH  17  18
ENDBRANCH   1  17
TORSDOF 3
ENDMDL
MODEL 8
REMARK VINA RESULT:      -6.8      2.136      4.637
REMARK  Name = 
REMARK  5 active torsions:
REMARK  status: ('A' for Active; 'I' for Inactive)
REMARK    1  A    between atoms: C_1  and  C_2
REMARK    2  A    between atoms: C_2  and  C_3
REMARK    3  A    between atoms: C_2  and  C_4
REMARK    4  A    between atoms: C_4  and  C_5
REMARK    5  A    between atoms: C_5  and  N_6
REMARK                            x       y       z     vdW  Elec       q    Type
REMARK                         _______ _______ _______ _____ _____    ______ ____
ROOT
ATOM      1  N   UNL     1       4.114   5.511  17.544  0.00  0.00    +0.000 N 
ATOM      2  C   UNL     1       3.652   4.416  18.255  0.00  0.00    +0.000 A 
ATOM      3  C   UNL     1       2.654   4.860  19.116  0.00  0.00    +0.000 A 
ATOM      4  C   UNL     1       2.559   6.278  18.959  0.00  0.00    +0.000 A 
ATOM      5  C   UNL     1       1.759   7.269  19.571  0.00  0.00    +0.000 A 
ATOM      6  C   UNL     1       1.791   8.583  19.098  0.00  0.00    +0.000 A 
ATOM      7  C   UNL     1       2.597   8.914  18.015  0.00  0.00    +0.000 A 
ATOM      8  C   UNL     1       3.411   7.957  17.405  0.00  0.00    +0.000 A 
ATOM      9  C   UNL     1       3.401   6.642  17.909  0.00  0.00    +0.000 A 
ATOM     10  C   UNL     1       1.781   4.070  19.975  0.00  0.00    +0.000 C 
ATOM     11  O   UNL     1       1.317   4.499  21.032  0.00  0.00    +0.000 OA
ATOM     12  N   UNL     1       1.301   2.870  19.503  0.00  0.00    +0.000 N 
ATOM     13  C   UNL     1       2.094   1.786  18.967  0.00  0.00    +0.000 C 
ATOM     14  C   UNL     1       2.965   2.087  17.756  0.00  0.00    +0.000 C 
ATOM     15  C   UNL     1       4.130   3.012  18.098  0.00  0.00    +0.000 C 
ATOM     16  H   UNL     1       0.572   2.564  20.134  0.00  0.00    +0.000 HD
ENDROOT
BRANCH   1  17
ATOM     17  C   UNL     1       5.125   5.518  16.489  0.00  0.00    +0.000 C 
BRANCH  17  18
ATOM     18  C   UNL     1       6.453   4.865  16.897  0.00  0.00    +0.000 C 
BRANCH  18  20
ATOM     19  C   UNL     1       7.118   7.255  17.333  0.00  0.00    +0.000 C 
ATOM     20  C   UNL     1       7.360   5.792  17.731  0.00  0.00    +0.000 C 
ATOM     21  C   UNL     1       7.137   5.628  19.235  0.00  0.00    +0.000 C 
ENDBRANCH  18  20
ENDBRANCH  17  18
ENDBRANCH   1  17
TORSDOF 3
ENDMDL
MODEL 9
REMARK VINA RESULT:      -6.7      2.343      4.813
REMARK  Name = 
REMARK  5 active torsions:
REMARK  status: ('A' for Active; 'I' for Inactive)
REMARK    1  A    between atoms: C_1  and  C_2
REMARK    2  A    between atoms: C_2  and  C_3
REMARK    3  A    between atoms: C_2  and  C_4
REMARK    4  A    between atoms: C_4  and  C_5
REMARK    5  A    between atoms: C_5  and  N_6
REMARK                            x       y       z     vdW  Elec       q    Type
REMARK                         _______ _______ _______ _____ _____    ______ ____
ROOT
ATOM      1  N   UNL     1       3.783   5.733  17.958  0.00  0.00    +0.000 N 
ATOM      2  C   UNL     1       3.644   4.491  18.554  0.00  0.00    +0.000 A 
ATOM      3  C   UNL     1       2.764   4.629  19.623  0.00  0.00    +0.000 A 
ATOM      4  C   UNL     1       2.413   6.013  19.705  0.00  0.00    +0.000 A 
ATOM      5  C   UNL     1       1.590   6.753  20.583  0.00  0.00    +0.000 A 
ATOM      6  C   UNL     1       1.321   8.098  20.322  0.00  0.00    +0.000 A 
ATOM      7  C   UNL     1       1.849   8.707  19.189  0.00  0.00    +0.000 A 
ATOM      8  C   UNL     1       2.681   8.002  18.315  0.00  0.00    +0.000 A 
ATOM      9  C   UNL     1       2.977   6.656  18.604  0.00  0.00    +0.000 A 
ATOM     10  C   UNL     1       2.204   3.589  20.476  0.00  0.00    +0.000 C 
ATOM     11  O   UNL     1       1.880   3.788  21.647  0.00  0.00    +0.000 OA
ATOM     12  N   UNL     1       1.846   2.390  19.906  0.00  0.00    +0.000 N 
ATOM     13  C   UNL     1       2.692   1.549  19.088  0.00  0.00    +0.000 C 
ATOM     14  C   UNL     1       3.264   2.155  17.816  0.00  0.00    +0.000 C 
ATOM     15  C   UNL     1       4.306   3.232  18.107  0.00  0.00    +0.000 C 
ATOM     16  H   UNL     1       1.305   1.877  20.589  0.00  0.00    +0.000 HD
ENDROOT
BRANCH   1  17
ATOM     17  C   UNL     1       4.568   6.060  16.770  0.00  0.00    +0.000 C 
BRANCH  17  18
ATOM     18  C   UNL     1       5.557   7.215  16.977  0.00  0.00    +0.000 C 
BRANCH  18  20
ATOM     19  C   UNL     1       7.888   7.870  17.672  0.00  0.00    +0.000 C 
ATOM     20  C   UNL     1       7.026   6.753  17.068  0.00  0.00    +0.000 C 
ATOM     21  C   UNL     1       7.186   5.478  17.895  0.00  0.00    +0.000 C 
ENDBRANCH  18  20
ENDBRANCH  17  18
ENDBRANCH   1  17
TORSDOF 3
ENDMDL
