MODEL 1
REMARK VINA RESULT:      -6.8      0.000      0.000
REMARK  Name = 
REMARK  6 active torsions:
REMARK  status: ('A' for Active; 'I' for Inactive)
REMARK    1  A    between atoms: C_1  and  O_2
REMARK    2  A    between atoms: O_2  and  C_3
REMARK    3  A    between atoms: C_6  and  N_7
REMARK    4  A    between atoms: N_7  and  C_8
REMARK    5  A    between atoms: C_20  and  O_21
REMARK    6  A    between atoms: O_21  and  C_22
REMARK                            x       y       z     vdW  Elec       q    Type
REMARK                         _______ _______ _______ _____ _____    ______ ____
ROOT
ATOM      1  N   UNL     1       5.386   3.257  18.754  0.00  0.00    +0.000 N 
ATOM      2  H   UNL     1       5.309   2.858  17.804  0.00  0.00    +0.000 HD
ENDROOT
BRANCH   1   3
ATOM      3  C   UNL     1       3.947   3.171  19.190  0.00  0.00    +0.000 A 
ATOM      4  C   UNL     1       3.213   2.693  18.110  0.00  0.00    +0.000 A 
ATOM      5  C   UNL     1       2.885   3.682  17.200  0.00  0.00    +0.000 A 
ATOM      6  N   UNL     1       2.905   4.996  17.533  0.00  0.00    +0.000 NA
ATOM      7  C   UNL     1       2.886   5.247  18.849  0.00  0.00    +0.000 A 
ATOM      8  C   UNL     1       2.191   6.345  19.314  0.00  0.00    +0.000 A 
ATOM      9  C   UNL     1       1.590   6.306  20.574  0.00  0.00    +0.000 A 
ATOM     10 CL   UNL     1       0.555   7.590  21.056  0.00  0.00    +0.000 Cl
ATOM     11  C   UNL     1       1.718   5.177  21.376  0.00  0.00    +0.000 A 
ATOM     12  C   UNL     1       2.590   4.158  20.982  0.00  0.00    +0.000 A 
ATOM     13  C   UNL     1       3.278   4.247  19.751  0.00  0.00    +0.000 A 
ENDBRANCH   1   3
BRANCH   1  17
ATOM     14  C   UNL     1       7.550   6.685  17.403  0.00  0.00    +0.000 A 
ATOM     15  C   UNL     1       7.432   6.426  18.792  0.00  0.00    +0.000 A 
ATOM     16  C   UNL     1       6.834   5.233  19.270  0.00  0.00    +0.000 A 
ATOM     17  C   UNL     1       6.322   4.294  18.408  0.00  0.00    +0.000 A 
ATOM     18  C   UNL     1       6.432   4.578  17.017  0.00  0.00    +0.000 A 
ATOM     19  C   UNL     1       7.025   5.748  16.501  0.00  0.00    +0.000 A 
BRANCH  14  21
ATOM     20  C   UNL     1       8.097   8.984  17.743  0.00  0.00    +0.000 C 
ATOM     21  O   UNL     1       8.078   7.840  16.900  0.00  0.00    +0.000 OA
ENDBRANCH  14  21
BRANCH  19  22
ATOM     22  O   UNL     1       6.969   5.819  15.130  0.00  0.00    +0.000 OA
ATOM     23  C   UNL     1       6.633   4.663  14.370  0.00  0.00    +0.000 C 
ENDBRANCH  19  22
ENDBRANCH   1  17
TORSDOF 4
ENDMDL
MODEL 2
REMARK VINA RESULT:      -6.6      3.376      6.167
REMARK  Name = 
REMARK  6 active torsions:
REMARK  status: ('A' for Active; 'I' for Inactive)
REMARK    1  A    between atoms: C_1  and  O_2
REMARK    2  A    between atoms: O_2  and  C_3
REMARK    3  A    between atoms: C_6  and  N_7
REMARK    4  A    between atoms: N_7  and  C_8
REMARK    5  A    between atoms: C_20  and  O_21
REMARK    6  A    between atoms: O_21  and  C_22
REMARK                            x       y       z     vdW  Elec       q    Type
REMARK                         _______ _______ _______ _____ _____    ______ ____
ROOT
ATOM      1  N   UNL     1       4.517   3.625  16.603  0.00  0.00    +0.000 N 
ATOM      2  H   UNL     1       5.423   3.215  16.885  0.00  0.00    +0.000 HD
ENDROOT
BRANCH   1   3
ATOM      3  C   UNL     1       4.998   4.906  15.972  0.00  0.00    +0.000 A 
ATOM      4  C   UNL     1       5.715   4.565  14.831  0.00  0.00    +0.000 A 
ATOM      5  C   UNL     1       7.022   4.201  15.102  0.00  0.00    +0.000 A 
ATOM      6  N   UNL     1       7.634   4.545  16.262  0.00  0.00    +0.000 NA
ATOM      7  C   UNL     1       7.051   5.547  16.934  0.00  0.00    +0.000 A 
ATOM      8  C   UNL     1       7.842   6.450  17.614  0.00  0.00    +0.000 A 
ATOM      9  C   UNL     1       7.428   7.776  17.746  0.00  0.00    +0.000 A 
ATOM     10 CL   UNL     1       8.509   8.937  18.408  0.00  0.00    +0.000 Cl
ATOM     11  C   UNL     1       6.205   8.184  17.224  0.00  0.00    +0.000 A 
ATOM     12  C   UNL     1       5.326   7.221  16.722  0.00  0.00    +0.000 A 
ATOM     13  C   UNL     1       5.707   5.861  16.684  0.00  0.00    +0.000 A 
ENDBRANCH   1   3
BRANCH   1  17
ATOM     14  C   UNL     1       1.849   2.982  19.877  0.00  0.00    +0.000 A 
ATOM     15  C   UNL     1       2.137   1.921  18.982  0.00  0.00    +0.000 A 
ATOM     16  C   UNL     1       3.114   2.063  17.964  0.00  0.00    +0.000 A 
ATOM     17  C   UNL     1       3.800   3.239  17.789  0.00  0.00    +0.000 A 
ATOM     18  C   UNL     1       3.486   4.301  18.685  0.00  0.00    +0.000 A 
ATOM     19  C   UNL     1       2.527   4.198  19.713  0.00  0.00    +0.000 A 
BRANCH  14  21
ATOM     20  C   UNL     1       1.268   2.434  22.127  0.00  0.00    +0.000 C 
ATOM     21  O   UNL     1       0.885   2.905  20.842  0.00  0.00    +0.000 OA
ENDBRANCH  14  21
BRANCH  19  22
ATOM     22  O   UNL     1       2.365   5.369  20.415  0.00  0.00    +0.000 OA
ATOM     23  C   UNL     1       2.441   6.621  19.739  0.00  0.00    +0.000 C 
ENDBRANCH  19  22
ENDBRANCH   1  17
TORSDOF 4
ENDMDL
MODEL 3
REMARK VINA RESULT:      -6.6      4.563      6.995
REMARK  Name = 
REMARK  6 active torsions:
REMARK  status: ('A' for Active; 'I' for Inactive)
REMARK    1  A    between atoms: C_1  and  O_2
REMARK    2  A    between atoms: O_2  and  C_3
REMARK    3  A    between atoms: C_6  and  N_7
REMARK    4  A    between atoms: N_7  and  C_8
REMARK    5  A    between atoms: C_20  and  O_21
REMARK    6  A    between atoms: O_21  and  C_22
REMARK                            x       y       z     vdW  Elec       q    Type
REMARK                         _______ _______ _______ _____ _____    ______ ____
ROOT
ATOM      1  N   UNL     1       2.100   7.038  20.205  0.00  0.00    +0.000 N 
ATOM      2  H   UNL     1       3.027   7.151  20.650  0.00  0.00    +0.000 HD
ENDROOT
BRANCH   1   3
ATOM      3  C   UNL     1       2.513   6.403  18.903  0.00  0.00    +0.000 A 
ATOM      4  C   UNL     1       1.747   5.255  18.738  0.00  0.00    +0.000 A 
ATOM      5  C   UNL     1       2.245   4.168  19.434  0.00  0.00    +0.000 A 
ATOM      6  N   UNL     1       3.531   4.121  19.862  0.00  0.00    +0.000 NA
ATOM      7  C   UNL     1       4.360   4.984  19.260  0.00  0.00    +0.000 A 
ATOM      8  C   UNL     1       5.662   4.601  19.008  0.00  0.00    +0.000 A 
ATOM      9  C   UNL     1       6.330   5.100  17.889  0.00  0.00    +0.000 A 
ATOM     10 CL   UNL     1       7.869   4.459  17.469  0.00  0.00    +0.000 Cl
ATOM     11  C   UNL     1       5.701   6.007  17.044  0.00  0.00    +0.000 A 
ATOM     12  C   UNL     1       4.466   6.542  17.420  0.00  0.00    +0.000 A 
ATOM     13  C   UNL     1       3.836   6.110  18.609  0.00  0.00    +0.000 A 
ENDBRANCH   1   3
BRANCH   1  17
ATOM     14  C   UNL     1      -0.136  10.553  21.154  0.00  0.00    +0.000 A 
ATOM     15  C   UNL     1       0.347   9.720  22.195  0.00  0.00    +0.000 A 
ATOM     16  C   UNL     1       1.199   8.621  21.922  0.00  0.00    +0.000 A 
ATOM     17  C   UNL     1       1.569   8.304  20.638  0.00  0.00    +0.000 A 
ATOM     18  C   UNL     1       1.061   9.139  19.602  0.00  0.00    +0.000 A 
ATOM     19  C   UNL     1       0.217  10.245  19.833  0.00  0.00    +0.000 A 
BRANCH  14  21
ATOM     20  C   UNL     1      -1.423  11.840  22.699  0.00  0.00    +0.000 C 
ATOM     21  O   UNL     1      -0.993  11.595  21.367  0.00  0.00    +0.000 OA
ENDBRANCH  14  21
BRANCH  19  22
ATOM     22  O   UNL     1      -0.181  10.867  18.673  0.00  0.00    +0.000 OA
ATOM     23  C   UNL     1      -1.370  10.446  18.012  0.00  0.00    +0.000 C 
ENDBRANCH  19  22
ENDBRANCH   1  17
TORSDOF 4
ENDMDL
MODEL 4
REMARK VINA RESULT:      -6.5      4.665      7.138
REMARK  Name = 
REMARK  6 active torsions:
REMARK  status: ('A' for Active; 'I' for Inactive)
REMARK    1  A    between atoms: C_1  and  O_2
REMARK    2  A    between atoms: O_2  and  C_3
REMARK    3  A    between atoms: C_6  and  N_7
REMARK    4  A    between atoms: N_7  and  C_8
REMARK    5  A    between atoms: C_20  and  O_21
REMARK    6  A    between atoms: O_21  and  C_22
REMARK                            x       y       z     vdW  Elec       q    Type
REMARK                         _______ _______ _______ _____ _____    ______ ____
ROOT
ATOM      1  N   UNL     1       2.102   7.401  19.400  0.00  0.00    +0.000 N 
ATOM      2  H   UNL     1       2.998   7.728  19.799  0.00  0.00    +0.000 HD
ENDROOT
BRANCH   1   3
ATOM      3  C   UNL     1       2.617   6.527  18.287  0.00  0.00    +0.000 A 
ATOM      4  C   UNL     1       1.859   5.361  18.288  0.00  0.00    +0.000 A 
ATOM      5  C   UNL     1       2.292   4.437  19.222  0.00  0.00    +0.000 A 
ATOM      6  N   UNL     1       3.537   4.488  19.755  0.00  0.00    +0.000 NA
ATOM      7  C   UNL     1       4.419   5.223  19.065  0.00  0.00    +0.000 A 
ATOM      8  C   UNL     1       5.734   4.811  19.002  0.00  0.00    +0.000 A 
ATOM      9  C   UNL     1       6.496   5.088  17.865  0.00  0.00    +0.000 A 
ATOM     10 CL   UNL     1       8.060   4.393  17.707  0.00  0.00    +0.000 Cl
ATOM     11  C   UNL     1       5.944   5.805  16.810  0.00  0.00    +0.000 A 
ATOM     12  C   UNL     1       4.686   6.391  16.971  0.00  0.00    +0.000 A 
ATOM     13  C   UNL     1       3.958   6.195  18.165  0.00  0.00    +0.000 A 
ENDBRANCH   1   3
BRANCH   1  17
ATOM     14  C   UNL     1       0.662  11.342  20.206  0.00  0.00    +0.000 A 
ATOM     15  C   UNL     1       1.007  10.974  18.881  0.00  0.00    +0.000 A 
ATOM     16  C   UNL     1       1.364   9.640  18.558  0.00  0.00    +0.000 A 
ATOM     17  C   UNL     1       1.415   8.660  19.519  0.00  0.00    +0.000 A 
ATOM     18  C   UNL     1       1.083   9.051  20.847  0.00  0.00    +0.000 A 
ATOM     19  C   UNL     1       0.717  10.364  21.208  0.00  0.00    +0.000 A 
BRANCH  14  21
ATOM     20  C   UNL     1      -0.789  13.225  19.979  0.00  0.00    +0.000 C 
ATOM     21  O   UNL     1       0.356  12.623  20.569  0.00  0.00    +0.000 OA
ENDBRANCH  14  21
BRANCH  19  22
ATOM     22  O   UNL     1       0.490  10.506  22.556  0.00  0.00    +0.000 OA
ATOM     23  C   UNL     1      -0.811  10.276  23.088  0.00  0.00    +0.000 C 
ENDBRANCH  19  22
ENDBRANCH   1  17
TORSDOF 4
ENDMDL
MODEL 5
REMARK VINA RESULT:      -6.5      4.088      6.628
REMARK  Name = 
REMARK  6 active torsions:
REMARK  status: ('A' for Active; 'I' for Inactive)
REMARK    1  A    between atoms: C_1  and  O_2
REMARK    2  A    between atoms: O_2  and  C_3
REMARK    3  A    between atoms: C_6  and  N_7
REMARK    4  A    between atoms: N_7  and  C_8
REMARK    5  A    between atoms: C_20  and  O_21
REMARK    6  A    between atoms: O_21  and  C_22
REMARK                            x       y       z     vdW  Elec       q    Type
REMARK                         _______ _______ _______ _____ _____    ______ ____
ROOT
ATOM      1  N   UNL     1       3.855   6.208  19.165  0.00  0.00    +0.000 N 
ATOM      2  H   UNL     1       4.635   6.882  19.082  0.00  0.00    +0.000 HD
ENDROOT
BRANCH   1   3
ATOM      3  C   UNL     1       4.469   5.015  18.480  0.00  0.00    +0.000 A 
ATOM      4  C   UNL     1       5.410   4.475  19.348  0.00  0.00    +0.000 A 
ATOM      5  C   UNL     1       6.627   5.134  19.305  0.00  0.00    +0.000 A 
ATOM      6  N   UNL     1       6.979   5.916  18.255  0.00  0.00    +0.000 NA
ATOM      7  C   UNL     1       6.274   5.711  17.135  0.00  0.00    +0.000 A 
ATOM      8  C   UNL     1       6.909   5.810  15.913  0.00  0.00    +0.000 A 
ATOM      9  C   UNL     1       6.487   5.020  14.843  0.00  0.00    +0.000 A 
ATOM     10 CL   UNL     1       7.411   4.996  13.394  0.00  0.00    +0.000 Cl
ATOM     11  C   UNL     1       5.407   4.157  14.993  0.00  0.00    +0.000 A 
ATOM     12  C   UNL     1       4.648   4.216  16.165  0.00  0.00    +0.000 A 
ATOM     13  C   UNL     1       5.018   5.093  17.209  0.00  0.00    +0.000 A 
ENDBRANCH   1   3
BRANCH   1  17
ATOM     14  C   UNL     1       1.084   9.449  18.908  0.00  0.00    +0.000 A 
ATOM     15  C   UNL     1       1.906   9.134  17.797  0.00  0.00    +0.000 A 
ATOM     16  C   UNL     1       2.742   7.989  17.803  0.00  0.00    +0.000 A 
ATOM     17  C   UNL     1       2.806   7.156  18.892  0.00  0.00    +0.000 A 
ATOM     18  C   UNL     1       1.987   7.497  20.006  0.00  0.00    +0.000 A 
ATOM     19  C   UNL     1       1.139   8.622  20.038  0.00  0.00    +0.000 A 
BRANCH  14  21
ATOM     20  C   UNL     1      -0.956  10.530  18.295  0.00  0.00    +0.000 C 
ATOM     21  O   UNL     1       0.298  10.566  18.962  0.00  0.00    +0.000 OA
ENDBRANCH  14  21
BRANCH  19  22
ATOM     22  O   UNL     1       0.487   8.769  21.239  0.00  0.00    +0.000 OA
ATOM     23  C   UNL     1       1.186   9.272  22.373  0.00  0.00    +0.000 C 
ENDBRANCH  19  22
ENDBRANCH   1  17
TORSDOF 4
ENDMDL
MODEL 6
REMARK VINA RESULT:      -6.4      4.759      6.834
REMARK  Name = 
REMARK  6 active torsions:
REMARK  status: ('A' for Active; 'I' for Inactive)
REMARK    1  A    between atoms: C_1  and  O_2
REMARK    2  A    between atoms: O_2  and  C_3
REMARK    3  A    between atoms: C_6  and  N_7
REMARK    4  A    between atoms: N_7  and  C_8
REMARK    5  A    between atoms: C_20  and  O_21
REMARK    6  A    between atoms: O_21  and  C_22
REMARK                            x       y       z     vdW  Elec       q    Type
REMARK                         _______ _______ _______ _____ _____    ______ ____
ROOT
ATOM      1  N   UNL     1       1.601   8.693  19.099  0.00  0.00    +0.000 N 
ATOM      2  H   UNL     1       0.779   8.205  19.492  0.00  0.00    +0.000 HD
ENDROOT
BRANCH   1   3
ATOM      3  C   UNL     1       0.915   9.621  18.132  0.00  0.00    +0.000 A 
ATOM      4  C   UNL     1       1.738  10.729  17.962  0.00  0.00    +0.000 A 
ATOM      5  C   UNL     1       1.597  11.666  18.971  0.00  0.00    +0.000 A 
ATOM      6  N   UNL     1       0.504  11.696  19.772  0.00  0.00    +0.000 NA
ATOM      7  C   UNL     1      -0.563  11.038  19.299  0.00  0.00    +0.000 A 
ATOM      8  C   UNL     1      -1.824  11.544  19.535  0.00  0.00    +0.000 A 
ATOM      9  C   UNL     1      -2.841  11.344  18.600  0.00  0.00    +0.000 A 
ATOM     10 CL   UNL     1      -4.345  12.153  18.800  0.00  0.00    +0.000 Cl
ATOM     11  C   UNL     1      -2.596  10.607  17.446  0.00  0.00    +0.000 A 
ATOM     12  C   UNL     1      -1.381   9.929  17.318  0.00  0.00    +0.000 A 
ATOM     13  C   UNL     1      -0.390  10.051  18.317  0.00  0.00    +0.000 A 
ENDBRANCH   1   3
BRANCH   1  17
ATOM     14  C   UNL     1       3.440   4.846  18.824  0.00  0.00    +0.000 A 
ATOM     15  C   UNL     1       3.654   5.806  17.802  0.00  0.00    +0.000 A 
ATOM     16  C   UNL     1       3.166   7.131  17.925  0.00  0.00    +0.000 A 
ATOM     17  C   UNL     1       2.446   7.530  19.024  0.00  0.00    +0.000 A 
ATOM     18  C   UNL     1       2.224   6.549  20.033  0.00  0.00    +0.000 A 
ATOM     19  C   UNL     1       2.697   5.223  19.951  0.00  0.00    +0.000 A 
BRANCH  14  21
ATOM     20  C   UNL     1       3.242   2.727  17.741  0.00  0.00    +0.000 C 
ATOM     21  O   UNL     1       3.853   3.547  18.727  0.00  0.00    +0.000 OA
ENDBRANCH  14  21
BRANCH  19  22
ATOM     22  O   UNL     1       2.316   4.451  21.022  0.00  0.00    +0.000 OA
ATOM     23  C   UNL     1       1.246   3.521  20.885  0.00  0.00    +0.000 C 
ENDBRANCH  19  22
ENDBRANCH   1  17
TORSDOF 4
ENDMDL
MODEL 7
REMARK VINA RESULT:      -6.3      0.986      2.533
REMARK  Name = 
REMARK  6 active torsions:
REMARK  status: ('A' for Active; 'I' for Inactive)
REMARK    1  A    between atoms: C_1  and  O_2
REMARK    2  A    between atoms: O_2  and  C_3
REMARK    3  A    between atoms: C_6  and  N_7
REMARK    4  A    between atoms: N_7  and  C_8
REMARK    5  A    between atoms: C_20  and  O_21
REMARK    6  A    between atoms: O_21  and  C_22
REMARK                            x       y       z     vdW  Elec       q    Type
REMARK                         _______ _______ _______ _____ _____    ______ ____
ROOT
ATOM      1  N   UNL     1       5.002   3.166  18.010  0.00  0.00    +0.000 N 
ATOM      2  H   UNL     1       4.992   2.217  17.600  0.00  0.00    +0.000 HD
ENDROOT
BRANCH   1   3
ATOM      3  C   UNL     1       3.739   3.109  18.829  0.00  0.00    +0.000 A 
ATOM      4  C   UNL     1       2.754   2.531  18.036  0.00  0.00    +0.000 A 
ATOM      5  C   UNL     1       2.159   3.434  17.172  0.00  0.00    +0.000 A 
ATOM      6  N   UNL     1       2.228   4.772  17.376  0.00  0.00    +0.000 NA
ATOM      7  C   UNL     1       2.561   5.138  18.622  0.00  0.00    +0.000 A 
ATOM      8  C   UNL     1       1.985   6.268  19.166  0.00  0.00    +0.000 A 
ATOM      9  C   UNL     1       1.752   6.336  20.541  0.00  0.00    +0.000 A 
ATOM     10 CL   UNL     1       0.848   7.651  21.180  0.00  0.00    +0.000 Cl
ATOM     11  C   UNL     1       2.128   5.283  21.368  0.00  0.00    +0.000 A 
ATOM     12  C   UNL     1       2.891   4.241  20.837  0.00  0.00    +0.000 A 
ATOM     13  C   UNL     1       3.215   4.225  19.462  0.00  0.00    +0.000 A 
ENDBRANCH   1   3
BRANCH   1  17
ATOM     14  C   UNL     1       7.067   5.036  14.771  0.00  0.00    +0.000 A 
ATOM     15  C   UNL     1       6.292   3.872  14.536  0.00  0.00    +0.000 A 
ATOM     16  C   UNL     1       5.492   3.303  15.560  0.00  0.00    +0.000 A 
ATOM     17  C   UNL     1       5.458   3.840  16.823  0.00  0.00    +0.000 A 
ATOM     18  C   UNL     1       6.256   4.998  17.046  0.00  0.00    +0.000 A 
ATOM     19  C   UNL     1       7.059   5.597  16.055  0.00  0.00    +0.000 A 
BRANCH  14  21
ATOM     20  C   UNL     1       7.705   5.194  12.475  0.00  0.00    +0.000 C 
ATOM     21  O   UNL     1       7.885   5.591  13.828  0.00  0.00    +0.000 OA
ENDBRANCH  14  21
BRANCH  19  22
ATOM     22  O   UNL     1       7.775   6.674  16.522  0.00  0.00    +0.000 OA
ATOM     23  C   UNL     1       7.453   7.249  17.785  0.00  0.00    +0.000 C 
ENDBRANCH  19  22
ENDBRANCH   1  17
TORSDOF 4
ENDMDL
MODEL 8
REMARK VINA RESULT:      -6.3      3.502      6.107
REMARK  Name = 
REMARK  6 active torsions:
REMARK  status: ('A' for Active; 'I' for Inactive)
REMARK    1  A    between atoms: C_1  and  O_2
REMARK    2  A    between atoms: O_2  and  C_3
REMARK    3  A    between atoms: C_6  and  N_7
REMARK    4  A    between atoms: N_7  and  C_8
REMARK    5  A    between atoms: C_20  and  O_21
REMARK    6  A    between atoms: O_21  and  C_22
REMARK                            x       y       z     vdW  Elec       q    Type
REMARK                         _______ _______ _______ _____ _____    ______ ____
ROOT
ATOM      1  N   UNL     1       4.560   3.290  16.791  0.00  0.00    +0.000 N 
ATOM      2  H   UNL     1       5.504   2.999  17.096  0.00  0.00    +0.000 HD
ENDROOT
BRANCH   1   3
ATOM      3  C   UNL     1       4.898   4.590  16.108  0.00  0.00    +0.000 A 
ATOM      4  C   UNL     1       5.539   4.278  14.915  0.00  0.00    +0.000 A 
ATOM      5  C   UNL     1       6.886   4.008  15.080  0.00  0.00    +0.000 A 
ATOM      6  N   UNL     1       7.567   4.412  16.181  0.00  0.00    +0.000 NA
ATOM      7  C   UNL     1       6.974   5.383  16.888  0.00  0.00    +0.000 A 
ATOM      8  C   UNL     1       7.755   6.349  17.490  0.00  0.00    +0.000 A 
ATOM      9  C   UNL     1       7.263   7.647  17.642  0.00  0.00    +0.000 A 
ATOM     10 CL   UNL     1       8.313   8.889  18.197  0.00  0.00    +0.000 Cl
ATOM     11  C   UNL     1       5.976   7.962  17.219  0.00  0.00    +0.000 A 
ATOM     12  C   UNL     1       5.127   6.933  16.803  0.00  0.00    +0.000 A 
ATOM     13  C   UNL     1       5.596   5.602  16.747  0.00  0.00    +0.000 A 
ENDBRANCH   1   3
BRANCH   1  17
ATOM     14  C   UNL     1       2.979   2.592  20.698  0.00  0.00    +0.000 A 
ATOM     15  C   UNL     1       2.135   3.091  19.674  0.00  0.00    +0.000 A 
ATOM     16  C   UNL     1       2.593   3.211  18.338  0.00  0.00    +0.000 A 
ATOM     17  C   UNL     1       3.878   2.875  17.989  0.00  0.00    +0.000 A 
ATOM     18  C   UNL     1       4.718   2.393  19.033  0.00  0.00    +0.000 A 
ATOM     19  C   UNL     1       4.299   2.252  20.371  0.00  0.00    +0.000 A 
BRANCH  14  21
ATOM     20  C   UNL     1       1.203   2.569  22.295  0.00  0.00    +0.000 C 
ATOM     21  O   UNL     1       2.593   2.502  22.006  0.00  0.00    +0.000 OA
ENDBRANCH  14  21
BRANCH  19  22
ATOM     22  O   UNL     1       5.301   1.815  21.204  0.00  0.00    +0.000 OA
ATOM     23  C   UNL     1       5.614   0.427  21.275  0.00  0.00    +0.000 C 
ENDBRANCH  19  22
ENDBRANCH   1  17
TORSDOF 4
ENDMDL
MODEL 9
REMARK VINA RESULT:      -6.3      1.969      3.454
REMARK  Name = 
REMARK  6 active torsions:
REMARK  status: ('A' for Active; 'I' for Inactive)
REMARK    1  A    between atoms: C_1  and  O_2
REMARK    2  A    between atoms: O_2  and  C_3
REMARK    3  A    between atoms: C_6  and  N_7
REMARK    4  A    between atoms: N_7  and  C_8
REMARK    5  A    between atoms: C_20  and  O_21
REMARK    6  A    between atoms: O_21  and  C_22
REMARK                            x       y       z     vdW  Elec       q    Type
REMARK                         _______ _______ _______ _____ _____    ______ ____
ROOT
ATOM      1  N   UNL     1       4.155   3.812  16.961  0.00  0.00    +0.000 N 
ATOM      2  H   UNL     1       3.893   2.975  16.413  0.00  0.00    +0.000 HD
ENDROOT
BRANCH   1   3
ATOM      3  C   UNL     1       2.824   4.138  17.588  0.00  0.00    +0.000 A 
ATOM      4  C   UNL     1       2.770   5.517  17.755  0.00  0.00    +0.000 A 
ATOM      5  C   UNL     1       3.421   5.949  18.897  0.00  0.00    +0.000 A 
ATOM      6  N   UNL     1       3.697   5.108  19.924  0.00  0.00    +0.000 NA
ATOM      7  C   UNL     1       2.987   3.972  19.932  0.00  0.00    +0.000 A 
ATOM      8  C   UNL     1       2.591   3.435  21.141  0.00  0.00    +0.000 A 
ATOM      9  C   UNL     1       1.393   2.724  21.227  0.00  0.00    +0.000 A 
ATOM     10 CL   UNL     1       0.807   2.241  22.770  0.00  0.00    +0.000 Cl
ATOM     11  C   UNL     1       0.612   2.526  20.094  0.00  0.00    +0.000 A 
ATOM     12  C   UNL     1       1.121   2.895  18.846  0.00  0.00    +0.000 A 
ATOM     13  C   UNL     1       2.383   3.523  18.749  0.00  0.00    +0.000 A 
ENDBRANCH   1   3
BRANCH   1  17
ATOM     14  C   UNL     1       7.291   5.245  14.438  0.00  0.00    +0.000 A 
ATOM     15  C   UNL     1       6.398   4.253  13.960  0.00  0.00    +0.000 A 
ATOM     16  C   UNL     1       5.272   3.850  14.721  0.00  0.00    +0.000 A 
ATOM     17  C   UNL     1       5.017   4.384  15.960  0.00  0.00    +0.000 A 
ATOM     18  C   UNL     1       5.933   5.366  16.433  0.00  0.00    +0.000 A 
ATOM     19  C   UNL     1       7.060   5.798  15.705  0.00  0.00    +0.000 A 
BRANCH  14  21
ATOM     20  C   UNL     1       8.305   5.823  12.355  0.00  0.00    +0.000 C 
ATOM     21  O   UNL     1       8.412   5.630  13.759  0.00  0.00    +0.000 OA
ENDBRANCH  14  21
BRANCH  19  22
ATOM     22  O   UNL     1       7.821   6.716  16.390  0.00  0.00    +0.000 OA
ATOM     23  C   UNL     1       7.268   7.412  17.502  0.00  0.00    +0.000 C 
ENDBRANCH  19  22
ENDBRANCH   1  17
TORSDOF 4
ENDMDL
