MODEL 1
REMARK VINA RESULT:      -6.3      0.000      0.000
REMARK  Name = 
REMARK  10 active torsions:
REMARK  status: ('A' for Active; 'I' for Inactive)
REMARK    1  A    between atoms: C_1  and  C_2
REMARK    2  A    between atoms: C_2  and  O_3
REMARK    3  A    between atoms: O_3  and  C_4
REMARK    4  A    between atoms: C_4  and  C_6
REMARK    5  A    between atoms: C_7  and  C_8
REMARK    6  A    between atoms: C_21  and  C_22
REMARK    7  A    between atoms: C_25  and  O_26
REMARK    8  A    between atoms: O_26  and  C_27
REMARK    9  A    between atoms: C_28  and  O_29
REMARK   10  A    between atoms: O_29  and  C_30
REMARK                            x       y       z     vdW  Elec       q    Type
REMARK                         _______ _______ _______ _____ _____    ______ ____
ROOT
ATOM      1  C   UNL     1      -0.485  11.447  19.177  0.00  0.00    +0.000 C 
ATOM      2  C   UNL     1       0.800  11.132  19.450  0.00  0.00    +0.000 C 
ATOM      3  N   UNL     1       1.688  12.017  20.026  0.00  0.00    +0.000 NA
ATOM      4  C   UNL     1       1.276  13.213  20.255  0.00  0.00    +0.000 C 
ATOM      5  S   UNL     1       2.304  14.428  20.939  0.00  0.00    +0.000 S 
ATOM      6  C   UNL     1       1.006  15.684  20.885  0.00  0.00    +0.000 C 
ATOM      7  C   UNL     1      -0.171  15.034  20.201  0.00  0.00    +0.000 C 
ATOM      8  O   UNL     1      -1.181  15.652  19.880  0.00  0.00    +0.000 OA
ATOM      9  N   UNL     1       0.035  13.692  19.993  0.00  0.00    +0.000 N 
ATOM     10  C   UNL     1      -1.017  12.815  19.506  0.00  0.00    +0.000 C 
ENDROOT
BRANCH   2  11
ATOM     11  C   UNL     1       1.365   9.803  19.143  0.00  0.00    +0.000 A 
ATOM     12  C   UNL     1       1.381   8.801  20.120  0.00  0.00    +0.000 A 
ATOM     13  C   UNL     1       1.971   7.565  19.849  0.00  0.00    +0.000 A 
ATOM     14  C   UNL     1       2.543   7.325  18.600  0.00  0.00    +0.000 A 
ATOM     15  C   UNL     1       2.515   8.312  17.616  0.00  0.00    +0.000 A 
ATOM     16  C   UNL     1       1.921   9.545  17.882  0.00  0.00    +0.000 A 
ENDBRANCH   2  11
BRANCH  10  17
ATOM     17  C   UNL     1      -2.139  12.743  20.539  0.00  0.00    +0.000 A 
ATOM     18  C   UNL     1      -1.880  12.458  21.885  0.00  0.00    +0.000 A 
ATOM     19  C   UNL     1      -2.932  12.385  22.791  0.00  0.00    +0.000 A 
ATOM     20  C   UNL     1      -4.254  12.598  22.380  0.00  0.00    +0.000 A 
ATOM     21  C   UNL     1      -4.534  12.871  21.030  0.00  0.00    +0.000 A 
ATOM     22  C   UNL     1      -3.467  12.955  20.129  0.00  0.00    +0.000 A 
BRANCH  20  23
ATOM     23  O   UNL     1      -5.163  12.449  23.397  0.00  0.00    +0.000 OA
ATOM     24  C   UNL     1      -4.631  12.402  24.714  0.00  0.00    +0.000 C 
ENDBRANCH  20  23
BRANCH  21  25
ATOM     25  O   UNL     1      -5.843  13.005  20.651  0.00  0.00    +0.000 OA
ATOM     26  C   UNL     1      -6.545  11.834  20.249  0.00  0.00    +0.000 C 
ENDBRANCH  21  25
ENDBRANCH  10  17
BRANCH   1  27
ATOM     27  C   UNL     1      -1.453  10.459  18.629  0.00  0.00    +0.000 C 
ATOM     28  O   UNL     1      -2.110   9.674  19.295  0.00  0.00    +0.000 OA
BRANCH  27  29
ATOM     29  O   UNL     1      -1.547  10.580  17.275  0.00  0.00    +0.000 OA
BRANCH  29  31
ATOM     30  C   UNL     1      -3.139  10.665  15.411  0.00  0.00    +0.000 C 
ATOM     31  C   UNL     1      -2.711   9.966  16.692  0.00  0.00    +0.000 C 
ENDBRANCH  29  31
ENDBRANCH  27  29
ENDBRANCH   1  27
TORSDOF 7
ENDMDL
MODEL 2
REMARK VINA RESULT:      -6.2      5.362      8.890
REMARK  Name = 
REMARK  10 active torsions:
REMARK  status: ('A' for Active; 'I' for Inactive)
REMARK    1  A    between atoms: C_1  and  C_2
REMARK    2  A    between atoms: C_2  and  O_3
REMARK    3  A    between atoms: O_3  and  C_4
REMARK    4  A    between atoms: C_4  and  C_6
REMARK    5  A    between atoms: C_7  and  C_8
REMARK    6  A    between atoms: C_21  and  C_22
REMARK    7  A    between atoms: C_25  and  O_26
REMARK    8  A    between atoms: O_26  and  C_27
REMARK    9  A    between atoms: C_28  and  O_29
REMARK   10  A    between atoms: O_29  and  C_30
REMARK                            x       y       z     vdW  Elec       q    Type
REMARK                         _______ _______ _______ _____ _____    ______ ____
ROOT
ATOM      1  C   UNL     1       4.549   5.554  17.682  0.00  0.00    +0.000 C 
ATOM      2  C   UNL     1       4.411   4.514  16.831  0.00  0.00    +0.000 C 
ATOM      3  N   UNL     1       3.498   3.498  17.022  0.00  0.00    +0.000 NA
ATOM      4  C   UNL     1       2.792   3.524  18.096  0.00  0.00    +0.000 C 
ATOM      5  S   UNL     1       1.638   2.288  18.470  0.00  0.00    +0.000 S 
ATOM      6  C   UNL     1       1.179   3.065  20.036  0.00  0.00    +0.000 C 
ATOM      7  C   UNL     1       2.096   4.252  20.193  0.00  0.00    +0.000 C 
ATOM      8  O   UNL     1       2.144   4.929  21.215  0.00  0.00    +0.000 OA
ATOM      9  N   UNL     1       2.849   4.471  19.065  0.00  0.00    +0.000 N 
ATOM     10  C   UNL     1       3.681   5.652  18.907  0.00  0.00    +0.000 C 
ENDROOT
BRANCH   2  11
ATOM     11  C   UNL     1       5.242   4.377  15.617  0.00  0.00    +0.000 A 
ATOM     12  C   UNL     1       6.630   4.538  15.692  0.00  0.00    +0.000 A 
ATOM     13  C   UNL     1       7.408   4.469  14.534  0.00  0.00    +0.000 A 
ATOM     14  C   UNL     1       6.802   4.235  13.300  0.00  0.00    +0.000 A 
ATOM     15  C   UNL     1       5.421   4.057  13.221  0.00  0.00    +0.000 A 
ATOM     16  C   UNL     1       4.643   4.118  14.377  0.00  0.00    +0.000 A 
ENDBRANCH   2  11
BRANCH  10  17
ATOM     17  C   UNL     1       2.797   6.896  18.866  0.00  0.00    +0.000 A 
ATOM     18  C   UNL     1       2.454   7.512  17.657  0.00  0.00    +0.000 A 
ATOM     19  C   UNL     1       1.660   8.654  17.664  0.00  0.00    +0.000 A 
ATOM     20  C   UNL     1       1.190   9.197  18.867  0.00  0.00    +0.000 A 
ATOM     21  C   UNL     1       1.536   8.600  20.091  0.00  0.00    +0.000 A 
ATOM     22  C   UNL     1       2.325   7.444  20.072  0.00  0.00    +0.000 A 
BRANCH  20  23
ATOM     23  O   UNL     1       0.455  10.343  18.687  0.00  0.00    +0.000 OA
ATOM     24  C   UNL     1      -0.797  10.190  18.031  0.00  0.00    +0.000 C 
ENDBRANCH  20  23
BRANCH  21  25
ATOM     25  O   UNL     1       1.117   9.197  21.249  0.00  0.00    +0.000 OA
ATOM     26  C   UNL     1      -0.168   8.849  21.753  0.00  0.00    +0.000 C 
ENDBRANCH  21  25
ENDBRANCH  10  17
BRANCH   1  27
ATOM     27  C   UNL     1       5.483   6.683  17.422  0.00  0.00    +0.000 C 
ATOM     28  O   UNL     1       5.394   7.469  16.492  0.00  0.00    +0.000 OA
BRANCH  27  29
ATOM     29  O   UNL     1       6.430   6.756  18.398  0.00  0.00    +0.000 OA
BRANCH  29  31
ATOM     30  C   UNL     1       8.163   8.458  18.055  0.00  0.00    +0.000 C 
ATOM     31  C   UNL     1       7.768   6.994  17.925  0.00  0.00    +0.000 C 
ENDBRANCH  29  31
ENDBRANCH  27  29
ENDBRANCH   1  27
TORSDOF 7
ENDMDL
MODEL 3
REMARK VINA RESULT:      -6.2      0.804      1.777
REMARK  Name = 
REMARK  10 active torsions:
REMARK  status: ('A' for Active; 'I' for Inactive)
REMARK    1  A    between atoms: C_1  and  C_2
REMARK    2  A    between atoms: C_2  and  O_3
REMARK    3  A    between atoms: O_3  and  C_4
REMARK    4  A    between atoms: C_4  and  C_6
REMARK    5  A    between atoms: C_7  and  C_8
REMARK    6  A    between atoms: C_21  and  C_22
REMARK    7  A    between atoms: C_25  and  O_26
REMARK    8  A    between atoms: O_26  and  C_27
REMARK    9  A    between atoms: C_28  and  O_29
REMARK   10  A    between atoms: O_29  and  C_30
REMARK                            x       y       z     vdW  Elec       q    Type
REMARK                         _______ _______ _______ _____ _____    ______ ____
ROOT
ATOM      1  C   UNL     1      -0.733  11.669  19.103  0.00  0.00    +0.000 C 
ATOM      2  C   UNL     1       0.493  11.333  19.558  0.00  0.00    +0.000 C 
ATOM      3  N   UNL     1       1.266  12.173  20.333  0.00  0.00    +0.000 NA
ATOM      4  C   UNL     1       0.810  13.349  20.577  0.00  0.00    +0.000 C 
ATOM      5  S   UNL     1       1.701  14.509  21.505  0.00  0.00    +0.000 S 
ATOM      6  C   UNL     1       0.416  15.769  21.331  0.00  0.00    +0.000 C 
ATOM      7  C   UNL     1      -0.627  15.172  20.419  0.00  0.00    +0.000 C 
ATOM      8  O   UNL     1      -1.578  15.813  19.984  0.00  0.00    +0.000 OA
ATOM      9  N   UNL     1      -0.377  13.847  20.152  0.00  0.00    +0.000 N 
ATOM     10  C   UNL     1      -1.327  13.010  19.439  0.00  0.00    +0.000 C 
ENDROOT
BRANCH   2  11
ATOM     11  C   UNL     1       1.114  10.029  19.253  0.00  0.00    +0.000 A 
ATOM     12  C   UNL     1       1.168   9.028  20.230  0.00  0.00    +0.000 A 
ATOM     13  C   UNL     1       1.811   7.817  19.960  0.00  0.00    +0.000 A 
ATOM     14  C   UNL     1       2.396   7.602  18.713  0.00  0.00    +0.000 A 
ATOM     15  C   UNL     1       2.331   8.588  17.729  0.00  0.00    +0.000 A 
ATOM     16  C   UNL     1       1.684   9.795  17.994  0.00  0.00    +0.000 A 
ENDBRANCH   2  11
BRANCH  10  17
ATOM     17  C   UNL     1      -2.600  12.865  20.268  0.00  0.00    +0.000 A 
ATOM     18  C   UNL     1      -3.869  12.938  19.683  0.00  0.00    +0.000 A 
ATOM     19  C   UNL     1      -5.004  12.817  20.477  0.00  0.00    +0.000 A 
ATOM     20  C   UNL     1      -4.900  12.615  21.859  0.00  0.00    +0.000 A 
ATOM     21  C   UNL     1      -3.634  12.553  22.466  0.00  0.00    +0.000 A 
ATOM     22  C   UNL     1      -2.497  12.663  21.656  0.00  0.00    +0.000 A 
BRANCH  20  23
ATOM     23  O   UNL     1      -6.119  12.558  22.487  0.00  0.00    +0.000 OA
ATOM     24  C   UNL     1      -7.202  12.063  21.712  0.00  0.00    +0.000 C 
ENDBRANCH  20  23
BRANCH  21  25
ATOM     25  O   UNL     1      -3.569  12.424  23.827  0.00  0.00    +0.000 OA
ATOM     26  C   UNL     1      -3.569  13.612  24.611  0.00  0.00    +0.000 C 
ENDBRANCH  21  25
ENDBRANCH  10  17
BRANCH   1  27
ATOM     27  C   UNL     1      -1.589  10.724  18.335  0.00  0.00    +0.000 C 
ATOM     28  O   UNL     1      -2.057   9.684  18.773  0.00  0.00    +0.000 OA
BRANCH  27  29
ATOM     29  O   UNL     1      -1.826  11.202  17.082  0.00  0.00    +0.000 OA
BRANCH  29  31
ATOM     30  C   UNL     1      -4.194  11.243  16.443  0.00  0.00    +0.000 C 
ATOM     31  C   UNL     1      -2.861  10.514  16.357  0.00  0.00    +0.000 C 
ENDBRANCH  29  31
ENDBRANCH  27  29
ENDBRANCH   1  27
TORSDOF 7
ENDMDL
MODEL 4
REMARK VINA RESULT:      -6.1      2.480      6.088
REMARK  Name = 
REMARK  10 active torsions:
REMARK  status: ('A' for Active; 'I' for Inactive)
REMARK    1  A    between atoms: C_1  and  C_2
REMARK    2  A    between atoms: C_2  and  O_3
REMARK    3  A    between atoms: O_3  and  C_4
REMARK    4  A    between atoms: C_4  and  C_6
REMARK    5  A    between atoms: C_7  and  C_8
REMARK    6  A    between atoms: C_21  and  C_22
REMARK    7  A    between atoms: C_25  and  O_26
REMARK    8  A    between atoms: O_26  and  C_27
REMARK    9  A    between atoms: C_28  and  O_29
REMARK   10  A    between atoms: O_29  and  C_30
REMARK                            x       y       z     vdW  Elec       q    Type
REMARK                         _______ _______ _______ _____ _____    ______ ____
ROOT
ATOM      1  C   UNL     1      -0.741  13.047  21.943  0.00  0.00    +0.000 C 
ATOM      2  C   UNL     1      -0.947  14.358  22.195  0.00  0.00    +0.000 C 
ATOM      3  N   UNL     1      -0.423  15.368  21.415  0.00  0.00    +0.000 NA
ATOM      4  C   UNL     1       0.344  15.033  20.440  0.00  0.00    +0.000 C 
ATOM      5  S   UNL     1       1.093  16.207  19.411  0.00  0.00    +0.000 S 
ATOM      6  C   UNL     1       1.932  14.943  18.428  0.00  0.00    +0.000 C 
ATOM      7  C   UNL     1       1.613  13.626  19.090  0.00  0.00    +0.000 C 
ATOM      8  O   UNL     1       2.134  12.567  18.755  0.00  0.00    +0.000 OA
ATOM      9  N   UNL     1       0.683  13.767  20.092  0.00  0.00    +0.000 N 
ATOM     10  C   UNL     1       0.089  12.623  20.762  0.00  0.00    +0.000 C 
ENDROOT
BRANCH   2  11
ATOM     11  C   UNL     1      -1.753  14.820  23.343  0.00  0.00    +0.000 A 
ATOM     12  C   UNL     1      -3.109  15.123  23.175  0.00  0.00    +0.000 A 
ATOM     13  C   UNL     1      -3.856  15.619  24.247  0.00  0.00    +0.000 A 
ATOM     14  C   UNL     1      -3.251  15.808  25.490  0.00  0.00    +0.000 A 
ATOM     15  C   UNL     1      -1.905  15.491  25.668  0.00  0.00    +0.000 A 
ATOM     16  C   UNL     1      -1.159  14.989  24.601  0.00  0.00    +0.000 A 
ENDBRANCH   2  11
BRANCH  10  17
ATOM     17  C   UNL     1      -0.737  11.818  19.762  0.00  0.00    +0.000 A 
ATOM     18  C   UNL     1      -0.241  10.651  19.171  0.00  0.00    +0.000 A 
ATOM     19  C   UNL     1      -1.019   9.957  18.251  0.00  0.00    +0.000 A 
ATOM     20  C   UNL     1      -2.302  10.405  17.908  0.00  0.00    +0.000 A 
ATOM     21  C   UNL     1      -2.811  11.583  18.481  0.00  0.00    +0.000 A 
ATOM     22  C   UNL     1      -2.024  12.267  19.414  0.00  0.00    +0.000 A 
BRANCH  20  23
ATOM     23  O   UNL     1      -2.908   9.620  16.959  0.00  0.00    +0.000 OA
ATOM     24  C   UNL     1      -2.747  10.031  15.608  0.00  0.00    +0.000 C 
ENDBRANCH  20  23
BRANCH  21  25
ATOM     25  O   UNL     1      -4.039  12.029  18.070  0.00  0.00    +0.000 OA
ATOM     26  C   UNL     1      -5.041  12.230  19.061  0.00  0.00    +0.000 C 
ENDBRANCH  21  25
ENDBRANCH  10  17
BRANCH   1  27
ATOM     27  C   UNL     1      -1.377  11.967  22.746  0.00  0.00    +0.000 C 
ATOM     28  O   UNL     1      -2.579  11.782  22.847  0.00  0.00    +0.000 OA
BRANCH  27  29
ATOM     29  O   UNL     1      -0.429  11.174  23.318  0.00  0.00    +0.000 OA
BRANCH  29  31
ATOM     30  C   UNL     1       0.701   9.190  22.422  0.00  0.00    +0.000 C 
ATOM     31  C   UNL     1      -0.564   9.769  23.036  0.00  0.00    +0.000 C 
ENDBRANCH  29  31
ENDBRANCH  27  29
ENDBRANCH   1  27
TORSDOF 7
ENDMDL
MODEL 5
REMARK VINA RESULT:      -6.0      5.185     10.002
REMARK  Name = 
REMARK  10 active torsions:
REMARK  status: ('A' for Active; 'I' for Inactive)
REMARK    1  A    between atoms: C_1  and  C_2
REMARK    2  A    between atoms: C_2  and  O_3
REMARK    3  A    between atoms: O_3  and  C_4
REMARK    4  A    between atoms: C_4  and  C_6
REMARK    5  A    between atoms: C_7  and  C_8
REMARK    6  A    between atoms: C_21  and  C_22
REMARK    7  A    between atoms: C_25  and  O_26
REMARK    8  A    between atoms: O_26  and  C_27
REMARK    9  A    between atoms: C_28  and  O_29
REMARK   10  A    between atoms: O_29  and  C_30
REMARK                            x       y       z     vdW  Elec       q    Type
REMARK                         _______ _______ _______ _____ _____    ______ ____
ROOT
ATOM      1  C   UNL     1       1.868   6.663  18.973  0.00  0.00    +0.000 C 
ATOM      2  C   UNL     1       1.464   6.546  20.256  0.00  0.00    +0.000 C 
ATOM      3  N   UNL     1       1.335   5.332  20.898  0.00  0.00    +0.000 NA
ATOM      4  C   UNL     1       1.557   4.267  20.214  0.00  0.00    +0.000 C 
ATOM      5  S   UNL     1       1.393   2.683  20.895  0.00  0.00    +0.000 S 
ATOM      6  C   UNL     1       1.840   1.872  19.342  0.00  0.00    +0.000 C 
ATOM      7  C   UNL     1       1.995   2.978  18.328  0.00  0.00    +0.000 C 
ATOM      8  O   UNL     1       2.168   2.767  17.132  0.00  0.00    +0.000 OA
ATOM      9  N   UNL     1       1.923   4.221  18.909  0.00  0.00    +0.000 N 
ATOM     10  C   UNL     1       2.212   5.438  18.170  0.00  0.00    +0.000 C 
ENDROOT
BRANCH   2  11
ATOM     11  C   UNL     1       1.116   7.721  21.080  0.00  0.00    +0.000 A 
ATOM     12  C   UNL     1       2.122   8.460  21.713  0.00  0.00    +0.000 A 
ATOM     13  C   UNL     1       1.788   9.534  22.542  0.00  0.00    +0.000 A 
ATOM     14  C   UNL     1       0.450   9.874  22.737  0.00  0.00    +0.000 A 
ATOM     15  C   UNL     1      -0.557   9.152  22.096  0.00  0.00    +0.000 A 
ATOM     16  C   UNL     1      -0.226   8.084  21.262  0.00  0.00    +0.000 A 
ENDBRANCH   2  11
BRANCH  10  17
ATOM     17  C   UNL     1       3.679   5.441  17.748  0.00  0.00    +0.000 A 
ATOM     18  C   UNL     1       4.060   5.673  16.422  0.00  0.00    +0.000 A 
ATOM     19  C   UNL     1       5.407   5.651  16.076  0.00  0.00    +0.000 A 
ATOM     20  C   UNL     1       6.395   5.405  17.038  0.00  0.00    +0.000 A 
ATOM     21  C   UNL     1       6.029   5.156  18.372  0.00  0.00    +0.000 A 
ATOM     22  C   UNL     1       4.672   5.193  18.712  0.00  0.00    +0.000 A 
BRANCH  20  23
ATOM     23  O   UNL     1       7.663   5.382  16.513  0.00  0.00    +0.000 OA
ATOM     24  C   UNL     1       7.764   5.068  15.130  0.00  0.00    +0.000 C 
ENDBRANCH  20  23
BRANCH  21  25
ATOM     25  O   UNL     1       7.015   4.852  19.272  0.00  0.00    +0.000 OA
ATOM     26  C   UNL     1       7.937   5.877  19.625  0.00  0.00    +0.000 C 
ENDBRANCH  21  25
ENDBRANCH  10  17
BRANCH   1  27
ATOM     27  C   UNL     1       2.079   7.982  18.316  0.00  0.00    +0.000 C 
ATOM     28  O   UNL     1       3.162   8.526  18.162  0.00  0.00    +0.000 OA
BRANCH  27  29
ATOM     29  O   UNL     1       0.899   8.486  17.861  0.00  0.00    +0.000 OA
BRANCH  29  31
ATOM     30  C   UNL     1      -0.793  10.220  18.244  0.00  0.00    +0.000 C 
ATOM     31  C   UNL     1       0.686   9.881  18.143  0.00  0.00    +0.000 C 
ENDBRANCH  29  31
ENDBRANCH  27  29
ENDBRANCH   1  27
TORSDOF 7
ENDMDL
MODEL 6
REMARK VINA RESULT:      -5.9      3.270      5.110
REMARK  Name = 
REMARK  10 active torsions:
REMARK  status: ('A' for Active; 'I' for Inactive)
REMARK    1  A    between atoms: C_1  and  C_2
REMARK    2  A    between atoms: C_2  and  O_3
REMARK    3  A    between atoms: O_3  and  C_4
REMARK    4  A    between atoms: C_4  and  C_6
REMARK    5  A    between atoms: C_7  and  C_8
REMARK    6  A    between atoms: C_21  and  C_22
REMARK    7  A    between atoms: C_25  and  O_26
REMARK    8  A    between atoms: O_26  and  C_27
REMARK    9  A    between atoms: C_28  and  O_29
REMARK   10  A    between atoms: O_29  and  C_30
REMARK                            x       y       z     vdW  Elec       q    Type
REMARK                         _______ _______ _______ _____ _____    ______ ____
ROOT
ATOM      1  C   UNL     1      -2.022  12.274  21.629  0.00  0.00    +0.000 C 
ATOM      2  C   UNL     1      -1.947  12.180  20.283  0.00  0.00    +0.000 C 
ATOM      3  N   UNL     1      -3.040  12.325  19.455  0.00  0.00    +0.000 NA
ATOM      4  C   UNL     1      -4.188  12.499  20.006  0.00  0.00    +0.000 C 
ATOM      5  S   UNL     1      -5.642  12.657  19.078  0.00  0.00    +0.000 S 
ATOM      6  C   UNL     1      -6.672  12.828  20.553  0.00  0.00    +0.000 C 
ATOM      7  C   UNL     1      -5.746  12.637  21.728  0.00  0.00    +0.000 C 
ATOM      8  O   UNL     1      -6.144  12.560  22.886  0.00  0.00    +0.000 OA
ATOM      9  N   UNL     1      -4.431  12.567  21.338  0.00  0.00    +0.000 N 
ATOM     10  C   UNL     1      -3.339  12.556  22.298  0.00  0.00    +0.000 C 
ENDROOT
BRANCH   2  11
ATOM     11  C   UNL     1      -0.675  11.904  19.585  0.00  0.00    +0.000 A 
ATOM     12  C   UNL     1      -0.326  10.591  19.249  0.00  0.00    +0.000 A 
ATOM     13  C   UNL     1       0.904  10.324  18.644  0.00  0.00    +0.000 A 
ATOM     14  C   UNL     1       1.786  11.369  18.369  0.00  0.00    +0.000 A 
ATOM     15  C   UNL     1       1.437  12.681  18.684  0.00  0.00    +0.000 A 
ATOM     16  C   UNL     1       0.206  12.951  19.283  0.00  0.00    +0.000 A 
ENDBRANCH   2  11
BRANCH  10  17
ATOM     17  C   UNL     1      -3.310  13.883  23.051  0.00  0.00    +0.000 A 
ATOM     18  C   UNL     1      -3.422  13.939  24.444  0.00  0.00    +0.000 A 
ATOM     19  C   UNL     1      -3.407  15.170  25.091  0.00  0.00    +0.000 A 
ATOM     20  C   UNL     1      -3.274  16.363  24.368  0.00  0.00    +0.000 A 
ATOM     21  C   UNL     1      -3.174  16.327  22.967  0.00  0.00    +0.000 A 
ATOM     22  C   UNL     1      -3.177  15.082  22.327  0.00  0.00    +0.000 A 
BRANCH  20  23
ATOM     23  O   UNL     1      -3.318  17.481  25.163  0.00  0.00    +0.000 OA
ATOM     24  C   UNL     1      -4.610  18.011  25.431  0.00  0.00    +0.000 C 
ENDBRANCH  20  23
BRANCH  21  25
ATOM     25  O   UNL     1      -3.115  17.514  22.287  0.00  0.00    +0.000 OA
ATOM     26  C   UNL     1      -4.190  17.837  21.413  0.00  0.00    +0.000 C 
ENDBRANCH  21  25
ENDBRANCH  10  17
BRANCH   1  27
ATOM     27  C   UNL     1      -0.822  12.195  22.505  0.00  0.00    +0.000 C 
ATOM     28  O   UNL     1       0.029  13.064  22.613  0.00  0.00    +0.000 OA
BRANCH  27  29
ATOM     29  O   UNL     1      -0.823  11.034  23.217  0.00  0.00    +0.000 OA
BRANCH  29  31
ATOM     30  C   UNL     1      -0.524   8.774  22.313  0.00  0.00    +0.000 C 
ATOM     31  C   UNL     1       0.141  10.058  22.786  0.00  0.00    +0.000 C 
ENDBRANCH  29  31
ENDBRANCH  27  29
ENDBRANCH   1  27
TORSDOF 7
ENDMDL
MODEL 7
REMARK VINA RESULT:      -5.9      3.203      5.198
REMARK  Name = 
REMARK  10 active torsions:
REMARK  status: ('A' for Active; 'I' for Inactive)
REMARK    1  A    between atoms: C_1  and  C_2
REMARK    2  A    between atoms: C_2  and  O_3
REMARK    3  A    between atoms: O_3  and  C_4
REMARK    4  A    between atoms: C_4  and  C_6
REMARK    5  A    between atoms: C_7  and  C_8
REMARK    6  A    between atoms: C_21  and  C_22
REMARK    7  A    between atoms: C_25  and  O_26
REMARK    8  A    between atoms: O_26  and  C_27
REMARK    9  A    between atoms: C_28  and  O_29
REMARK   10  A    between atoms: O_29  and  C_30
REMARK                            x       y       z     vdW  Elec       q    Type
REMARK                         _______ _______ _______ _____ _____    ______ ____
ROOT
ATOM      1  C   UNL     1      -1.958  12.281  21.637  0.00  0.00    +0.000 C 
ATOM      2  C   UNL     1      -1.848  12.167  20.296  0.00  0.00    +0.000 C 
ATOM      3  N   UNL     1      -2.922  12.288  19.438  0.00  0.00    +0.000 NA
ATOM      4  C   UNL     1      -4.085  12.459  19.957  0.00  0.00    +0.000 C 
ATOM      5  S   UNL     1      -5.517  12.587  18.989  0.00  0.00    +0.000 S 
ATOM      6  C   UNL     1      -6.585  12.770  20.436  0.00  0.00    +0.000 C 
ATOM      7  C   UNL     1      -5.688  12.607  21.636  0.00  0.00    +0.000 C 
ATOM      8  O   UNL     1      -6.114  12.544  22.785  0.00  0.00    +0.000 OA
ATOM      9  N   UNL     1      -4.362  12.545  21.281  0.00  0.00    +0.000 N 
ATOM     10  C   UNL     1      -3.295  12.559  22.268  0.00  0.00    +0.000 C 
ENDROOT
BRANCH   2  11
ATOM     11  C   UNL     1      -0.557  11.894  19.634  0.00  0.00    +0.000 A 
ATOM     12  C   UNL     1       0.280  12.951  19.258  0.00  0.00    +0.000 A 
ATOM     13  C   UNL     1       1.472  12.695  18.576  0.00  0.00    +0.000 A 
ATOM     14  C   UNL     1       1.833  11.382  18.274  0.00  0.00    +0.000 A 
ATOM     15  C   UNL     1       1.013  10.323  18.661  0.00  0.00    +0.000 A 
ATOM     16  C   UNL     1      -0.175  10.576  19.347  0.00  0.00    +0.000 A 
ENDBRANCH   2  11
BRANCH  10  17
ATOM     17  C   UNL     1      -3.298  13.898  23.001  0.00  0.00    +0.000 A 
ATOM     18  C   UNL     1      -3.415  13.973  24.393  0.00  0.00    +0.000 A 
ATOM     19  C   UNL     1      -3.430  15.214  25.021  0.00  0.00    +0.000 A 
ATOM     20  C   UNL     1      -3.323  16.398  24.280  0.00  0.00    +0.000 A 
ATOM     21  C   UNL     1      -3.218  16.343  22.879  0.00  0.00    +0.000 A 
ATOM     22  C   UNL     1      -3.192  15.089  22.259  0.00  0.00    +0.000 A 
BRANCH  20  23
ATOM     23  O   UNL     1      -3.394  17.526  25.057  0.00  0.00    +0.000 OA
ATOM     24  C   UNL     1      -4.699  17.962  25.414  0.00  0.00    +0.000 C 
ENDBRANCH  20  23
BRANCH  21  25
ATOM     25  O   UNL     1      -3.185  17.521  22.182  0.00  0.00    +0.000 OA
ATOM     26  C   UNL     1      -1.912  18.060  21.843  0.00  0.00    +0.000 C 
ENDBRANCH  21  25
ENDBRANCH  10  17
BRANCH   1  27
ATOM     27  C   UNL     1      -0.780  12.227  22.545  0.00  0.00    +0.000 C 
ATOM     28  O   UNL     1       0.141  13.029  22.550  0.00  0.00    +0.000 OA
BRANCH  27  29
ATOM     29  O   UNL     1      -0.890  11.184  23.412  0.00  0.00    +0.000 OA
BRANCH  29  31
ATOM     30  C   UNL     1       0.716   9.437  22.791  0.00  0.00    +0.000 C 
ATOM     31  C   UNL     1      -0.739   9.883  22.817  0.00  0.00    +0.000 C 
ENDBRANCH  29  31
ENDBRANCH  27  29
ENDBRANCH   1  27
TORSDOF 7
ENDMDL
MODEL 8
REMARK VINA RESULT:      -5.9      2.457      6.571
REMARK  Name = 
REMARK  10 active torsions:
REMARK  status: ('A' for Active; 'I' for Inactive)
REMARK    1  A    between atoms: C_1  and  C_2
REMARK    2  A    between atoms: C_2  and  O_3
REMARK    3  A    between atoms: O_3  and  C_4
REMARK    4  A    between atoms: C_4  and  C_6
REMARK    5  A    between atoms: C_7  and  C_8
REMARK    6  A    between atoms: C_21  and  C_22
REMARK    7  A    between atoms: C_25  and  O_26
REMARK    8  A    between atoms: O_26  and  C_27
REMARK    9  A    between atoms: C_28  and  O_29
REMARK   10  A    between atoms: O_29  and  C_30
REMARK                            x       y       z     vdW  Elec       q    Type
REMARK                         _______ _______ _______ _____ _____    ______ ____
ROOT
ATOM      1  C   UNL     1      -0.574  13.397  21.897  0.00  0.00    +0.000 C 
ATOM      2  C   UNL     1      -0.891  14.686  22.146  0.00  0.00    +0.000 C 
ATOM      3  N   UNL     1      -0.309  15.746  21.483  0.00  0.00    +0.000 NA
ATOM      4  C   UNL     1       0.618  15.483  20.632  0.00  0.00    +0.000 C 
ATOM      5  S   UNL     1       1.452  16.728  19.763  0.00  0.00    +0.000 S 
ATOM      6  C   UNL     1       2.503  15.542  18.894  0.00  0.00    +0.000 C 
ATOM      7  C   UNL     1       2.160  14.189  19.466  0.00  0.00    +0.000 C 
ATOM      8  O   UNL     1       2.785  13.170  19.191  0.00  0.00    +0.000 OA
ATOM      9  N   UNL     1       1.078  14.249  20.311  0.00  0.00    +0.000 N 
ATOM     10  C   UNL     1       0.452  13.054  20.852  0.00  0.00    +0.000 C 
ENDROOT
BRANCH   2  11
ATOM     11  C   UNL     1      -1.891  15.067  23.163  0.00  0.00    +0.000 A 
ATOM     12  C   UNL     1      -3.175  15.465  22.774  0.00  0.00    +0.000 A 
ATOM     13  C   UNL     1      -4.101  15.884  23.733  0.00  0.00    +0.000 A 
ATOM     14  C   UNL     1      -3.746  15.904  25.082  0.00  0.00    +0.000 A 
ATOM     15  C   UNL     1      -2.474  15.493  25.477  0.00  0.00    +0.000 A 
ATOM     16  C   UNL     1      -1.550  15.067  24.523  0.00  0.00    +0.000 A 
ENDBRANCH   2  11
BRANCH  10  17
ATOM     17  C   UNL     1      -0.161  12.242  19.714  0.00  0.00    +0.000 A 
ATOM     18  C   UNL     1      -1.331  12.654  19.065  0.00  0.00    +0.000 A 
ATOM     19  C   UNL     1      -1.866  11.876  18.045  0.00  0.00    +0.000 A 
ATOM     20  C   UNL     1      -1.248  10.683  17.648  0.00  0.00    +0.000 A 
ATOM     21  C   UNL     1      -0.081  10.246  18.297  0.00  0.00    +0.000 A 
ATOM     22  C   UNL     1       0.456  11.043  19.315  0.00  0.00    +0.000 A 
BRANCH  20  23
ATOM     23  O   UNL     1      -1.934  10.027  16.656  0.00  0.00    +0.000 OA
ATOM     24  C   UNL     1      -2.859  10.808  15.910  0.00  0.00    +0.000 C 
ENDBRANCH  20  23
BRANCH  21  25
ATOM     25  O   UNL     1       0.457   9.041  17.931  0.00  0.00    +0.000 OA
ATOM     26  C   UNL     1       1.875   8.934  17.872  0.00  0.00    +0.000 C 
ENDBRANCH  21  25
ENDBRANCH  10  17
BRANCH   1  27
ATOM     27  C   UNL     1      -1.266  12.259  22.563  0.00  0.00    +0.000 C 
ATOM     28  O   UNL     1      -2.466  12.039  22.513  0.00  0.00    +0.000 OA
BRANCH  27  29
ATOM     29  O   UNL     1      -0.368  11.460  23.202  0.00  0.00    +0.000 OA
BRANCH  29  31
ATOM     30  C   UNL     1       0.581   9.294  22.550  0.00  0.00    +0.000 C 
ATOM     31  C   UNL     1      -0.625  10.048  23.088  0.00  0.00    +0.000 C 
ENDBRANCH  29  31
ENDBRANCH  27  29
ENDBRANCH   1  27
TORSDOF 7
ENDMDL
MODEL 9
REMARK VINA RESULT:      -5.8      3.152      5.127
REMARK  Name = 
REMARK  10 active torsions:
REMARK  status: ('A' for Active; 'I' for Inactive)
REMARK    1  A    between atoms: C_1  and  C_2
REMARK    2  A    between atoms: C_2  and  O_3
REMARK    3  A    between atoms: O_3  and  C_4
REMARK    4  A    between atoms: C_4  and  C_6
REMARK    5  A    between atoms: C_7  and  C_8
REMARK    6  A    between atoms: C_21  and  C_22
REMARK    7  A    between atoms: C_25  and  O_26
REMARK    8  A    between atoms: O_26  and  C_27
REMARK    9  A    between atoms: C_28  and  O_29
REMARK   10  A    between atoms: O_29  and  C_30
REMARK                            x       y       z     vdW  Elec       q    Type
REMARK                         _______ _______ _______ _____ _____    ______ ____
ROOT
ATOM      1  C   UNL     1      -1.595  12.090  21.203  0.00  0.00    +0.000 C 
ATOM      2  C   UNL     1      -1.563  11.800  19.885  0.00  0.00    +0.000 C 
ATOM      3  N   UNL     1      -2.673  11.869  19.069  0.00  0.00    +0.000 NA
ATOM      4  C   UNL     1      -3.797  12.169  19.616  0.00  0.00    +0.000 C 
ATOM      5  S   UNL     1      -5.271  12.251  18.707  0.00  0.00    +0.000 S 
ATOM      6  C   UNL     1      -6.250  12.676  20.166  0.00  0.00    +0.000 C 
ATOM      7  C   UNL     1      -5.299  12.619  21.334  0.00  0.00    +0.000 C 
ATOM      8  O   UNL     1      -5.667  12.725  22.500  0.00  0.00    +0.000 OA
ATOM      9  N   UNL     1      -3.999  12.438  20.929  0.00  0.00    +0.000 N 
ATOM     10  C   UNL     1      -2.882  12.520  21.855  0.00  0.00    +0.000 C 
ENDROOT
BRANCH   2  11
ATOM     11  C   UNL     1      -0.323  11.373  19.205  0.00  0.00    +0.000 A 
ATOM     12  C   UNL     1      -0.095  10.017  18.942  0.00  0.00    +0.000 A 
ATOM     13  C   UNL     1       1.105   9.608  18.354  0.00  0.00    +0.000 A 
ATOM     14  C   UNL     1       2.077  10.553  18.025  0.00  0.00    +0.000 A 
ATOM     15  C   UNL     1       1.848  11.907  18.268  0.00  0.00    +0.000 A 
ATOM     16  C   UNL     1       0.648  12.318  18.849  0.00  0.00    +0.000 A 
ENDBRANCH   2  11
BRANCH  10  17
ATOM     17  C   UNL     1      -2.780  13.939  22.406  0.00  0.00    +0.000 A 
ATOM     18  C   UNL     1      -2.714  15.052  21.561  0.00  0.00    +0.000 A 
ATOM     19  C   UNL     1      -2.605  16.328  22.103  0.00  0.00    +0.000 A 
ATOM     20  C   UNL     1      -2.566  16.520  23.491  0.00  0.00    +0.000 A 
ATOM     21  C   UNL     1      -2.617  15.413  24.355  0.00  0.00    +0.000 A 
ATOM     22  C   UNL     1      -2.739  14.135  23.798  0.00  0.00    +0.000 A 
BRANCH  20  23
ATOM     23  O   UNL     1      -2.418  17.838  23.846  0.00  0.00    +0.000 OA
ATOM     24  C   UNL     1      -1.145  18.418  23.592  0.00  0.00    +0.000 C 
ENDBRANCH  20  23
BRANCH  21  25
ATOM     25  O   UNL     1      -2.506  15.633  25.702  0.00  0.00    +0.000 OA
ATOM     26  C   UNL     1      -1.200  15.697  26.263  0.00  0.00    +0.000 C 
ENDBRANCH  21  25
ENDBRANCH  10  17
BRANCH   1  27
ATOM     27  C   UNL     1      -0.374  12.088  22.055  0.00  0.00    +0.000 C 
ATOM     28  O   UNL     1       0.588  12.824  21.905  0.00  0.00    +0.000 OA
BRANCH  27  29
ATOM     29  O   UNL     1      -0.495  11.181  23.064  0.00  0.00    +0.000 OA
BRANCH  29  31
ATOM     30  C   UNL     1       0.953   9.316  22.399  0.00  0.00    +0.000 C 
ATOM     31  C   UNL     1      -0.466   9.804  22.648  0.00  0.00    +0.000 C 
ENDBRANCH  29  31
ENDBRANCH  27  29
ENDBRANCH   1  27
TORSDOF 7
ENDMDL
