MODEL 1
REMARK VINA RESULT:      -7.7      0.000      0.000
REMARK  Name = 
REMARK  6 active torsions:
REMARK  status: ('A' for Active; 'I' for Inactive)
REMARK    1  A    between atoms: C_1  and  C_2
REMARK    2  A    between atoms: C_2  and  C_3
REMARK    3  A    between atoms: C_3  and  C_4
REMARK    4  A    between atoms: C_7  and  N_8
REMARK    5  A    between atoms: N_8  and  C_9
REMARK    6  A    between atoms: C_11  and  C_12
REMARK                            x       y       z     vdW  Elec       q    Type
REMARK                         _______ _______ _______ _____ _____    ______ ____
ROOT
ATOM      1  N   UNL     1       3.618   6.753  17.208  0.00  0.00    +0.000 N 
ATOM      2  H   UNL     1       3.348   7.708  17.421  0.00  0.00    +0.000 HD
ENDROOT
BRANCH   1   3
ATOM      3  C   UNL     1       4.982   6.632  16.989  0.00  0.00    +0.000 A 
ATOM      4  N   UNL     1       5.875   7.559  17.490  0.00  0.00    +0.000 N 
ATOM      5  C   UNL     1       7.240   7.442  17.319  0.00  0.00    +0.000 A 
ATOM      6  C   UNL     1       8.124   8.474  17.973  0.00  0.00    +0.000 C 
ATOM      7  N   UNL     1       7.816   6.502  16.633  0.00  0.00    +0.000 NA
ATOM      8  C   UNL     1       6.979   5.584  16.067  0.00  0.00    +0.000 A 
ATOM      9  N   UNL     1       7.340   4.571  15.325  0.00  0.00    +0.000 NA
ATOM     10  C   UNL     1       6.138   3.945  15.008  0.00  0.00    +0.000 A 
ATOM     11  C   UNL     1       5.035   4.519  15.525  0.00  0.00    +0.000 A 
ATOM     12  C   UNL     1       5.518   5.645  16.260  0.00  0.00    +0.000 A 
ATOM     13  H   UNL     1       5.501   8.264  18.108  0.00  0.00    +0.000 HD
ENDBRANCH   1   3
BRANCH   1  17
ATOM     14  C   UNL     1       1.564   4.148  19.851  0.00  0.00    +0.000 A 
ATOM     15  C   UNL     1       1.576   3.881  18.477  0.00  0.00    +0.000 A 
ATOM     16  C   UNL     1       2.240   4.733  17.592  0.00  0.00    +0.000 A 
ATOM     17  C   UNL     1       2.891   5.881  18.059  0.00  0.00    +0.000 A 
ATOM     18  C   UNL     1       2.882   6.144  19.434  0.00  0.00    +0.000 A 
ATOM     19  C   UNL     1       2.217   5.293  20.321  0.00  0.00    +0.000 A 
BRANCH  14  20
ATOM     20  C   UNL     1       0.856   3.216  20.805  0.00  0.00    +0.000 C 
BRANCH  20  22
ATOM     21  C   UNL     1       3.131   2.246  21.302  0.00  0.00    +0.000 C 
ATOM     22  C   UNL     1       1.795   2.674  21.886  0.00  0.00    +0.000 C 
ENDBRANCH  20  22
ENDBRANCH  14  20
ENDBRANCH   1  17
TORSDOF 4
ENDMDL
MODEL 2
REMARK VINA RESULT:      -7.6      3.421      5.446
REMARK  Name = 
REMARK  6 active torsions:
REMARK  status: ('A' for Active; 'I' for Inactive)
REMARK    1  A    between atoms: C_1  and  C_2
REMARK    2  A    between atoms: C_2  and  C_3
REMARK    3  A    between atoms: C_3  and  C_4
REMARK    4  A    between atoms: C_7  and  N_8
REMARK    5  A    between atoms: N_8  and  C_9
REMARK    6  A    between atoms: C_11  and  C_12
REMARK                            x       y       z     vdW  Elec       q    Type
REMARK                         _______ _______ _______ _____ _____    ______ ____
ROOT
ATOM      1  N   UNL     1       2.997   6.317  19.997  0.00  0.00    +0.000 N 
ATOM      2  H   UNL     1       2.591   5.945  20.850  0.00  0.00    +0.000 HD
ENDROOT
BRANCH   1   3
ATOM      3  C   UNL     1       3.323   5.317  19.094  0.00  0.00    +0.000 A 
ATOM      4  N   UNL     1       4.489   5.367  18.357  0.00  0.00    +0.000 N 
ATOM      5  C   UNL     1       4.857   4.367  17.480  0.00  0.00    +0.000 A 
ATOM      6  C   UNL     1       6.189   4.492  16.784  0.00  0.00    +0.000 C 
ATOM      7  N   UNL     1       4.133   3.322  17.214  0.00  0.00    +0.000 NA
ATOM      8  C   UNL     1       2.941   3.243  17.873  0.00  0.00    +0.000 A 
ATOM      9  N   UNL     1       2.053   2.294  17.744  0.00  0.00    +0.000 NA
ATOM     10  C   UNL     1       1.039   2.663  18.623  0.00  0.00    +0.000 A 
ATOM     11  C   UNL     1       1.254   3.805  19.304  0.00  0.00    +0.000 A 
ATOM     12  C   UNL     1       2.528   4.267  18.852  0.00  0.00    +0.000 A 
ATOM     13  H   UNL     1       5.140   6.106  18.583  0.00  0.00    +0.000 HD
ENDBRANCH   1   3
BRANCH   1  17
ATOM     14  C   UNL     1       0.724   9.752  18.978  0.00  0.00    +0.000 A 
ATOM     15  C   UNL     1       1.515   9.125  18.008  0.00  0.00    +0.000 A 
ATOM     16  C   UNL     1       2.276   7.999  18.330  0.00  0.00    +0.000 A 
ATOM     17  C   UNL     1       2.277   7.485  19.632  0.00  0.00    +0.000 A 
ATOM     18  C   UNL     1       1.482   8.111  20.599  0.00  0.00    +0.000 A 
ATOM     19  C   UNL     1       0.721   9.239  20.280  0.00  0.00    +0.000 A 
BRANCH  14  20
ATOM     20  C   UNL     1      -0.107  10.960  18.623  0.00  0.00    +0.000 C 
BRANCH  20  22
ATOM     21  C   UNL     1      -1.919   9.994  17.158  0.00  0.00    +0.000 C 
ATOM     22  C   UNL     1      -1.596  10.623  18.503  0.00  0.00    +0.000 C 
ENDBRANCH  20  22
ENDBRANCH  14  20
ENDBRANCH   1  17
TORSDOF 4
ENDMDL
MODEL 3
REMARK VINA RESULT:      -7.5      3.442      5.756
REMARK  Name = 
REMARK  6 active torsions:
REMARK  status: ('A' for Active; 'I' for Inactive)
REMARK    1  A    between atoms: C_1  and  C_2
REMARK    2  A    between atoms: C_2  and  C_3
REMARK    3  A    between atoms: C_3  and  C_4
REMARK    4  A    between atoms: C_7  and  N_8
REMARK    5  A    between atoms: N_8  and  C_9
REMARK    6  A    between atoms: C_11  and  C_12
REMARK                            x       y       z     vdW  Elec       q    Type
REMARK                         _______ _______ _______ _____ _____    ______ ____
ROOT
ATOM      1  N   UNL     1       3.118   6.350  19.800  0.00  0.00    +0.000 N 
ATOM      2  H   UNL     1       3.016   6.074  20.772  0.00  0.00    +0.000 HD
ENDROOT
BRANCH   1   3
ATOM      3  C   UNL     1       3.178   5.256  18.949  0.00  0.00    +0.000 A 
ATOM      4  N   UNL     1       4.149   5.157  17.973  0.00  0.00    +0.000 N 
ATOM      5  C   UNL     1       4.254   4.063  17.139  0.00  0.00    +0.000 A 
ATOM      6  C   UNL     1       5.399   4.030  16.158  0.00  0.00    +0.000 C 
ATOM      7  N   UNL     1       3.434   3.056  17.142  0.00  0.00    +0.000 NA
ATOM      8  C   UNL     1       2.418   3.121  18.052  0.00  0.00    +0.000 A 
ATOM      9  N   UNL     1       1.474   2.234  18.214  0.00  0.00    +0.000 NA
ATOM     10  C   UNL     1       0.706   2.750  19.254  0.00  0.00    +0.000 A 
ATOM     11  C   UNL     1       1.130   3.925  19.756  0.00  0.00    +0.000 A 
ATOM     12  C   UNL     1       2.293   4.251  18.992  0.00  0.00    +0.000 A 
ATOM     13  H   UNL     1       4.872   5.862  17.977  0.00  0.00    +0.000 HD
ENDBRANCH   1   3
BRANCH   1  17
ATOM     14  C   UNL     1       0.727   9.765  19.013  0.00  0.00    +0.000 A 
ATOM     15  C   UNL     1       0.743   9.204  20.295  0.00  0.00    +0.000 A 
ATOM     16  C   UNL     1       1.518   8.075  20.569  0.00  0.00    +0.000 A 
ATOM     17  C   UNL     1       2.279   7.470  19.562  0.00  0.00    +0.000 A 
ATOM     18  C   UNL     1       2.266   8.034  18.281  0.00  0.00    +0.000 A 
ATOM     19  C   UNL     1       1.490   9.164  18.005  0.00  0.00    +0.000 A 
BRANCH  14  20
ATOM     20  C   UNL     1      -0.101  10.993  18.725  0.00  0.00    +0.000 C 
BRANCH  20  22
ATOM     21  C   UNL     1      -1.962  10.154  17.242  0.00  0.00    +0.000 C 
ATOM     22  C   UNL     1      -1.595  10.672  18.623  0.00  0.00    +0.000 C 
ENDBRANCH  20  22
ENDBRANCH  14  20
ENDBRANCH   1  17
TORSDOF 4
ENDMDL
MODEL 4
REMARK VINA RESULT:      -7.5      2.374      6.313
REMARK  Name = 
REMARK  6 active torsions:
REMARK  status: ('A' for Active; 'I' for Inactive)
REMARK    1  A    between atoms: C_1  and  C_2
REMARK    2  A    between atoms: C_2  and  C_3
REMARK    3  A    between atoms: C_3  and  C_4
REMARK    4  A    between atoms: C_7  and  N_8
REMARK    5  A    between atoms: N_8  and  C_9
REMARK    6  A    between atoms: C_11  and  C_12
REMARK                            x       y       z     vdW  Elec       q    Type
REMARK                         _______ _______ _______ _____ _____    ______ ____
ROOT
ATOM      1  N   UNL     1       5.330   5.410  18.964  0.00  0.00    +0.000 N 
ATOM      2  H   UNL     1       5.699   6.293  19.302  0.00  0.00    +0.000 HD
ENDROOT
BRANCH   1   3
ATOM      3  C   UNL     1       4.039   5.176  19.413  0.00  0.00    +0.000 A 
ATOM      4  N   UNL     1       3.283   6.183  19.980  0.00  0.00    +0.000 N 
ATOM      5  C   UNL     1       1.983   5.988  20.401  0.00  0.00    +0.000 A 
ATOM      6  C   UNL     1       1.228   7.178  20.938  0.00  0.00    +0.000 C 
ATOM      7  N   UNL     1       1.363   4.847  20.364  0.00  0.00    +0.000 NA
ATOM      8  C   UNL     1       2.079   3.799  19.861  0.00  0.00    +0.000 A 
ATOM      9  N   UNL     1       1.662   2.567  19.750  0.00  0.00    +0.000 NA
ATOM     10  C   UNL     1       2.741   1.899  19.181  0.00  0.00    +0.000 A 
ATOM     11  C   UNL     1       3.822   2.661  18.925  0.00  0.00    +0.000 A 
ATOM     12  C   UNL     1       3.456   3.972  19.360  0.00  0.00    +0.000 A 
ATOM     13  H   UNL     1       3.672   7.114  19.956  0.00  0.00    +0.000 HD
ENDBRANCH   1   3
BRANCH   1  17
ATOM     14  C   UNL     1       6.341   4.919  14.873  0.00  0.00    +0.000 A 
ATOM     15  C   UNL     1       7.075   4.248  15.859  0.00  0.00    +0.000 A 
ATOM     16  C   UNL     1       6.761   4.406  17.211  0.00  0.00    +0.000 A 
ATOM     17  C   UNL     1       5.718   5.251  17.608  0.00  0.00    +0.000 A 
ATOM     18  C   UNL     1       4.983   5.917  16.620  0.00  0.00    +0.000 A 
ATOM     19  C   UNL     1       5.296   5.762  15.267  0.00  0.00    +0.000 A 
BRANCH  14  20
ATOM     20  C   UNL     1       6.676   4.735  13.413  0.00  0.00    +0.000 C 
BRANCH  20  22
ATOM     21  C   UNL     1       5.005   3.507  11.976  0.00  0.00    +0.000 C 
ATOM     22  C   UNL     1       6.218   3.374  12.882  0.00  0.00    +0.000 C 
ENDBRANCH  20  22
ENDBRANCH  14  20
ENDBRANCH   1  17
TORSDOF 4
ENDMDL
MODEL 5
REMARK VINA RESULT:      -7.5      2.358      6.413
REMARK  Name = 
REMARK  6 active torsions:
REMARK  status: ('A' for Active; 'I' for Inactive)
REMARK    1  A    between atoms: C_1  and  C_2
REMARK    2  A    between atoms: C_2  and  C_3
REMARK    3  A    between atoms: C_3  and  C_4
REMARK    4  A    between atoms: C_7  and  N_8
REMARK    5  A    between atoms: N_8  and  C_9
REMARK    6  A    between atoms: C_11  and  C_12
REMARK                            x       y       z     vdW  Elec       q    Type
REMARK                         _______ _______ _______ _____ _____    ______ ____
ROOT
ATOM      1  N   UNL     1       5.232   4.765  19.223  0.00  0.00    +0.000 N 
ATOM      2  H   UNL     1       5.915   5.404  19.619  0.00  0.00    +0.000 HD
ENDROOT
BRANCH   1   3
ATOM      3  C   UNL     1       3.949   5.023  19.680  0.00  0.00    +0.000 A 
ATOM      4  N   UNL     1       3.463   6.313  19.769  0.00  0.00    +0.000 N 
ATOM      5  C   UNL     1       2.178   6.595  20.184  0.00  0.00    +0.000 A 
ATOM      6  C   UNL     1       1.731   8.035  20.171  0.00  0.00    +0.000 C 
ATOM      7  N   UNL     1       1.323   5.703  20.584  0.00  0.00    +0.000 NA
ATOM      8  C   UNL     1       1.765   4.411  20.571  0.00  0.00    +0.000 A 
ATOM      9  N   UNL     1       1.083   3.362  20.947  0.00  0.00    +0.000 NA
ATOM     10  C   UNL     1       1.958   2.302  20.734  0.00  0.00    +0.000 A 
ATOM     11  C   UNL     1       3.162   2.639  20.234  0.00  0.00    +0.000 A 
ATOM     12  C   UNL     1       3.115   4.060  20.093  0.00  0.00    +0.000 A 
ATOM     13  H   UNL     1       4.043   7.046  19.387  0.00  0.00    +0.000 HD
ENDBRANCH   1   3
BRANCH   1  17
ATOM     14  C   UNL     1       6.247   4.317  15.128  0.00  0.00    +0.000 A 
ATOM     15  C   UNL     1       4.911   4.208  15.533  0.00  0.00    +0.000 A 
ATOM     16  C   UNL     1       4.561   4.345  16.878  0.00  0.00    +0.000 A 
ATOM     17  C   UNL     1       5.541   4.574  17.851  0.00  0.00    +0.000 A 
ATOM     18  C   UNL     1       6.876   4.687  17.444  0.00  0.00    +0.000 A 
ATOM     19  C   UNL     1       7.228   4.549  16.099  0.00  0.00    +0.000 A 
BRANCH  14  20
ATOM     20  C   UNL     1       6.618   4.182  13.672  0.00  0.00    +0.000 C 
BRANCH  20  22
ATOM     21  C   UNL     1       5.844   2.641  11.830  0.00  0.00    +0.000 C 
ATOM     22  C   UNL     1       5.435   3.726  12.813  0.00  0.00    +0.000 C 
ENDBRANCH  20  22
ENDBRANCH  14  20
ENDBRANCH   1  17
TORSDOF 4
ENDMDL
MODEL 6
REMARK VINA RESULT:      -7.4      2.127      3.198
REMARK  Name = 
REMARK  6 active torsions:
REMARK  status: ('A' for Active; 'I' for Inactive)
REMARK    1  A    between atoms: C_1  and  C_2
REMARK    2  A    between atoms: C_2  and  C_3
REMARK    3  A    between atoms: C_3  and  C_4
REMARK    4  A    between atoms: C_7  and  N_8
REMARK    5  A    between atoms: N_8  and  C_9
REMARK    6  A    between atoms: C_11  and  C_12
REMARK                            x       y       z     vdW  Elec       q    Type
REMARK                         _______ _______ _______ _____ _____    ______ ____
ROOT
ATOM      1  N   UNL     1       3.875   5.404  17.690  0.00  0.00    +0.000 N 
ATOM      2  H   UNL     1       3.289   4.944  16.999  0.00  0.00    +0.000 HD
ENDROOT
BRANCH   1   3
ATOM      3  C   UNL     1       5.126   5.725  17.184  0.00  0.00    +0.000 A 
ATOM      4  N   UNL     1       5.924   6.675  17.791  0.00  0.00    +0.000 N 
ATOM      5  C   UNL     1       7.187   6.986  17.331  0.00  0.00    +0.000 A 
ATOM      6  C   UNL     1       7.997   7.986  18.116  0.00  0.00    +0.000 C 
ATOM      7  N   UNL     1       7.727   6.475  16.266  0.00  0.00    +0.000 NA
ATOM      8  C   UNL     1       6.963   5.567  15.591  0.00  0.00    +0.000 A 
ATOM      9  N   UNL     1       7.298   4.947  14.492  0.00  0.00    +0.000 NA
ATOM     10  C   UNL     1       6.201   4.137  14.217  0.00  0.00    +0.000 A 
ATOM     11  C   UNL     1       5.189   4.217  15.102  0.00  0.00    +0.000 A 
ATOM     12  C   UNL     1       5.625   5.172  16.072  0.00  0.00    +0.000 A 
ATOM     13  H   UNL     1       5.602   7.044  18.674  0.00  0.00    +0.000 HD
ENDBRANCH   1   3
BRANCH   1  17
ATOM     14  C   UNL     1       1.580   8.264  19.822  0.00  0.00    +0.000 A 
ATOM     15  C   UNL     1       1.860   7.021  20.403  0.00  0.00    +0.000 A 
ATOM     16  C   UNL     1       2.607   6.065  19.710  0.00  0.00    +0.000 A 
ATOM     17  C   UNL     1       3.074   6.323  18.416  0.00  0.00    +0.000 A 
ATOM     18  C   UNL     1       2.796   7.568  17.839  0.00  0.00    +0.000 A 
ATOM     19  C   UNL     1       2.048   8.526  18.530  0.00  0.00    +0.000 A 
BRANCH  14  20
ATOM     20  C   UNL     1       0.784   9.299  20.579  0.00  0.00    +0.000 C 
BRANCH  20  22
ATOM     21  C   UNL     1      -0.150   9.450  22.918  0.00  0.00    +0.000 C 
ATOM     22  C   UNL     1      -0.149   8.666  21.616  0.00  0.00    +0.000 C 
ENDBRANCH  20  22
ENDBRANCH  14  20
ENDBRANCH   1  17
TORSDOF 4
ENDMDL
MODEL 7
REMARK VINA RESULT:      -7.4      2.435      3.399
REMARK  Name = 
REMARK  6 active torsions:
REMARK  status: ('A' for Active; 'I' for Inactive)
REMARK    1  A    between atoms: C_1  and  C_2
REMARK    2  A    between atoms: C_2  and  C_3
REMARK    3  A    between atoms: C_3  and  C_4
REMARK    4  A    between atoms: C_7  and  N_8
REMARK    5  A    between atoms: N_8  and  C_9
REMARK    6  A    between atoms: C_11  and  C_12
REMARK                            x       y       z     vdW  Elec       q    Type
REMARK                         _______ _______ _______ _____ _____    ______ ____
ROOT
ATOM      1  N   UNL     1       3.510   5.315  17.720  0.00  0.00    +0.000 N 
ATOM      2  H   UNL     1       3.008   5.194  16.845  0.00  0.00    +0.000 HD
ENDROOT
BRANCH   1   3
ATOM      3  C   UNL     1       4.884   5.239  17.548  0.00  0.00    +0.000 A 
ATOM      4  N   UNL     1       5.754   5.519  18.583  0.00  0.00    +0.000 N 
ATOM      5  C   UNL     1       7.124   5.414  18.451  0.00  0.00    +0.000 A 
ATOM      6  C   UNL     1       7.973   5.673  19.669  0.00  0.00    +0.000 C 
ATOM      7  N   UNL     1       7.733   5.104  17.345  0.00  0.00    +0.000 NA
ATOM      8  C   UNL     1       6.926   4.868  16.270  0.00  0.00    +0.000 A 
ATOM      9  N   UNL     1       7.323   4.562  15.064  0.00  0.00    +0.000 NA
ATOM     10  C   UNL     1       6.139   4.415  14.349  0.00  0.00    +0.000 A 
ATOM     11  C   UNL     1       5.010   4.612  15.057  0.00  0.00    +0.000 A 
ATOM     12  C   UNL     1       5.456   4.926  16.378  0.00  0.00    +0.000 A 
ATOM     13  H   UNL     1       5.345   5.677  19.493  0.00  0.00    +0.000 HD
ENDBRANCH   1   3
BRANCH   1  17
ATOM     14  C   UNL     1       1.516   8.306  19.973  0.00  0.00    +0.000 A 
ATOM     15  C   UNL     1       1.968   8.592  18.679  0.00  0.00    +0.000 A 
ATOM     16  C   UNL     1       2.634   7.621  17.927  0.00  0.00    +0.000 A 
ATOM     17  C   UNL     1       2.879   6.350  18.459  0.00  0.00    +0.000 A 
ATOM     18  C   UNL     1       2.423   6.064  19.751  0.00  0.00    +0.000 A 
ATOM     19  C   UNL     1       1.758   7.035  20.506  0.00  0.00    +0.000 A 
BRANCH  14  20
ATOM     20  C   UNL     1       0.785   9.354  20.776  0.00  0.00    +0.000 C 
BRANCH  20  22
ATOM     21  C   UNL     1      -0.205   9.497  23.092  0.00  0.00    +0.000 C 
ATOM     22  C   UNL     1       1.047   9.217  22.279  0.00  0.00    +0.000 C 
ENDBRANCH  20  22
ENDBRANCH  14  20
ENDBRANCH   1  17
TORSDOF 4
ENDMDL
MODEL 8
REMARK VINA RESULT:      -7.3      2.388      4.009
REMARK  Name = 
REMARK  6 active torsions:
REMARK  status: ('A' for Active; 'I' for Inactive)
REMARK    1  A    between atoms: C_1  and  C_2
REMARK    2  A    between atoms: C_2  and  C_3
REMARK    3  A    between atoms: C_3  and  C_4
REMARK    4  A    between atoms: C_7  and  N_8
REMARK    5  A    between atoms: N_8  and  C_9
REMARK    6  A    between atoms: C_11  and  C_12
REMARK                            x       y       z     vdW  Elec       q    Type
REMARK                         _______ _______ _______ _____ _____    ______ ____
ROOT
ATOM      1  N   UNL     1       3.496   4.410  18.076  0.00  0.00    +0.000 N 
ATOM      2  H   UNL     1       2.808   3.932  17.502  0.00  0.00    +0.000 HD
ENDROOT
BRANCH   1   3
ATOM      3  C   UNL     1       4.727   4.508  17.444  0.00  0.00    +0.000 A 
ATOM      4  N   UNL     1       4.887   4.141  16.123  0.00  0.00    +0.000 N 
ATOM      5  C   UNL     1       6.090   4.264  15.458  0.00  0.00    +0.000 A 
ATOM      6  C   UNL     1       6.129   3.901  13.995  0.00  0.00    +0.000 C 
ATOM      7  N   UNL     1       7.193   4.673  16.008  0.00  0.00    +0.000 NA
ATOM      8  C   UNL     1       7.111   5.001  17.331  0.00  0.00    +0.000 A 
ATOM      9  N   UNL     1       8.095   5.414  18.083  0.00  0.00    +0.000 NA
ATOM     10  C   UNL     1       7.503   5.619  19.325  0.00  0.00    +0.000 A 
ATOM     11  C   UNL     1       6.184   5.355  19.386  0.00  0.00    +0.000 A 
ATOM     12  C   UNL     1       5.835   4.926  18.068  0.00  0.00    +0.000 A 
ATOM     13  H   UNL     1       4.049   3.901  15.611  0.00  0.00    +0.000 HD
ENDBRANCH   1   3
BRANCH   1  17
ATOM     14  C   UNL     1       1.724   7.786  19.936  0.00  0.00    +0.000 A 
ATOM     15  C   UNL     1       1.745   6.554  20.600  0.00  0.00    +0.000 A 
ATOM     16  C   UNL     1       2.317   5.431  19.998  0.00  0.00    +0.000 A 
ATOM     17  C   UNL     1       2.864   5.510  18.712  0.00  0.00    +0.000 A 
ATOM     18  C   UNL     1       2.845   6.744  18.051  0.00  0.00    +0.000 A 
ATOM     19  C   UNL     1       2.272   7.869  18.651  0.00  0.00    +0.000 A 
BRANCH  14  20
ATOM     20  C   UNL     1       1.117   9.001  20.595  0.00  0.00    +0.000 C 
BRANCH  20  22
ATOM     21  C   UNL     1       0.032   9.466  22.825  0.00  0.00    +0.000 C 
ATOM     22  C   UNL     1       1.284   8.975  22.117  0.00  0.00    +0.000 C 
ENDBRANCH  20  22
ENDBRANCH  14  20
ENDBRANCH   1  17
TORSDOF 4
ENDMDL
MODEL 9
REMARK VINA RESULT:      -7.3      2.396      3.976
REMARK  Name = 
REMARK  6 active torsions:
REMARK  status: ('A' for Active; 'I' for Inactive)
REMARK    1  A    between atoms: C_1  and  C_2
REMARK    2  A    between atoms: C_2  and  C_3
REMARK    3  A    between atoms: C_3  and  C_4
REMARK    4  A    between atoms: C_7  and  N_8
REMARK    5  A    between atoms: N_8  and  C_9
REMARK    6  A    between atoms: C_11  and  C_12
REMARK                            x       y       z     vdW  Elec       q    Type
REMARK                         _______ _______ _______ _____ _____    ______ ____
ROOT
ATOM      1  N   UNL     1       3.468   4.672  17.868  0.00  0.00    +0.000 N 
ATOM      2  H   UNL     1       2.767   4.280  17.247  0.00  0.00    +0.000 HD
ENDROOT
BRANCH   1   3
ATOM      3  C   UNL     1       4.734   4.660  17.301  0.00  0.00    +0.000 A 
ATOM      4  N   UNL     1       4.928   4.288  15.986  0.00  0.00    +0.000 N 
ATOM      5  C   UNL     1       6.171   4.304  15.386  0.00  0.00    +0.000 A 
ATOM      6  C   UNL     1       6.254   3.947  13.923  0.00  0.00    +0.000 C 
ATOM      7  N   UNL     1       7.277   4.607  15.996  0.00  0.00    +0.000 NA
ATOM      8  C   UNL     1       7.155   4.933  17.316  0.00  0.00    +0.000 A 
ATOM      9  N   UNL     1       8.133   5.251  18.122  0.00  0.00    +0.000 NA
ATOM     10  C   UNL     1       7.498   5.502  19.335  0.00  0.00    +0.000 A 
ATOM     11  C   UNL     1       6.159   5.359  19.325  0.00  0.00    +0.000 A 
ATOM     12  C   UNL     1       5.842   4.972  17.986  0.00  0.00    +0.000 A 
ATOM     13  H   UNL     1       4.101   4.129  15.430  0.00  0.00    +0.000 HD
ENDBRANCH   1   3
BRANCH   1  17
ATOM     14  C   UNL     1       1.700   8.000  19.816  0.00  0.00    +0.000 A 
ATOM     15  C   UNL     1       2.195   8.136  18.514  0.00  0.00    +0.000 A 
ATOM     16  C   UNL     1       2.788   7.052  17.862  0.00  0.00    +0.000 A 
ATOM     17  C   UNL     1       2.916   5.814  18.504  0.00  0.00    +0.000 A 
ATOM     18  C   UNL     1       2.416   5.680  19.804  0.00  0.00    +0.000 A 
ATOM     19  C   UNL     1       1.824   6.763  20.460  0.00  0.00    +0.000 A 
BRANCH  14  20
ATOM     20  C   UNL     1       1.048   9.170  20.512  0.00  0.00    +0.000 C 
BRANCH  20  22
ATOM     21  C   UNL     1      -0.392   9.157  22.583  0.00  0.00    +0.000 C 
ATOM     22  C   UNL     1       1.014   8.992  22.033  0.00  0.00    +0.000 C 
ENDBRANCH  20  22
ENDBRANCH  14  20
ENDBRANCH   1  17
TORSDOF 4
ENDMDL
