MODEL 1
REMARK VINA RESULT:      -9.2      0.000      0.000
REMARK  Name = 
REMARK  2 active torsions:
REMARK  status: ('A' for Active; 'I' for Inactive)
REMARK    1  A    between atoms: C_2  and  C_20
REMARK    2  A    between atoms: N_3  and  C_4
REMARK                            x       y       z     vdW  Elec       q    Type
REMARK                         _______ _______ _______ _____ _____    ______ ____
ROOT
ATOM      1  O   UNL     1       1.463   7.150  20.924  0.00  0.00    +0.000 OA
ATOM      2  C   UNL     1       1.746   7.789  19.925  0.00  0.00    +0.000 C 
ATOM      3  N   UNL     1       1.179   9.004  19.639  0.00  0.00    +0.000 N 
ATOM      4  H   UNL     1       1.659   9.547  18.939  0.00  0.00    +0.000 HD
ENDROOT
BRANCH   3   5
ATOM      5  C   UNL     1       0.271   9.734  20.532  0.00  0.00    +0.000 C 
ATOM      6  C   UNL     1      -1.145  10.058  20.005  0.00  0.00    +0.000 C 
ATOM      7  C   UNL     1      -1.233  11.213  18.966  0.00  0.00    +0.000 C 
ATOM      8  C   UNL     1      -2.585  11.999  19.047  0.00  0.00    +0.000 C 
ATOM      9  C   UNL     1      -3.850  11.410  18.445  0.00  0.00    +0.000 C 
ATOM     10  C   UNL     1      -3.659  10.629  17.159  0.00  0.00    +0.000 C 
ATOM     11  C   UNL     1      -2.367   9.827  17.098  0.00  0.00    +0.000 C 
ATOM     12  C   UNL     1      -1.121  10.624  17.534  0.00  0.00    +0.000 C 
ATOM     13  N   UNL     1      -0.270  12.321  19.219  0.00  0.00    +0.000 NA
ATOM     14  C   UNL     1       1.013  12.104  19.888  0.00  0.00    +0.000 C 
ATOM     15  C   UNL     1       2.083  11.814  18.810  0.00  0.00    +0.000 C 
ATOM     16  C   UNL     1       2.305  12.992  17.854  0.00  0.00    +0.000 C 
ATOM     17  C   UNL     1       2.699  14.258  18.600  0.00  0.00    +0.000 C 
ATOM     18  C   UNL     1       1.683  14.610  19.677  0.00  0.00    +0.000 C 
ATOM     19  C   UNL     1       1.421  13.429  20.612  0.00  0.00    +0.000 C 
ATOM     20  C   UNL     1       0.912  11.036  20.994  0.00  0.00    +0.000 C 
ATOM     21  H   UNL     1      -0.750  13.076  19.709  0.00  0.00    +0.000 HD
ENDBRANCH   3   5
BRANCH   2  22
ATOM     22  C   UNL     1       2.713   7.313  18.952  0.00  0.00    +0.000 A 
ATOM     23  C   UNL     1       3.374   7.898  17.885  0.00  0.00    +0.000 A 
ATOM     24  C   UNL     1       4.126   6.889  17.209  0.00  0.00    +0.000 A 
ATOM     25  C   UNL     1       4.921   6.873  16.039  0.00  0.00    +0.000 A 
ATOM     26  C   UNL     1       5.447   5.650  15.652  0.00  0.00    +0.000 A 
ATOM     27  C   UNL     1       5.255   4.502  16.380  0.00  0.00    +0.000 A 
ATOM     28  C   UNL     1       4.521   4.476  17.552  0.00  0.00    +0.000 A 
ATOM     29  C   UNL     1       3.948   5.701  17.929  0.00  0.00    +0.000 A 
ATOM     30  N   UNL     1       3.128   6.000  18.989  0.00  0.00    +0.000 N 
ATOM     31  O   UNL     1       5.848   3.416  15.809  0.00  0.00    +0.000 OA
ATOM     32  C   UNL     1       6.354   3.997  14.591  0.00  0.00    +0.000 C 
ATOM     33  O   UNL     1       6.186   5.428  14.527  0.00  0.00    +0.000 OA
ATOM     34  H   UNL     1       2.809   5.332  19.683  0.00  0.00    +0.000 HD
ENDBRANCH   2  22
TORSDOF 2
ENDMDL
MODEL 2
REMARK VINA RESULT:      -8.6      0.677      1.297
REMARK  Name = 
REMARK  2 active torsions:
REMARK  status: ('A' for Active; 'I' for Inactive)
REMARK    1  A    between atoms: C_2  and  C_20
REMARK    2  A    between atoms: N_3  and  C_4
REMARK                            x       y       z     vdW  Elec       q    Type
REMARK                         _______ _______ _______ _____ _____    ______ ____
ROOT
ATOM      1  O   UNL     1       1.466   7.214  21.446  0.00  0.00    +0.000 OA
ATOM      2  C   UNL     1       1.552   7.611  20.297  0.00  0.00    +0.000 C 
ATOM      3  N   UNL     1       0.947   8.764  19.866  0.00  0.00    +0.000 N 
ATOM      4  H   UNL     1       1.285   9.122  18.987  0.00  0.00    +0.000 HD
ENDROOT
BRANCH   3   5
ATOM      5  C   UNL     1       0.235   9.710  20.733  0.00  0.00    +0.000 C 
ATOM      6  C   UNL     1      -1.163  10.186  20.279  0.00  0.00    +0.000 C 
ATOM      7  C   UNL     1      -1.180  11.228  19.123  0.00  0.00    +0.000 C 
ATOM      8  C   UNL     1      -2.395  12.211  19.212  0.00  0.00    +0.000 C 
ATOM      9  C   UNL     1      -3.779  11.760  18.778  0.00  0.00    +0.000 C 
ATOM     10  C   UNL     1      -3.817  10.831  17.579  0.00  0.00    +0.000 C 
ATOM     11  C   UNL     1      -2.661   9.843  17.515  0.00  0.00    +0.000 C 
ATOM     12  C   UNL     1      -1.281  10.485  17.763  0.00  0.00    +0.000 C 
ATOM     13  N   UNL     1      -0.052  12.199  19.175  0.00  0.00    +0.000 NA
ATOM     14  C   UNL     1       1.242  11.863  19.768  0.00  0.00    +0.000 C 
ATOM     15  C   UNL     1       2.160  11.307  18.654  0.00  0.00    +0.000 C 
ATOM     16  C   UNL     1       2.458  12.332  17.555  0.00  0.00    +0.000 C 
ATOM     17  C   UNL     1       3.092  13.595  18.120  0.00  0.00    +0.000 C 
ATOM     18  C   UNL     1       2.238  14.205  19.221  0.00  0.00    +0.000 C 
ATOM     19  C   UNL     1       1.897  13.180  20.302  0.00  0.00    +0.000 C 
ATOM     20  C   UNL     1       1.092  10.942  20.994  0.00  0.00    +0.000 C 
ATOM     21  H   UNL     1      -0.375  13.065  19.608  0.00  0.00    +0.000 HD
ENDBRANCH   3   5
BRANCH   2  22
ATOM     22  C   UNL     1       2.308   6.893  19.287  0.00  0.00    +0.000 A 
ATOM     23  C   UNL     1       2.458   5.554  18.966  0.00  0.00    +0.000 A 
ATOM     24  C   UNL     1       3.439   5.442  17.934  0.00  0.00    +0.000 A 
ATOM     25  C   UNL     1       4.047   4.351  17.269  0.00  0.00    +0.000 A 
ATOM     26  C   UNL     1       5.038   4.650  16.346  0.00  0.00    +0.000 A 
ATOM     27  C   UNL     1       5.398   5.940  16.043  0.00  0.00    +0.000 A 
ATOM     28  C   UNL     1       4.803   7.039  16.635  0.00  0.00    +0.000 A 
ATOM     29  C   UNL     1       3.830   6.746  17.603  0.00  0.00    +0.000 A 
ATOM     30  N   UNL     1       3.103   7.592  18.405  0.00  0.00    +0.000 N 
ATOM     31  O   UNL     1       6.400   5.999  15.122  0.00  0.00    +0.000 OA
ATOM     32  C   UNL     1       6.692   4.598  14.952  0.00  0.00    +0.000 C 
ATOM     33  O   UNL     1       5.773   3.734  15.653  0.00  0.00    +0.000 OA
ATOM     34  H   UNL     1       3.181   8.603  18.403  0.00  0.00    +0.000 HD
ENDBRANCH   2  22
TORSDOF 2
ENDMDL
MODEL 3
REMARK VINA RESULT:      -8.2      2.588      4.931
REMARK  Name = 
REMARK  2 active torsions:
REMARK  status: ('A' for Active; 'I' for Inactive)
REMARK    1  A    between atoms: C_2  and  C_20
REMARK    2  A    between atoms: N_3  and  C_4
REMARK                            x       y       z     vdW  Elec       q    Type
REMARK                         _______ _______ _______ _____ _____    ______ ____
ROOT
ATOM      1  O   UNL     1       2.222  11.268  17.639  0.00  0.00    +0.000 OA
ATOM      2  C   UNL     1       1.495  10.485  18.223  0.00  0.00    +0.000 C 
ATOM      3  N   UNL     1       0.221  10.809  18.615  0.00  0.00    +0.000 N 
ATOM      4  H   UNL     1      -0.365  10.026  18.857  0.00  0.00    +0.000 HD
ENDROOT
BRANCH   3   5
ATOM      5  C   UNL     1      -0.460  12.067  18.288  0.00  0.00    +0.000 C 
ATOM      6  C   UNL     1       0.329  13.381  18.487  0.00  0.00    +0.000 C 
ATOM      7  C   UNL     1       0.499  13.852  19.960  0.00  0.00    +0.000 C 
ATOM      8  C   UNL     1       0.564  15.411  20.094  0.00  0.00    +0.000 C 
ATOM      9  C   UNL     1       1.842  16.156  19.746  0.00  0.00    +0.000 C 
ATOM     10  C   UNL     1       3.132  15.445  20.108  0.00  0.00    +0.000 C 
ATOM     11  C   UNL     1       3.085  13.934  19.934  0.00  0.00    +0.000 C 
ATOM     12  C   UNL     1       1.824  13.279  20.532  0.00  0.00    +0.000 C 
ATOM     13  N   UNL     1      -0.682  13.564  20.821  0.00  0.00    +0.000 NA
ATOM     14  C   UNL     1      -1.579  12.436  20.567  0.00  0.00    +0.000 C 
ATOM     15  C   UNL     1      -1.067  11.216  21.368  0.00  0.00    +0.000 C 
ATOM     16  C   UNL     1      -1.096  11.439  22.884  0.00  0.00    +0.000 C 
ATOM     17  C   UNL     1      -2.492  11.790  23.376  0.00  0.00    +0.000 C 
ATOM     18  C   UNL     1      -3.060  12.992  22.635  0.00  0.00    +0.000 C 
ATOM     19  C   UNL     1      -2.996  12.800  21.119  0.00  0.00    +0.000 C 
ATOM     20  C   UNL     1      -1.768  12.180  19.060  0.00  0.00    +0.000 C 
ATOM     21  H   UNL     1      -1.256  14.404  20.895  0.00  0.00    +0.000 HD
ENDBRANCH   3   5
BRANCH   2  22
ATOM     22  C   UNL     1       1.919   9.135  18.550  0.00  0.00    +0.000 A 
ATOM     23  C   UNL     1       2.647   8.165  17.880  0.00  0.00    +0.000 A 
ATOM     24  C   UNL     1       2.644   6.973  18.667  0.00  0.00    +0.000 A 
ATOM     25  C   UNL     1       3.147   5.665  18.473  0.00  0.00    +0.000 A 
ATOM     26  C   UNL     1       2.877   4.732  19.462  0.00  0.00    +0.000 A 
ATOM     27  C   UNL     1       2.192   5.053  20.609  0.00  0.00    +0.000 A 
ATOM     28  C   UNL     1       1.718   6.327  20.863  0.00  0.00    +0.000 A 
ATOM     29  C   UNL     1       1.948   7.267  19.846  0.00  0.00    +0.000 A 
ATOM     30  N   UNL     1       1.563   8.582  19.760  0.00  0.00    +0.000 N 
ATOM     31  O   UNL     1       2.029   3.982  21.436  0.00  0.00    +0.000 OA
ATOM     32  C   UNL     1       2.606   2.933  20.634  0.00  0.00    +0.000 C 
ATOM     33  O   UNL     1       3.228   3.416  19.424  0.00  0.00    +0.000 OA
ATOM     34  H   UNL     1       1.026   9.078  20.465  0.00  0.00    +0.000 HD
ENDBRANCH   2  22
TORSDOF 2
ENDMDL
MODEL 4
REMARK VINA RESULT:      -7.9      0.966      1.064
REMARK  Name = 
REMARK  2 active torsions:
REMARK  status: ('A' for Active; 'I' for Inactive)
REMARK    1  A    between atoms: C_2  and  C_20
REMARK    2  A    between atoms: N_3  and  C_4
REMARK                            x       y       z     vdW  Elec       q    Type
REMARK                         _______ _______ _______ _____ _____    ______ ____
ROOT
ATOM      1  O   UNL     1       0.498   7.857  21.241  0.00  0.00    +0.000 OA
ATOM      2  C   UNL     1       1.145   8.496  20.428  0.00  0.00    +0.000 C 
ATOM      3  N   UNL     1       1.023   9.855  20.289  0.00  0.00    +0.000 N 
ATOM      4  H   UNL     1       1.768  10.301  19.778  0.00  0.00    +0.000 HD
ENDROOT
BRANCH   3   5
ATOM      5  C   UNL     1       0.210  10.715  21.157  0.00  0.00    +0.000 C 
ATOM      6  C   UNL     1      -1.245  10.999  20.721  0.00  0.00    +0.000 C 
ATOM      7  C   UNL     1      -1.416  12.012  19.552  0.00  0.00    +0.000 C 
ATOM      8  C   UNL     1      -2.746  12.833  19.650  0.00  0.00    +0.000 C 
ATOM      9  C   UNL     1      -4.067  12.200  19.247  0.00  0.00    +0.000 C 
ATOM     10  C   UNL     1      -4.004  11.256  18.062  0.00  0.00    +0.000 C 
ATOM     11  C   UNL     1      -2.732  10.423  17.991  0.00  0.00    +0.000 C 
ATOM     12  C   UNL     1      -1.442  11.241  18.205  0.00  0.00    +0.000 C 
ATOM     13  N   UNL     1      -0.421  13.121  19.570  0.00  0.00    +0.000 NA
ATOM     14  C   UNL     1       0.915  12.964  20.144  0.00  0.00    +0.000 C 
ATOM     15  C   UNL     1       1.879  12.512  19.021  0.00  0.00    +0.000 C 
ATOM     16  C   UNL     1       2.024  13.550  17.903  0.00  0.00    +0.000 C 
ATOM     17  C   UNL     1       2.500  14.893  18.439  0.00  0.00    +0.000 C 
ATOM     18  C   UNL     1       1.592  15.405  19.547  0.00  0.00    +0.000 C 
ATOM     19  C   UNL     1       1.403  14.361  20.648  0.00  0.00    +0.000 C 
ATOM     20  C   UNL     1       0.905  12.050  21.385  0.00  0.00    +0.000 C 
ATOM     21  H   UNL     1      -0.845  13.945  19.997  0.00  0.00    +0.000 HD
ENDBRANCH   3   5
BRANCH   2  22
ATOM     22  C   UNL     1       2.103   7.865  19.538  0.00  0.00    +0.000 A 
ATOM     23  C   UNL     1       2.730   8.255  18.366  0.00  0.00    +0.000 A 
ATOM     24  C   UNL     1       3.492   7.152  17.871  0.00  0.00    +0.000 A 
ATOM     25  C   UNL     1       4.264   6.934  16.706  0.00  0.00    +0.000 A 
ATOM     26  C   UNL     1       4.809   5.670  16.540  0.00  0.00    +0.000 A 
ATOM     27  C   UNL     1       4.657   4.674  17.472  0.00  0.00    +0.000 A 
ATOM     28  C   UNL     1       3.948   4.852  18.645  0.00  0.00    +0.000 A 
ATOM     29  C   UNL     1       3.354   6.115  18.802  0.00  0.00    +0.000 A 
ATOM     30  N   UNL     1       2.549   6.590  19.808  0.00  0.00    +0.000 N 
ATOM     31  O   UNL     1       5.263   3.512  17.099  0.00  0.00    +0.000 OA
ATOM     32  C   UNL     1       5.733   3.866  15.782  0.00  0.00    +0.000 C 
ATOM     33  O   UNL     1       5.531   5.257  15.459  0.00  0.00    +0.000 OA
ATOM     34  H   UNL     1       2.258   6.056  20.620  0.00  0.00    +0.000 HD
ENDBRANCH   2  22
TORSDOF 2
ENDMDL
MODEL 5
REMARK VINA RESULT:      -7.9      1.846      2.271
REMARK  Name = 
REMARK  2 active torsions:
REMARK  status: ('A' for Active; 'I' for Inactive)
REMARK    1  A    between atoms: C_2  and  C_20
REMARK    2  A    between atoms: N_3  and  C_4
REMARK                            x       y       z     vdW  Elec       q    Type
REMARK                         _______ _______ _______ _____ _____    ______ ____
ROOT
ATOM      1  O   UNL     1       1.491   8.874  22.485  0.00  0.00    +0.000 OA
ATOM      2  C   UNL     1       1.149   8.565  21.357  0.00  0.00    +0.000 C 
ATOM      3  N   UNL     1       0.135   9.203  20.690  0.00  0.00    +0.000 N 
ATOM      4  H   UNL     1       0.107   9.040  19.696  0.00  0.00    +0.000 HD
ENDROOT
BRANCH   3   5
ATOM      5  C   UNL     1      -0.574  10.390  21.184  0.00  0.00    +0.000 C 
ATOM      6  C   UNL     1      -1.870  10.805  20.452  0.00  0.00    +0.000 C 
ATOM      7  C   UNL     1      -1.675  11.494  19.070  0.00  0.00    +0.000 C 
ATOM      8  C   UNL     1      -2.800  12.535  18.748  0.00  0.00    +0.000 C 
ATOM      9  C   UNL     1      -4.167  12.064  18.281  0.00  0.00    +0.000 C 
ATOM     10  C   UNL     1      -4.165  10.849  17.374  0.00  0.00    +0.000 C 
ATOM     11  C   UNL     1      -3.103   9.814  17.715  0.00  0.00    +0.000 C 
ATOM     12  C   UNL     1      -1.703  10.416  17.952  0.00  0.00    +0.000 C 
ATOM     13  N   UNL     1      -0.475  12.374  19.003  0.00  0.00    +0.000 NA
ATOM     14  C   UNL     1       0.716  12.136  19.817  0.00  0.00    +0.000 C 
ATOM     15  C   UNL     1       1.689  11.245  19.010  0.00  0.00    +0.000 C 
ATOM     16  C   UNL     1       2.189  11.914  17.725  0.00  0.00    +0.000 C 
ATOM     17  C   UNL     1       2.873  13.243  18.011  0.00  0.00    +0.000 C 
ATOM     18  C   UNL     1       1.968  14.178  18.800  0.00  0.00    +0.000 C 
ATOM     19  C   UNL     1       1.428  13.507  20.062  0.00  0.00    +0.000 C 
ATOM     20  C   UNL     1       0.359  11.593  21.214  0.00  0.00    +0.000 C 
ATOM     21  H   UNL     1      -0.762  13.342  19.150  0.00  0.00    +0.000 HD
ENDBRANCH   3   5
BRANCH   2  22
ATOM     22  C   UNL     1       1.793   7.490  20.623  0.00  0.00    +0.000 A 
ATOM     23  C   UNL     1       2.378   7.395  19.371  0.00  0.00    +0.000 A 
ATOM     24  C   UNL     1       2.742   6.032  19.144  0.00  0.00    +0.000 A 
ATOM     25  C   UNL     1       3.296   5.331  18.046  0.00  0.00    +0.000 A 
ATOM     26  C   UNL     1       3.442   3.960  18.183  0.00  0.00    +0.000 A 
ATOM     27  C   UNL     1       3.113   3.296  19.339  0.00  0.00    +0.000 A 
ATOM     28  C   UNL     1       2.608   3.943  20.453  0.00  0.00    +0.000 A 
ATOM     29  C   UNL     1       2.415   5.325  20.308  0.00  0.00    +0.000 A 
ATOM     30  N   UNL     1       1.886   6.237  21.188  0.00  0.00    +0.000 N 
ATOM     31  O   UNL     1       3.324   1.953  19.249  0.00  0.00    +0.000 OA
ATOM     32  C   UNL     1       3.735   1.839  17.872  0.00  0.00    +0.000 C 
ATOM     33  O   UNL     1       3.902   3.114  17.218  0.00  0.00    +0.000 OA
ATOM     34  H   UNL     1       1.542   6.016  22.117  0.00  0.00    +0.000 HD
ENDBRANCH   2  22
TORSDOF 2
ENDMDL
MODEL 6
REMARK VINA RESULT:      -7.8      2.308      4.741
REMARK  Name = 
REMARK  2 active torsions:
REMARK  status: ('A' for Active; 'I' for Inactive)
REMARK    1  A    between atoms: C_2  and  C_20
REMARK    2  A    between atoms: N_3  and  C_4
REMARK                            x       y       z     vdW  Elec       q    Type
REMARK                         _______ _______ _______ _____ _____    ______ ____
ROOT
ATOM      1  O   UNL     1       2.238  11.342  17.825  0.00  0.00    +0.000 OA
ATOM      2  C   UNL     1       1.447  10.581  18.356  0.00  0.00    +0.000 C 
ATOM      3  N   UNL     1       0.187  10.968  18.734  0.00  0.00    +0.000 N 
ATOM      4  H   UNL     1      -0.453  10.214  18.925  0.00  0.00    +0.000 HD
ENDROOT
BRANCH   3   5
ATOM      5  C   UNL     1      -0.405  12.281  18.450  0.00  0.00    +0.000 C 
ATOM      6  C   UNL     1       0.455  13.531  18.740  0.00  0.00    +0.000 C 
ATOM      7  C   UNL     1       0.602  13.918  20.241  0.00  0.00    +0.000 C 
ATOM      8  C   UNL     1       0.756  15.461  20.456  0.00  0.00    +0.000 C 
ATOM      9  C   UNL     1       2.088  16.142  20.187  0.00  0.00    +0.000 C 
ATOM     10  C   UNL     1       3.319  15.335  20.554  0.00  0.00    +0.000 C 
ATOM     11  C   UNL     1       3.187  13.840  20.301  0.00  0.00    +0.000 C 
ATOM     12  C   UNL     1       1.869  13.236  20.825  0.00  0.00    +0.000 C 
ATOM     13  N   UNL     1      -0.624  13.662  21.048  0.00  0.00    +0.000 NA
ATOM     14  C   UNL     1      -1.578  12.607  20.708  0.00  0.00    +0.000 C 
ATOM     15  C   UNL     1      -1.169  11.319  21.461  0.00  0.00    +0.000 C 
ATOM     16  C   UNL     1      -1.237  11.468  22.985  0.00  0.00    +0.000 C 
ATOM     17  C   UNL     1      -2.627  11.881  23.449  0.00  0.00    +0.000 C 
ATOM     18  C   UNL     1      -3.094  13.151  22.753  0.00  0.00    +0.000 C 
ATOM     19  C   UNL     1      -2.989  13.030  21.232  0.00  0.00    +0.000 C 
ATOM     20  C   UNL     1      -1.730  12.436  19.184  0.00  0.00    +0.000 C 
ATOM     21  H   UNL     1      -1.148  14.532  21.146  0.00  0.00    +0.000 HD
ENDBRANCH   3   5
BRANCH   2  22
ATOM     22  C   UNL     1       1.777   9.193  18.630  0.00  0.00    +0.000 A 
ATOM     23  C   UNL     1       1.481   8.319  19.662  0.00  0.00    +0.000 A 
ATOM     24  C   UNL     1       2.191   7.099  19.440  0.00  0.00    +0.000 A 
ATOM     25  C   UNL     1       2.336   5.898  20.175  0.00  0.00    +0.000 A 
ATOM     26  C   UNL     1       3.192   4.940  19.652  0.00  0.00    +0.000 A 
ATOM     27  C   UNL     1       3.844   5.110  18.456  0.00  0.00    +0.000 A 
ATOM     28  C   UNL     1       3.701   6.247  17.682  0.00  0.00    +0.000 A 
ATOM     29  C   UNL     1       2.871   7.241  18.225  0.00  0.00    +0.000 A 
ATOM     30  N   UNL     1       2.569   8.493  17.747  0.00  0.00    +0.000 N 
ATOM     31  O   UNL     1       4.643   4.052  18.142  0.00  0.00    +0.000 OA
ATOM     32  C   UNL     1       4.489   3.240  19.324  0.00  0.00    +0.000 C 
ATOM     33  O   UNL     1       3.501   3.751  20.243  0.00  0.00    +0.000 OA
ATOM     34  H   UNL     1       2.929   8.888  16.885  0.00  0.00    +0.000 HD
ENDBRANCH   2  22
TORSDOF 2
ENDMDL
MODEL 7
REMARK VINA RESULT:      -7.5      1.607      2.130
REMARK  Name = 
REMARK  2 active torsions:
REMARK  status: ('A' for Active; 'I' for Inactive)
REMARK    1  A    between atoms: C_2  and  C_20
REMARK    2  A    between atoms: N_3  and  C_4
REMARK                            x       y       z     vdW  Elec       q    Type
REMARK                         _______ _______ _______ _____ _____    ______ ____
ROOT
ATOM      1  O   UNL     1      -0.429   8.579  21.729  0.00  0.00    +0.000 OA
ATOM      2  C   UNL     1       0.355   9.149  20.991  0.00  0.00    +0.000 C 
ATOM      3  N   UNL     1       0.400  10.514  20.870  0.00  0.00    +0.000 N 
ATOM      4  H   UNL     1       1.234  10.879  20.437  0.00  0.00    +0.000 HD
ENDROOT
BRANCH   3   5
ATOM      5  C   UNL     1      -0.386  11.452  21.681  0.00  0.00    +0.000 C 
ATOM      6  C   UNL     1      -1.840  11.733  21.240  0.00  0.00    +0.000 C 
ATOM      7  C   UNL     1      -2.005  12.661  20.002  0.00  0.00    +0.000 C 
ATOM      8  C   UNL     1      -3.318  13.513  20.054  0.00  0.00    +0.000 C 
ATOM      9  C   UNL     1      -4.655  12.880  19.711  0.00  0.00    +0.000 C 
ATOM     10  C   UNL     1      -4.625  11.850  18.598  0.00  0.00    +0.000 C 
ATOM     11  C   UNL     1      -3.370  10.989  18.575  0.00  0.00    +0.000 C 
ATOM     12  C   UNL     1      -2.062  11.794  18.715  0.00  0.00    +0.000 C 
ATOM     13  N   UNL     1      -0.989  13.748  19.929  0.00  0.00    +0.000 NA
ATOM     14  C   UNL     1       0.351  13.606  20.499  0.00  0.00    +0.000 C 
ATOM     15  C   UNL     1       1.292  13.055  19.403  0.00  0.00    +0.000 C 
ATOM     16  C   UNL     1       1.445  14.005  18.210  0.00  0.00    +0.000 C 
ATOM     17  C   UNL     1       1.952  15.373  18.641  0.00  0.00    +0.000 C 
ATOM     18  C   UNL     1       1.067  15.983  19.718  0.00  0.00    +0.000 C 
ATOM     19  C   UNL     1       0.871  15.027  20.895  0.00  0.00    +0.000 C 
ATOM     20  C   UNL     1       0.337  12.786  21.803  0.00  0.00    +0.000 C 
ATOM     21  H   UNL     1      -1.392  14.609  20.299  0.00  0.00    +0.000 HD
ENDBRANCH   3   5
BRANCH   2  22
ATOM     22  C   UNL     1       1.314   8.424  20.176  0.00  0.00    +0.000 A 
ATOM     23  C   UNL     1       1.883   8.645  18.932  0.00  0.00    +0.000 A 
ATOM     24  C   UNL     1       2.679   7.509  18.590  0.00  0.00    +0.000 A 
ATOM     25  C   UNL     1       3.423   7.138  17.445  0.00  0.00    +0.000 A 
ATOM     26  C   UNL     1       4.022   5.888  17.461  0.00  0.00    +0.000 A 
ATOM     27  C   UNL     1       3.947   5.049  18.546  0.00  0.00    +0.000 A 
ATOM     28  C   UNL     1       3.268   5.385  19.703  0.00  0.00    +0.000 A 
ATOM     29  C   UNL     1       2.621   6.631  19.679  0.00  0.00    +0.000 A 
ATOM     30  N   UNL     1       1.827   7.228  20.627  0.00  0.00    +0.000 N 
ATOM     31  O   UNL     1       4.595   3.869  18.339  0.00  0.00    +0.000 OA
ATOM     32  C   UNL     1       5.005   4.025  16.966  0.00  0.00    +0.000 C 
ATOM     33  O   UNL     1       4.727   5.337  16.432  0.00  0.00    +0.000 OA
ATOM     34  H   UNL     1       1.588   6.821  21.525  0.00  0.00    +0.000 HD
ENDBRANCH   2  22
TORSDOF 2
ENDMDL
MODEL 8
REMARK VINA RESULT:      -7.5      2.345      3.628
REMARK  Name = 
REMARK  2 active torsions:
REMARK  status: ('A' for Active; 'I' for Inactive)
REMARK    1  A    between atoms: C_2  and  C_20
REMARK    2  A    between atoms: N_3  and  C_4
REMARK                            x       y       z     vdW  Elec       q    Type
REMARK                         _______ _______ _______ _____ _____    ______ ____
ROOT
ATOM      1  O   UNL     1       0.053  10.027  23.537  0.00  0.00    +0.000 OA
ATOM      2  C   UNL     1      -0.093  10.084  22.329  0.00  0.00    +0.000 C 
ATOM      3  N   UNL     1      -0.888  11.024  21.723  0.00  0.00    +0.000 N 
ATOM      4  H   UNL     1      -0.740  11.136  20.733  0.00  0.00    +0.000 HD
ENDROOT
BRANCH   3   5
ATOM      5  C   UNL     1      -1.555  12.130  22.420  0.00  0.00    +0.000 C 
ATOM      6  C   UNL     1      -2.974  12.520  21.951  0.00  0.00    +0.000 C 
ATOM      7  C   UNL     1      -3.051  13.312  20.613  0.00  0.00    +0.000 C 
ATOM      8  C   UNL     1      -4.260  14.306  20.567  0.00  0.00    +0.000 C 
ATOM      9  C   UNL     1      -5.664  13.791  20.300  0.00  0.00    +0.000 C 
ATOM     10  C   UNL     1      -5.763  12.644  19.313  0.00  0.00    +0.000 C 
ATOM     11  C   UNL     1      -4.612  11.651  19.389  0.00  0.00    +0.000 C 
ATOM     12  C   UNL     1      -3.221  12.316  19.435  0.00  0.00    +0.000 C 
ATOM     13  N   UNL     1      -1.922  14.263  20.415  0.00  0.00    +0.000 NA
ATOM     14  C   UNL     1      -0.599  14.039  20.998  0.00  0.00    +0.000 C 
ATOM     15  C   UNL     1       0.261  13.264  19.972  0.00  0.00    +0.000 C 
ATOM     16  C   UNL     1       0.502  14.048  18.677  0.00  0.00    +0.000 C 
ATOM     17  C   UNL     1       1.164  15.391  18.948  0.00  0.00    +0.000 C 
ATOM     18  C   UNL     1       0.367  16.216  19.948  0.00  0.00    +0.000 C 
ATOM     19  C   UNL     1       0.082  15.428  21.226  0.00  0.00    +0.000 C 
ATOM     20  C   UNL     1      -0.686  13.380  22.388  0.00  0.00    +0.000 C 
ATOM     21  H   UNL     1      -2.222  15.201  20.684  0.00  0.00    +0.000 HD
ENDBRANCH   3   5
BRANCH   2  22
ATOM     22  C   UNL     1       0.568   9.158  21.426  0.00  0.00    +0.000 A 
ATOM     23  C   UNL     1       0.906   7.817  21.501  0.00  0.00    +0.000 A 
ATOM     24  C   UNL     1       1.661   7.475  20.338  0.00  0.00    +0.000 A 
ATOM     25  C   UNL     1       2.322   6.301  19.904  0.00  0.00    +0.000 A 
ATOM     26  C   UNL     1       3.029   6.380  18.714  0.00  0.00    +0.000 A 
ATOM     27  C   UNL     1       3.065   7.522  17.953  0.00  0.00    +0.000 A 
ATOM     28  C   UNL     1       2.401   8.680  18.314  0.00  0.00    +0.000 A 
ATOM     29  C   UNL     1       1.718   8.624  19.539  0.00  0.00    +0.000 A 
ATOM     30  N   UNL     1       1.018   9.601  20.203  0.00  0.00    +0.000 N 
ATOM     31  O   UNL     1       3.830   7.381  16.835  0.00  0.00    +0.000 OA
ATOM     32  C   UNL     1       4.347   6.049  17.030  0.00  0.00    +0.000 C 
ATOM     33  O   UNL     1       3.772   5.375  18.169  0.00  0.00    +0.000 OA
ATOM     34  H   UNL     1       0.897  10.554  19.874  0.00  0.00    +0.000 HD
ENDBRANCH   2  22
TORSDOF 2
ENDMDL
MODEL 9
REMARK VINA RESULT:      -7.4      2.665      3.908
REMARK  Name = 
REMARK  2 active torsions:
REMARK  status: ('A' for Active; 'I' for Inactive)
REMARK    1  A    between atoms: C_2  and  C_20
REMARK    2  A    between atoms: N_3  and  C_4
REMARK                            x       y       z     vdW  Elec       q    Type
REMARK                         _______ _______ _______ _____ _____    ______ ____
ROOT
ATOM      1  O   UNL     1      -0.443  10.252  23.486  0.00  0.00    +0.000 OA
ATOM      2  C   UNL     1      -0.428  10.446  22.283  0.00  0.00    +0.000 C 
ATOM      3  N   UNL     1      -1.179  11.423  21.681  0.00  0.00    +0.000 N 
ATOM      4  H   UNL     1      -0.906  11.655  20.740  0.00  0.00    +0.000 HD
ENDROOT
BRANCH   3   5
ATOM      5  C   UNL     1      -1.987  12.417  22.398  0.00  0.00    +0.000 C 
ATOM      6  C   UNL     1      -3.445  12.627  21.930  0.00  0.00    +0.000 C 
ATOM      7  C   UNL     1      -3.623  13.430  20.609  0.00  0.00    +0.000 C 
ATOM      8  C   UNL     1      -4.952  14.257  20.578  0.00  0.00    +0.000 C 
ATOM      9  C   UNL     1      -6.276  13.568  20.295  0.00  0.00    +0.000 C 
ATOM     10  C   UNL     1      -6.221  12.439  19.284  0.00  0.00    +0.000 C 
ATOM     11  C   UNL     1      -4.950  11.604  19.345  0.00  0.00    +0.000 C 
ATOM     12  C   UNL     1      -3.659  12.444  19.411  0.00  0.00    +0.000 C 
ATOM     13  N   UNL     1      -2.627  14.525  20.435  0.00  0.00    +0.000 NA
ATOM     14  C   UNL     1      -1.288  14.464  21.019  0.00  0.00    +0.000 C 
ATOM     15  C   UNL     1      -0.332  13.830  19.981  0.00  0.00    +0.000 C 
ATOM     16  C   UNL     1      -0.194  14.666  18.704  0.00  0.00    +0.000 C 
ATOM     17  C   UNL     1       0.286  16.079  19.004  0.00  0.00    +0.000 C 
ATOM     18  C   UNL     1      -0.615  16.770  20.017  0.00  0.00    +0.000 C 
ATOM     19  C   UNL     1      -0.796  15.926  21.279  0.00  0.00    +0.000 C 
ATOM     20  C   UNL     1      -1.290  13.771  22.395  0.00  0.00    +0.000 C 
ATOM     21  H   UNL     1      -3.049  15.409  20.722  0.00  0.00    +0.000 HD
ENDBRANCH   3   5
BRANCH   2  22
ATOM     22  C   UNL     1       0.392   9.654  21.384  0.00  0.00    +0.000 A 
ATOM     23  C   UNL     1       0.917   9.867  20.119  0.00  0.00    +0.000 A 
ATOM     24  C   UNL     1       1.554   8.664  19.685  0.00  0.00    +0.000 A 
ATOM     25  C   UNL     1       2.186   8.264  18.484  0.00  0.00    +0.000 A 
ATOM     26  C   UNL     1       2.632   6.953  18.413  0.00  0.00    +0.000 A 
ATOM     27  C   UNL     1       2.516   6.078  19.465  0.00  0.00    +0.000 A 
ATOM     28  C   UNL     1       1.944   6.435  20.673  0.00  0.00    +0.000 A 
ATOM     29  C   UNL     1       1.449   7.747  20.738  0.00  0.00    +0.000 A 
ATOM     30  N   UNL     1       0.784   8.387  21.755  0.00  0.00    +0.000 N 
ATOM     31  O   UNL     1       3.007   4.842  19.172  0.00  0.00    +0.000 OA
ATOM     32  C   UNL     1       3.359   5.015  17.785  0.00  0.00    +0.000 C 
ATOM     33  O   UNL     1       3.211   6.374  17.323  0.00  0.00    +0.000 OA
ATOM     34  H   UNL     1       0.546   7.967  22.648  0.00  0.00    +0.000 HD
ENDBRANCH   2  22
TORSDOF 2
ENDMDL
