MODEL 1
REMARK VINA RESULT:      -8.3      0.000      0.000
REMARK  Name = 
REMARK  7 active torsions:
REMARK  status: ('A' for Active; 'I' for Inactive)
REMARK    1  A    between atoms: C_1  and  O_2
REMARK    2  A    between atoms: O_2  and  C_3
REMARK    3  A    between atoms: C_5  and  C_6
REMARK    4  A    between atoms: N_7  and  N_8
REMARK    5  A    between atoms: C_16  and  O_17
REMARK    6  A    between atoms: O_17  and  C_18
REMARK    7  A    between atoms: C_18  and  C_19
REMARK                            x       y       z     vdW  Elec       q    Type
REMARK                         _______ _______ _______ _____ _____    ______ ____
ROOT
ATOM      1  C   UNL     1       2.152   5.746  19.726  0.00  0.00    +0.000 A 
ATOM      2  C   UNL     1       2.849   4.908  18.836  0.00  0.00    +0.000 A 
ATOM      3  C   UNL     1       3.542   5.446  17.751  0.00  0.00    +0.000 A 
ATOM      4  C   UNL     1       3.432   6.798  17.478  0.00  0.00    +0.000 A 
ATOM      5  C   UNL     1       2.856   7.643  18.414  0.00  0.00    +0.000 A 
ATOM      6  C   UNL     1       2.223   7.138  19.564  0.00  0.00    +0.000 A 
ENDROOT
BRANCH   1   8
ATOM      7  C   UNL     1       2.194   3.966  21.324  0.00  0.00    +0.000 C 
ATOM      8  O   UNL     1       1.508   5.064  20.729  0.00  0.00    +0.000 OA
ENDBRANCH   1   8
BRANCH   3   9
ATOM      9  C   UNL     1       4.403   4.581  16.911  0.00  0.00    +0.000 C 
ATOM     10  N   UNL     1       5.702   4.453  16.876  0.00  0.00    +0.000 NA
BRANCH  10  11
ATOM     11  N   UNL     1       6.465   5.022  17.859  0.00  0.00    +0.000 N 
ATOM     12  N   UNL     1       6.570   4.558  19.123  0.00  0.00    +0.000 NA
ATOM     13  N   UNL     1       7.336   5.426  19.769  0.00  0.00    +0.000 NA
ATOM     14  N   UNL     1       7.846   6.369  18.916  0.00  0.00    +0.000 NA
ATOM     15  C   UNL     1       7.364   6.087  17.725  0.00  0.00    +0.000 A 
ATOM     16  N   UNL     1       7.637   6.698  16.549  0.00  0.00    +0.000 N 
ATOM     17  H   UNL     1       8.510   7.219  16.509  0.00  0.00    +0.000 HD
ATOM     18  H   UNL     1       7.426   6.192  15.695  0.00  0.00    +0.000 HD
ENDBRANCH  10  11
ENDBRANCH   3   9
BRANCH   6  19
ATOM     19  O   UNL     1       1.693   7.970  20.528  0.00  0.00    +0.000 OA
BRANCH  19  20
ATOM     20  C   UNL     1       1.084   9.153  20.006  0.00  0.00    +0.000 C 
BRANCH  20  21
ATOM     21  C   UNL     1       0.177   9.854  20.979  0.00  0.00    +0.000 A 
ATOM     22  C   UNL     1       0.026   9.433  22.305  0.00  0.00    +0.000 A 
ATOM     23  C   UNL     1      -0.764  10.179  23.180  0.00  0.00    +0.000 A 
ATOM     24  C   UNL     1      -1.393  11.339  22.735  0.00  0.00    +0.000 A 
ATOM     25  F   UNL     1      -2.142  12.053  23.579  0.00  0.00    +0.000 F 
ATOM     26  C   UNL     1      -1.242  11.776  21.423  0.00  0.00    +0.000 A 
ATOM     27  C   UNL     1      -0.459  11.040  20.552  0.00  0.00    +0.000 A 
ENDBRANCH  20  21
ENDBRANCH  19  20
ENDBRANCH   6  19
TORSDOF 6
ENDMDL
MODEL 2
REMARK VINA RESULT:      -8.1      0.894      1.351
REMARK  Name = 
REMARK  7 active torsions:
REMARK  status: ('A' for Active; 'I' for Inactive)
REMARK    1  A    between atoms: C_1  and  O_2
REMARK    2  A    between atoms: O_2  and  C_3
REMARK    3  A    between atoms: C_5  and  C_6
REMARK    4  A    between atoms: N_7  and  N_8
REMARK    5  A    between atoms: C_16  and  O_17
REMARK    6  A    between atoms: O_17  and  C_18
REMARK    7  A    between atoms: C_18  and  C_19
REMARK                            x       y       z     vdW  Elec       q    Type
REMARK                         _______ _______ _______ _____ _____    ______ ____
ROOT
ATOM      1  C   UNL     1       2.778   5.454  18.972  0.00  0.00    +0.000 A 
ATOM      2  C   UNL     1       3.637   4.807  18.064  0.00  0.00    +0.000 A 
ATOM      3  C   UNL     1       4.305   5.535  17.079  0.00  0.00    +0.000 A 
ATOM      4  C   UNL     1       4.017   6.879  16.914  0.00  0.00    +0.000 A 
ATOM      5  C   UNL     1       3.275   7.545  17.877  0.00  0.00    +0.000 A 
ATOM      6  C   UNL     1       2.658   6.852  18.934  0.00  0.00    +0.000 A 
ENDROOT
BRANCH   1   8
ATOM      7  C   UNL     1       2.695   3.272  19.949  0.00  0.00    +0.000 C 
ATOM      8  O   UNL     1       2.184   4.599  19.868  0.00  0.00    +0.000 OA
ENDBRANCH   1   8
BRANCH   3   9
ATOM      9  C   UNL     1       5.325   4.880  16.228  0.00  0.00    +0.000 C 
ATOM     10  N   UNL     1       6.626   4.843  16.338  0.00  0.00    +0.000 NA
BRANCH  10  11
ATOM     11  N   UNL     1       7.221   5.288  17.487  0.00  0.00    +0.000 N 
ATOM     12  N   UNL     1       7.612   4.499  18.512  0.00  0.00    +0.000 NA
ATOM     13  N   UNL     1       8.067   5.318  19.450  0.00  0.00    +0.000 NA
ATOM     14  N   UNL     1       8.110   6.613  19.002  0.00  0.00    +0.000 NA
ATOM     15  C   UNL     1       7.649   6.591  17.771  0.00  0.00    +0.000 A 
ATOM     16  N   UNL     1       7.563   7.619  16.895  0.00  0.00    +0.000 N 
ATOM     17  H   UNL     1       8.176   8.410  17.075  0.00  0.00    +0.000 HD
ATOM     18  H   UNL     1       7.469   7.393  15.910  0.00  0.00    +0.000 HD
ENDBRANCH  10  11
ENDBRANCH   3   9
BRANCH   6  19
ATOM     19  O   UNL     1       1.962   7.508  19.928  0.00  0.00    +0.000 OA
BRANCH  19  20
ATOM     20  C   UNL     1       1.456   8.787  19.537  0.00  0.00    +0.000 C 
BRANCH  20  21
ATOM     21  C   UNL     1       0.686   9.496  20.616  0.00  0.00    +0.000 A 
ATOM     22  C   UNL     1       0.010  10.700  20.391  0.00  0.00    +0.000 A 
ATOM     23  C   UNL     1      -0.759  11.261  21.411  0.00  0.00    +0.000 A 
ATOM     24  C   UNL     1      -0.855  10.620  22.644  0.00  0.00    +0.000 A 
ATOM     25  F   UNL     1      -1.598  11.159  23.615  0.00  0.00    +0.000 F 
ATOM     26  C   UNL     1      -0.199   9.417  22.878  0.00  0.00    +0.000 A 
ATOM     27  C   UNL     1       0.564   8.856  21.869  0.00  0.00    +0.000 A 
ENDBRANCH  20  21
ENDBRANCH  19  20
ENDBRANCH   6  19
TORSDOF 6
ENDMDL
MODEL 3
REMARK VINA RESULT:      -8.0      0.699      1.192
REMARK  Name = 
REMARK  7 active torsions:
REMARK  status: ('A' for Active; 'I' for Inactive)
REMARK    1  A    between atoms: C_1  and  O_2
REMARK    2  A    between atoms: O_2  and  C_3
REMARK    3  A    between atoms: C_5  and  C_6
REMARK    4  A    between atoms: N_7  and  N_8
REMARK    5  A    between atoms: C_16  and  O_17
REMARK    6  A    between atoms: O_17  and  C_18
REMARK    7  A    between atoms: C_18  and  C_19
REMARK                            x       y       z     vdW  Elec       q    Type
REMARK                         _______ _______ _______ _____ _____    ______ ____
ROOT
ATOM      1  C   UNL     1       2.270   5.004  20.162  0.00  0.00    +0.000 A 
ATOM      2  C   UNL     1       3.018   4.251  19.238  0.00  0.00    +0.000 A 
ATOM      3  C   UNL     1       3.461   4.828  18.047  0.00  0.00    +0.000 A 
ATOM      4  C   UNL     1       3.050   6.107  17.718  0.00  0.00    +0.000 A 
ATOM      5  C   UNL     1       2.424   6.894  18.672  0.00  0.00    +0.000 A 
ATOM      6  C   UNL     1       2.040   6.366  19.918  0.00  0.00    +0.000 A 
ENDROOT
BRANCH   1   8
ATOM      7  C   UNL     1       1.326   3.000  21.066  0.00  0.00    +0.000 C 
ATOM      8  O   UNL     1       1.894   4.290  21.274  0.00  0.00    +0.000 OA
ENDBRANCH   1   8
BRANCH   3   9
ATOM      9  C   UNL     1       4.379   4.084  17.153  0.00  0.00    +0.000 C 
ATOM     10  N   UNL     1       5.675   4.159  17.014  0.00  0.00    +0.000 NA
BRANCH  10  11
ATOM     11  N   UNL     1       6.414   4.867  17.922  0.00  0.00    +0.000 N 
ATOM     12  N   UNL     1       6.541   4.553  19.230  0.00  0.00    +0.000 NA
ATOM     13  N   UNL     1       7.269   5.520  19.769  0.00  0.00    +0.000 NA
ATOM     14  N   UNL     1       7.736   6.383  18.813  0.00  0.00    +0.000 NA
ATOM     15  C   UNL     1       7.264   5.949  17.664  0.00  0.00    +0.000 A 
ATOM     16  N   UNL     1       7.509   6.435  16.426  0.00  0.00    +0.000 N 
ATOM     17  H   UNL     1       8.358   6.987  16.323  0.00  0.00    +0.000 HD
ATOM     18  H   UNL     1       7.319   5.828  15.635  0.00  0.00    +0.000 HD
ENDBRANCH  10  11
ENDBRANCH   3   9
BRANCH   6  19
ATOM     19  O   UNL     1       1.464   7.151  20.896  0.00  0.00    +0.000 OA
BRANCH  19  20
ATOM     20  C   UNL     1       1.763   8.544  20.776  0.00  0.00    +0.000 C 
BRANCH  20  21
ATOM     21  C   UNL     1       0.749   9.445  21.424  0.00  0.00    +0.000 A 
ATOM     22  C   UNL     1      -0.035  10.344  20.692  0.00  0.00    +0.000 A 
ATOM     23  C   UNL     1      -1.019  11.089  21.342  0.00  0.00    +0.000 A 
ATOM     24  C   UNL     1      -1.221  10.932  22.712  0.00  0.00    +0.000 A 
ATOM     25  F   UNL     1      -2.170  11.643  23.328  0.00  0.00    +0.000 F 
ATOM     26  C   UNL     1      -0.458  10.033  23.449  0.00  0.00    +0.000 A 
ATOM     27  C   UNL     1       0.518   9.292  22.808  0.00  0.00    +0.000 A 
ENDBRANCH  20  21
ENDBRANCH  19  20
ENDBRANCH   6  19
TORSDOF 6
ENDMDL
MODEL 4
REMARK VINA RESULT:      -7.9      0.864      1.435
REMARK  Name = 
REMARK  7 active torsions:
REMARK  status: ('A' for Active; 'I' for Inactive)
REMARK    1  A    between atoms: C_1  and  O_2
REMARK    2  A    between atoms: O_2  and  C_3
REMARK    3  A    between atoms: C_5  and  C_6
REMARK    4  A    between atoms: N_7  and  N_8
REMARK    5  A    between atoms: C_16  and  O_17
REMARK    6  A    between atoms: O_17  and  C_18
REMARK    7  A    between atoms: C_18  and  C_19
REMARK                            x       y       z     vdW  Elec       q    Type
REMARK                         _______ _______ _______ _____ _____    ______ ____
ROOT
ATOM      1  C   UNL     1       2.899   5.095  19.931  0.00  0.00    +0.000 A 
ATOM      2  C   UNL     1       3.759   4.365  19.088  0.00  0.00    +0.000 A 
ATOM      3  C   UNL     1       4.198   4.911  17.882  0.00  0.00    +0.000 A 
ATOM      4  C   UNL     1       3.681   6.121  17.454  0.00  0.00    +0.000 A 
ATOM      5  C   UNL     1       2.938   6.898  18.330  0.00  0.00    +0.000 A 
ATOM      6  C   UNL     1       2.550   6.410  19.591  0.00  0.00    +0.000 A 
ENDROOT
BRANCH   1   8
ATOM      7  C   UNL     1       2.063   3.083  20.919  0.00  0.00    +0.000 C 
ATOM      8  O   UNL     1       2.544   4.415  21.071  0.00  0.00    +0.000 OA
ENDBRANCH   1   8
BRANCH   3   9
ATOM      9  C   UNL     1       5.224   4.210  17.075  0.00  0.00    +0.000 C 
ATOM     10  N   UNL     1       6.390   4.614  16.648  0.00  0.00    +0.000 NA
BRANCH  10  11
ATOM     11  N   UNL     1       6.920   5.781  17.126  0.00  0.00    +0.000 N 
ATOM     12  N   UNL     1       6.860   6.974  16.495  0.00  0.00    +0.000 NA
ATOM     13  N   UNL     1       7.550   7.820  17.248  0.00  0.00    +0.000 NA
ATOM     14  N   UNL     1       7.939   7.235  18.424  0.00  0.00    +0.000 NA
ATOM     15  C   UNL     1       7.499   5.997  18.383  0.00  0.00    +0.000 A 
ATOM     16  N   UNL     1       7.580   5.050  19.346  0.00  0.00    +0.000 N 
ATOM     17  H   UNL     1       7.717   5.391  20.295  0.00  0.00    +0.000 HD
ATOM     18  H   UNL     1       6.948   4.259  19.285  0.00  0.00    +0.000 HD
ENDBRANCH  10  11
ENDBRANCH   3   9
BRANCH   6  19
ATOM     19  O   UNL     1       1.856   7.192  20.492  0.00  0.00    +0.000 OA
BRANCH  19  20
ATOM     20  C   UNL     1       1.590   8.518  20.029  0.00  0.00    +0.000 C 
BRANCH  20  21
ATOM     21  C   UNL     1       0.632   9.287  20.895  0.00  0.00    +0.000 A 
ATOM     22  C   UNL     1       0.377   8.941  22.227  0.00  0.00    +0.000 A 
ATOM     23  C   UNL     1      -0.457   9.747  23.002  0.00  0.00    +0.000 A 
ATOM     24  C   UNL     1      -1.026  10.893  22.452  0.00  0.00    +0.000 A 
ATOM     25  F   UNL     1      -1.818  11.666  23.201  0.00  0.00    +0.000 F 
ATOM     26  C   UNL     1      -0.771  11.256  21.134  0.00  0.00    +0.000 A 
ATOM     27  C   UNL     1       0.055  10.460  20.361  0.00  0.00    +0.000 A 
ENDBRANCH  20  21
ENDBRANCH  19  20
ENDBRANCH   6  19
TORSDOF 6
ENDMDL
MODEL 5
REMARK VINA RESULT:      -7.9      0.991      1.073
REMARK  Name = 
REMARK  7 active torsions:
REMARK  status: ('A' for Active; 'I' for Inactive)
REMARK    1  A    between atoms: C_1  and  O_2
REMARK    2  A    between atoms: O_2  and  C_3
REMARK    3  A    between atoms: C_5  and  C_6
REMARK    4  A    between atoms: N_7  and  N_8
REMARK    5  A    between atoms: C_16  and  O_17
REMARK    6  A    between atoms: O_17  and  C_18
REMARK    7  A    between atoms: C_18  and  C_19
REMARK                            x       y       z     vdW  Elec       q    Type
REMARK                         _______ _______ _______ _____ _____    ______ ____
ROOT
ATOM      1  C   UNL     1       2.496   4.817  20.296  0.00  0.00    +0.000 A 
ATOM      2  C   UNL     1       3.166   3.943  19.420  0.00  0.00    +0.000 A 
ATOM      3  C   UNL     1       3.508   4.355  18.132  0.00  0.00    +0.000 A 
ATOM      4  C   UNL     1       3.066   5.584  17.672  0.00  0.00    +0.000 A 
ATOM      5  C   UNL     1       2.520   6.494  18.563  0.00  0.00    +0.000 A 
ATOM      6  C   UNL     1       2.242   6.137  19.895  0.00  0.00    +0.000 A 
ENDROOT
BRANCH   1   8
ATOM      7  C   UNL     1       1.569   2.989  21.529  0.00  0.00    +0.000 C 
ATOM      8  O   UNL     1       2.215   4.258  21.519  0.00  0.00    +0.000 OA
ENDBRANCH   1   8
BRANCH   3   9
ATOM      9  C   UNL     1       4.350   3.493  17.270  0.00  0.00    +0.000 C 
ATOM     10  N   UNL     1       5.573   3.656  16.843  0.00  0.00    +0.000 NA
BRANCH  10  11
ATOM     11  N   UNL     1       6.348   4.651  17.372  0.00  0.00    +0.000 N 
ATOM     12  N   UNL     1       7.117   4.530  18.475  0.00  0.00    +0.000 NA
ATOM     13  N   UNL     1       7.640   5.729  18.690  0.00  0.00    +0.000 NA
ATOM     14  N   UNL     1       7.339   6.593  17.670  0.00  0.00    +0.000 NA
ATOM     15  C   UNL     1       6.595   5.916  16.822  0.00  0.00    +0.000 A 
ATOM     16  N   UNL     1       6.111   6.325  15.627  0.00  0.00    +0.000 N 
ATOM     17  H   UNL     1       6.599   7.104  15.192  0.00  0.00    +0.000 HD
ATOM     18  H   UNL     1       5.815   5.611  14.969  0.00  0.00    +0.000 HD
ENDBRANCH  10  11
ENDBRANCH   3   9
BRANCH   6  19
ATOM     19  O   UNL     1       1.747   7.049  20.805  0.00  0.00    +0.000 OA
BRANCH  19  20
ATOM     20  C   UNL     1       1.550   8.359  20.269  0.00  0.00    +0.000 C 
BRANCH  20  21
ATOM     21  C   UNL     1       0.679   9.243  21.118  0.00  0.00    +0.000 A 
ATOM     22  C   UNL     1       0.146   8.822  22.341  0.00  0.00    +0.000 A 
ATOM     23  C   UNL     1      -0.582   9.719  23.122  0.00  0.00    +0.000 A 
ATOM     24  C   UNL     1      -0.771  11.029  22.686  0.00  0.00    +0.000 A 
ATOM     25  F   UNL     1      -1.463  11.887  23.441  0.00  0.00    +0.000 F 
ATOM     26  C   UNL     1      -0.236  11.464  21.478  0.00  0.00    +0.000 A 
ATOM     27  C   UNL     1       0.487  10.578  20.701  0.00  0.00    +0.000 A 
ENDBRANCH  20  21
ENDBRANCH  19  20
ENDBRANCH   6  19
TORSDOF 6
ENDMDL
MODEL 6
REMARK VINA RESULT:      -7.9      1.445      2.113
REMARK  Name = 
REMARK  7 active torsions:
REMARK  status: ('A' for Active; 'I' for Inactive)
REMARK    1  A    between atoms: C_1  and  O_2
REMARK    2  A    between atoms: O_2  and  C_3
REMARK    3  A    between atoms: C_5  and  C_6
REMARK    4  A    between atoms: N_7  and  N_8
REMARK    5  A    between atoms: C_16  and  O_17
REMARK    6  A    between atoms: O_17  and  C_18
REMARK    7  A    between atoms: C_18  and  C_19
REMARK                            x       y       z     vdW  Elec       q    Type
REMARK                         _______ _______ _______ _____ _____    ______ ____
ROOT
ATOM      1  C   UNL     1       2.870   4.643  18.148  0.00  0.00    +0.000 A 
ATOM      2  C   UNL     1       3.902   4.340  17.240  0.00  0.00    +0.000 A 
ATOM      3  C   UNL     1       4.642   5.361  16.643  0.00  0.00    +0.000 A 
ATOM      4  C   UNL     1       4.270   6.678  16.845  0.00  0.00    +0.000 A 
ATOM      5  C   UNL     1       3.343   6.986  17.829  0.00  0.00    +0.000 A 
ATOM      6  C   UNL     1       2.640   5.978  18.513  0.00  0.00    +0.000 A 
ENDROOT
BRANCH   1   8
ATOM      7  C   UNL     1       2.336   2.326  17.886  0.00  0.00    +0.000 C 
ATOM      8  O   UNL     1       2.225   3.532  18.635  0.00  0.00    +0.000 OA
ENDBRANCH   1   8
BRANCH   3   9
ATOM      9  C   UNL     1       5.826   5.038  15.814  0.00  0.00    +0.000 C 
ATOM     10  N   UNL     1       7.101   5.151  16.073  0.00  0.00    +0.000 NA
BRANCH  10  11
ATOM     11  N   UNL     1       7.511   5.421  17.350  0.00  0.00    +0.000 N 
ATOM     12  N   UNL     1       7.829   4.489  18.275  0.00  0.00    +0.000 NA
ATOM     13  N   UNL     1       8.098   5.156  19.388  0.00  0.00    +0.000 NA
ATOM     14  N   UNL     1       8.097   6.509  19.171  0.00  0.00    +0.000 NA
ATOM     15  C   UNL     1       7.798   6.677  17.901  0.00  0.00    +0.000 A 
ATOM     16  N   UNL     1       7.744   7.834  17.203  0.00  0.00    +0.000 N 
ATOM     17  H   UNL     1       8.267   8.615  17.593  0.00  0.00    +0.000 HD
ATOM     18  H   UNL     1       7.793   7.778  16.191  0.00  0.00    +0.000 HD
ENDBRANCH  10  11
ENDBRANCH   3   9
BRANCH   6  19
ATOM     19  O   UNL     1       1.754   6.270  19.530  0.00  0.00    +0.000 OA
BRANCH  19  20
ATOM     20  C   UNL     1       2.220   7.267  20.441  0.00  0.00    +0.000 C 
BRANCH  20  21
ATOM     21  C   UNL     1       1.310   8.458  20.563  0.00  0.00    +0.000 A 
ATOM     22  C   UNL     1       0.997   9.280  19.474  0.00  0.00    +0.000 A 
ATOM     23  C   UNL     1       0.077  10.316  19.635  0.00  0.00    +0.000 A 
ATOM     24  C   UNL     1      -0.529  10.525  20.872  0.00  0.00    +0.000 A 
ATOM     25  F   UNL     1      -1.415  11.515  21.018  0.00  0.00    +0.000 F 
ATOM     26  C   UNL     1      -0.237   9.708  21.958  0.00  0.00    +0.000 A 
ATOM     27  C   UNL     1       0.675   8.679  21.804  0.00  0.00    +0.000 A 
ENDBRANCH  20  21
ENDBRANCH  19  20
ENDBRANCH   6  19
TORSDOF 6
ENDMDL
MODEL 7
REMARK VINA RESULT:      -7.8      1.762      2.403
REMARK  Name = 
REMARK  7 active torsions:
REMARK  status: ('A' for Active; 'I' for Inactive)
REMARK    1  A    between atoms: C_1  and  O_2
REMARK    2  A    between atoms: O_2  and  C_3
REMARK    3  A    between atoms: C_5  and  C_6
REMARK    4  A    between atoms: N_7  and  N_8
REMARK    5  A    between atoms: C_16  and  O_17
REMARK    6  A    between atoms: O_17  and  C_18
REMARK    7  A    between atoms: C_18  and  C_19
REMARK                            x       y       z     vdW  Elec       q    Type
REMARK                         _______ _______ _______ _____ _____    ______ ____
ROOT
ATOM      1  C   UNL     1       2.732   5.966  19.616  0.00  0.00    +0.000 A 
ATOM      2  C   UNL     1       3.672   5.031  19.144  0.00  0.00    +0.000 A 
ATOM      3  C   UNL     1       4.381   5.272  17.966  0.00  0.00    +0.000 A 
ATOM      4  C   UNL     1       4.060   6.373  17.192  0.00  0.00    +0.000 A 
ATOM      5  C   UNL     1       3.231   7.357  17.709  0.00  0.00    +0.000 A 
ATOM      6  C   UNL     1       2.568   7.184  18.937  0.00  0.00    +0.000 A 
ENDROOT
BRANCH   1   8
ATOM      7  C   UNL     1       1.470   4.303  20.784  0.00  0.00    +0.000 C 
ATOM      8  O   UNL     1       2.107   5.578  20.775  0.00  0.00    +0.000 OA
ENDBRANCH   1   8
BRANCH   3   9
ATOM      9  C   UNL     1       5.479   4.366  17.557  0.00  0.00    +0.000 C 
ATOM     10  N   UNL     1       6.726   4.621  17.266  0.00  0.00    +0.000 NA
BRANCH  10  11
ATOM     11  N   UNL     1       7.245   5.858  17.533  0.00  0.00    +0.000 N 
ATOM     12  N   UNL     1       7.177   6.921  16.703  0.00  0.00    +0.000 NA
ATOM     13  N   UNL     1       7.858   7.892  17.296  0.00  0.00    +0.000 NA
ATOM     14  N   UNL     1       8.248   7.527  18.558  0.00  0.00    +0.000 NA
ATOM     15  C   UNL     1       7.817   6.296  18.733  0.00  0.00    +0.000 A 
ATOM     16  N   UNL     1       7.903   5.534  19.848  0.00  0.00    +0.000 N 
ATOM     17  H   UNL     1       8.034   6.037  20.723  0.00  0.00    +0.000 HD
ATOM     18  H   UNL     1       7.278   4.739  19.925  0.00  0.00    +0.000 HD
ENDBRANCH  10  11
ENDBRANCH   3   9
BRANCH   6  19
ATOM     19  O   UNL     1       1.782   8.176  19.487  0.00  0.00    +0.000 OA
BRANCH  19  20
ATOM     20  C   UNL     1       1.634   9.329  18.656  0.00  0.00    +0.000 C 
BRANCH  20  21
ATOM     21  C   UNL     1       0.295  10.003  18.778  0.00  0.00    +0.000 A 
ATOM     22  C   UNL     1      -0.011  10.886  19.819  0.00  0.00    +0.000 A 
ATOM     23  C   UNL     1      -1.241  11.545  19.826  0.00  0.00    +0.000 A 
ATOM     24  C   UNL     1      -2.154  11.326  18.797  0.00  0.00    +0.000 A 
ATOM     25  F   UNL     1      -3.327  11.966  18.804  0.00  0.00    +0.000 F 
ATOM     26  C   UNL     1      -1.858  10.461  17.749  0.00  0.00    +0.000 A 
ATOM     27  C   UNL     1      -0.639   9.806  17.738  0.00  0.00    +0.000 A 
ENDBRANCH  20  21
ENDBRANCH  19  20
ENDBRANCH   6  19
TORSDOF 6
ENDMDL
MODEL 8
REMARK VINA RESULT:      -7.6      1.552      1.781
REMARK  Name = 
REMARK  7 active torsions:
REMARK  status: ('A' for Active; 'I' for Inactive)
REMARK    1  A    between atoms: C_1  and  O_2
REMARK    2  A    between atoms: O_2  and  C_3
REMARK    3  A    between atoms: C_5  and  C_6
REMARK    4  A    between atoms: N_7  and  N_8
REMARK    5  A    between atoms: C_16  and  O_17
REMARK    6  A    between atoms: O_17  and  C_18
REMARK    7  A    between atoms: C_18  and  C_19
REMARK                            x       y       z     vdW  Elec       q    Type
REMARK                         _______ _______ _______ _____ _____    ______ ____
ROOT
ATOM      1  C   UNL     1       2.146   5.838  20.035  0.00  0.00    +0.000 A 
ATOM      2  C   UNL     1       2.763   4.997  19.090  0.00  0.00    +0.000 A 
ATOM      3  C   UNL     1       3.342   5.530  17.938  0.00  0.00    +0.000 A 
ATOM      4  C   UNL     1       3.191   6.878  17.663  0.00  0.00    +0.000 A 
ATOM      5  C   UNL     1       2.699   7.728  18.642  0.00  0.00    +0.000 A 
ATOM      6  C   UNL     1       2.186   7.229  19.853  0.00  0.00    +0.000 A 
ENDROOT
BRANCH   1   8
ATOM      7  C   UNL     1       2.144   3.874  21.401  0.00  0.00    +0.000 C 
ATOM      8  O   UNL     1       1.610   5.161  21.103  0.00  0.00    +0.000 OA
ENDBRANCH   1   8
BRANCH   3   9
ATOM      9  C   UNL     1       4.126   4.665  17.026  0.00  0.00    +0.000 C 
ATOM     10  N   UNL     1       5.416   4.491  16.922  0.00  0.00    +0.000 NA
BRANCH  10  11
ATOM     11  N   UNL     1       6.248   4.996  17.883  0.00  0.00    +0.000 N 
ATOM     12  N   UNL     1       6.362   4.513  19.139  0.00  0.00    +0.000 NA
ATOM     13  N   UNL     1       7.206   5.320  19.766  0.00  0.00    +0.000 NA
ATOM     14  N   UNL     1       7.751   6.236  18.904  0.00  0.00    +0.000 NA
ATOM     15  C   UNL     1       7.212   6.000  17.728  0.00  0.00    +0.000 A 
ATOM     16  N   UNL     1       7.487   6.603  16.548  0.00  0.00    +0.000 N 
ATOM     17  H   UNL     1       8.391   7.065  16.484  0.00  0.00    +0.000 HD
ATOM     18  H   UNL     1       7.214   6.122  15.698  0.00  0.00    +0.000 HD
ENDBRANCH  10  11
ENDBRANCH   3   9
BRANCH   6  19
ATOM     19  O   UNL     1       1.743   8.066  20.856  0.00  0.00    +0.000 OA
BRANCH  19  20
ATOM     20  C   UNL     1       0.383   8.480  20.711  0.00  0.00    +0.000 C 
BRANCH  20  21
ATOM     21  C   UNL     1       0.222   9.908  20.270  0.00  0.00    +0.000 A 
ATOM     22  C   UNL     1       0.830  10.975  20.940  0.00  0.00    +0.000 A 
ATOM     23  C   UNL     1       0.713  12.268  20.428  0.00  0.00    +0.000 A 
ATOM     24  C   UNL     1      -0.002  12.490  19.254  0.00  0.00    +0.000 A 
ATOM     25  F   UNL     1      -0.105  13.729  18.764  0.00  0.00    +0.000 F 
ATOM     26  C   UNL     1      -0.601  11.437  18.571  0.00  0.00    +0.000 A 
ATOM     27  C   UNL     1      -0.487  10.154  19.074  0.00  0.00    +0.000 A 
ENDBRANCH  20  21
ENDBRANCH  19  20
ENDBRANCH   6  19
TORSDOF 6
ENDMDL
MODEL 9
REMARK VINA RESULT:      -7.6      5.774      8.760
REMARK  Name = 
REMARK  7 active torsions:
REMARK  status: ('A' for Active; 'I' for Inactive)
REMARK    1  A    between atoms: C_1  and  O_2
REMARK    2  A    between atoms: O_2  and  C_3
REMARK    3  A    between atoms: C_5  and  C_6
REMARK    4  A    between atoms: N_7  and  N_8
REMARK    5  A    between atoms: C_16  and  O_17
REMARK    6  A    between atoms: O_17  and  C_18
REMARK    7  A    between atoms: C_18  and  C_19
REMARK                            x       y       z     vdW  Elec       q    Type
REMARK                         _______ _______ _______ _____ _____    ______ ____
ROOT
ATOM      1  C   UNL     1       5.422   5.377  18.867  0.00  0.00    +0.000 A 
ATOM      2  C   UNL     1       4.351   5.439  19.778  0.00  0.00    +0.000 A 
ATOM      3  C   UNL     1       3.149   6.049  19.418  0.00  0.00    +0.000 A 
ATOM      4  C   UNL     1       3.058   6.709  18.206  0.00  0.00    +0.000 A 
ATOM      5  C   UNL     1       4.057   6.545  17.258  0.00  0.00    +0.000 A 
ATOM      6  C   UNL     1       5.247   5.860  17.561  0.00  0.00    +0.000 A 
ENDROOT
BRANCH   1   8
ATOM      7  C   UNL     1       7.681   5.577  19.629  0.00  0.00    +0.000 C 
ATOM      8  O   UNL     1       6.540   4.762  19.376  0.00  0.00    +0.000 OA
ENDBRANCH   1   8
BRANCH   3   9
ATOM      9  C   UNL     1       1.974   5.974  20.318  0.00  0.00    +0.000 C 
ATOM     10  N   UNL     1       1.064   5.047  20.450  0.00  0.00    +0.000 NA
BRANCH  10  11
ATOM     11  N   UNL     1       1.240   3.833  19.845  0.00  0.00    +0.000 N 
ATOM     12  N   UNL     1       1.075   3.595  18.525  0.00  0.00    +0.000 NA
ATOM     13  N   UNL     1       1.265   2.294  18.362  0.00  0.00    +0.000 NA
ATOM     14  N   UNL     1       1.689   1.703  19.524  0.00  0.00    +0.000 NA
ATOM     15  C   UNL     1       1.736   2.660  20.426  0.00  0.00    +0.000 A 
ATOM     16  N   UNL     1       2.162   2.576  21.707  0.00  0.00    +0.000 N 
ATOM     17  H   UNL     1       2.781   1.798  21.922  0.00  0.00    +0.000 HD
ATOM     18  H   UNL     1       2.415   3.439  22.177  0.00  0.00    +0.000 HD
ENDBRANCH  10  11
ENDBRANCH   3   9
BRANCH   6  19
ATOM     19  O   UNL     1       6.225   5.645  16.613  0.00  0.00    +0.000 OA
BRANCH  19  20
ATOM     20  C   UNL     1       6.181   4.347  16.014  0.00  0.00    +0.000 C 
BRANCH  20  21
ATOM     21  C   UNL     1       6.541   4.335  14.554  0.00  0.00    +0.000 A 
ATOM     22  C   UNL     1       5.868   3.540  13.620  0.00  0.00    +0.000 A 
ATOM     23  C   UNL     1       6.193   3.640  12.267  0.00  0.00    +0.000 A 
ATOM     24  C   UNL     1       7.180   4.531  11.852  0.00  0.00    +0.000 A 
ATOM     25  F   UNL     1       7.483   4.627  10.554  0.00  0.00    +0.000 F 
ATOM     26  C   UNL     1       7.849   5.335  12.768  0.00  0.00    +0.000 A 
ATOM     27  C   UNL     1       7.529   5.240  14.110  0.00  0.00    +0.000 A 
ENDBRANCH  20  21
ENDBRANCH  19  20
ENDBRANCH   6  19
TORSDOF 6
ENDMDL
