MODEL 1
REMARK VINA RESULT:      -5.8      0.000      0.000
REMARK  Name = 
REMARK  3 active torsions:
REMARK  status: ('A' for Active; 'I' for Inactive)
REMARK    1  A    between atoms: C_1  and  N_2
REMARK    2  A    between atoms: N_6  and  C_7
REMARK    3  A    between atoms: N_10  and  C_11
REMARK                            x       y       z     vdW  Elec       q    Type
REMARK                         _______ _______ _______ _____ _____    ______ ____
ROOT
ATOM      1  C   UNL     1       7.820   6.913  18.227  0.00  0.00    +0.000 C 
ATOM      2  N   UNL     1       7.544   6.954  16.806  0.00  0.00    +0.000 N 
ATOM      3  C   UNL     1       6.902   5.820  16.315  0.00  0.00    +0.000 A 
ATOM      4  N   UNL     1       6.100   5.124  17.108  0.00  0.00    +0.000 NA
ATOM      5  C   UNL     1       5.549   4.049  16.577  0.00  0.00    +0.000 A 
ATOM      6  N   UNL     1       4.772   3.204  17.357  0.00  0.00    +0.000 N 
ATOM      7  C   UNL     1       3.955   3.818  18.376  0.00  0.00    +0.000 C 
ATOM      8  N   UNL     1       5.732   3.665  15.324  0.00  0.00    +0.000 NA
ATOM      9  C   UNL     1       6.546   4.420  14.600  0.00  0.00    +0.000 A 
ATOM     10  N   UNL     1       6.854   4.057  13.296  0.00  0.00    +0.000 N 
ATOM     11  C   UNL     1       5.792   3.459  12.517  0.00  0.00    +0.000 C 
ATOM     12  N   UNL     1       7.160   5.504  15.053  0.00  0.00    +0.000 NA
ATOM     13  H   UNL     1       8.349   7.113  16.209  0.00  0.00    +0.000 HD
ATOM     14  H   UNL     1       4.294   2.568  16.731  0.00  0.00    +0.000 HD
ATOM     15  H   UNL     1       7.317   4.849  12.863  0.00  0.00    +0.000 HD
ENDROOT
TORSDOF 0
ENDMDL
MODEL 2
REMARK VINA RESULT:      -5.5      2.224      3.289
REMARK  Name = 
REMARK  3 active torsions:
REMARK  status: ('A' for Active; 'I' for Inactive)
REMARK    1  A    between atoms: C_1  and  N_2
REMARK    2  A    between atoms: N_6  and  C_7
REMARK    3  A    between atoms: N_10  and  C_11
REMARK                            x       y       z     vdW  Elec       q    Type
REMARK                         _______ _______ _______ _____ _____    ______ ____
ROOT
ATOM      1  C   UNL     1       2.350   7.021  19.638  0.00  0.00    +0.000 C 
ATOM      2  N   UNL     1       2.710   6.933  18.239  0.00  0.00    +0.000 N 
ATOM      3  C   UNL     1       3.764   6.062  17.973  0.00  0.00    +0.000 A 
ATOM      4  N   UNL     1       3.962   5.012  18.757  0.00  0.00    +0.000 NA
ATOM      5  C   UNL     1       4.995   4.248  18.455  0.00  0.00    +0.000 A 
ATOM      6  N   UNL     1       5.340   3.183  19.274  0.00  0.00    +0.000 N 
ATOM      7  C   UNL     1       4.258   2.457  19.896  0.00  0.00    +0.000 C 
ATOM      8  N   UNL     1       5.796   4.460  17.424  0.00  0.00    +0.000 NA
ATOM      9  C   UNL     1       5.524   5.531  16.689  0.00  0.00    +0.000 A 
ATOM     10  N   UNL     1       6.351   5.873  15.629  0.00  0.00    +0.000 N 
ATOM     11  C   UNL     1       6.910   4.784  14.858  0.00  0.00    +0.000 C 
ATOM     12  N   UNL     1       4.523   6.365  16.928  0.00  0.00    +0.000 NA
ATOM     13  H   UNL     1       2.943   7.814  17.791  0.00  0.00    +0.000 HD
ATOM     14  H   UNL     1       6.018   2.622  18.773  0.00  0.00    +0.000 HD
ATOM     15  H   UNL     1       5.871   6.585  15.088  0.00  0.00    +0.000 HD
ENDROOT
TORSDOF 0
ENDMDL
MODEL 3
REMARK VINA RESULT:      -5.5      1.534      3.934
REMARK  Name = 
REMARK  3 active torsions:
REMARK  status: ('A' for Active; 'I' for Inactive)
REMARK    1  A    between atoms: C_1  and  N_2
REMARK    2  A    between atoms: N_6  and  C_7
REMARK    3  A    between atoms: N_10  and  C_11
REMARK                            x       y       z     vdW  Elec       q    Type
REMARK                         _______ _______ _______ _____ _____    ______ ____
ROOT
ATOM      1  C   UNL     1       7.956   6.611  18.607  0.00  0.00    +0.000 C 
ATOM      2  N   UNL     1       7.395   5.437  19.242  0.00  0.00    +0.000 N 
ATOM      3  C   UNL     1       6.408   4.799  18.494  0.00  0.00    +0.000 A 
ATOM      4  N   UNL     1       6.444   4.861  17.171  0.00  0.00    +0.000 NA
ATOM      5  C   UNL     1       5.461   4.252  16.535  0.00  0.00    +0.000 A 
ATOM      6  N   UNL     1       5.360   4.344  15.154  0.00  0.00    +0.000 N 
ATOM      7  C   UNL     1       6.594   4.367  14.405  0.00  0.00    +0.000 C 
ATOM      8  N   UNL     1       4.492   3.582  17.136  0.00  0.00    +0.000 NA
ATOM      9  C   UNL     1       4.535   3.567  18.462  0.00  0.00    +0.000 A 
ATOM     10  N   UNL     1       3.522   2.949  19.182  0.00  0.00    +0.000 N 
ATOM     11  C   UNL     1       2.966   1.738  18.620  0.00  0.00    +0.000 C 
ATOM     12  N   UNL     1       5.470   4.167  19.186  0.00  0.00    +0.000 NA
ATOM     13  H   UNL     1       7.006   5.586  20.168  0.00  0.00    +0.000 HD
ATOM     14  H   UNL     1       4.674   3.662  14.855  0.00  0.00    +0.000 HD
ATOM     15  H   UNL     1       3.836   2.876  20.144  0.00  0.00    +0.000 HD
ENDROOT
TORSDOF 0
ENDMDL
MODEL 4
REMARK VINA RESULT:      -5.5      0.836      3.747
REMARK  Name = 
REMARK  3 active torsions:
REMARK  status: ('A' for Active; 'I' for Inactive)
REMARK    1  A    between atoms: C_1  and  N_2
REMARK    2  A    between atoms: N_6  and  C_7
REMARK    3  A    between atoms: N_10  and  C_11
REMARK                            x       y       z     vdW  Elec       q    Type
REMARK                         _______ _______ _______ _____ _____    ______ ____
ROOT
ATOM      1  C   UNL     1       5.485   3.507  12.843  0.00  0.00    +0.000 C 
ATOM      2  N   UNL     1       6.628   3.884  13.648  0.00  0.00    +0.000 N 
ATOM      3  C   UNL     1       6.299   4.490  14.858  0.00  0.00    +0.000 A 
ATOM      4  N   UNL     1       5.160   4.179  15.460  0.00  0.00    +0.000 NA
ATOM      5  C   UNL     1       4.910   4.813  16.590  0.00  0.00    +0.000 A 
ATOM      6  N   UNL     1       3.699   4.627  17.242  0.00  0.00    +0.000 N 
ATOM      7  C   UNL     1       3.124   3.304  17.193  0.00  0.00    +0.000 C 
ATOM      8  N   UNL     1       5.728   5.693  17.143  0.00  0.00    +0.000 NA
ATOM      9  C   UNL     1       6.847   5.942  16.476  0.00  0.00    +0.000 A 
ATOM     10  N   UNL     1       7.735   6.902  16.943  0.00  0.00    +0.000 N 
ATOM     11  C   UNL     1       7.896   7.000  18.377  0.00  0.00    +0.000 C 
ATOM     12  N   UNL     1       7.174   5.370  15.326  0.00  0.00    +0.000 NA
ATOM     13  H   UNL     1       7.301   4.492  13.193  0.00  0.00    +0.000 HD
ATOM     14  H   UNL     1       3.785   5.038  18.163  0.00  0.00    +0.000 HD
ATOM     15  H   UNL     1       8.596   6.799  16.416  0.00  0.00    +0.000 HD
ENDROOT
TORSDOF 0
ENDMDL
MODEL 5
REMARK VINA RESULT:      -5.4      1.580      4.570
REMARK  Name = 
REMARK  3 active torsions:
REMARK  status: ('A' for Active; 'I' for Inactive)
REMARK    1  A    between atoms: C_1  and  N_2
REMARK    2  A    between atoms: N_6  and  C_7
REMARK    3  A    between atoms: N_10  and  C_11
REMARK                            x       y       z     vdW  Elec       q    Type
REMARK                         _______ _______ _______ _____ _____    ______ ____
ROOT
ATOM      1  C   UNL     1       6.559   4.400  14.488  0.00  0.00    +0.000 C 
ATOM      2  N   UNL     1       5.269   4.266  15.130  0.00  0.00    +0.000 N 
ATOM      3  C   UNL     1       5.326   4.195  16.520  0.00  0.00    +0.000 A 
ATOM      4  N   UNL     1       6.308   4.804  17.168  0.00  0.00    +0.000 NA
ATOM      5  C   UNL     1       6.307   4.670  18.481  0.00  0.00    +0.000 A 
ATOM      6  N   UNL     1       7.349   5.189  19.237  0.00  0.00    +0.000 N 
ATOM      7  C   UNL     1       7.924   6.436  18.793  0.00  0.00    +0.000 C 
ATOM      8  N   UNL     1       5.386   4.003  19.157  0.00  0.00    +0.000 NA
ATOM      9  C   UNL     1       4.437   3.428  18.430  0.00  0.00    +0.000 A 
ATOM     10  N   UNL     1       3.467   2.649  19.045  0.00  0.00    +0.000 N 
ATOM     11  C   UNL     1       2.999   3.092  20.341  0.00  0.00    +0.000 C 
ATOM     12  N   UNL     1       4.368   3.491  17.107  0.00  0.00    +0.000 NA
ATOM     13  H   UNL     1       4.708   3.477  14.822  0.00  0.00    +0.000 HD
ATOM     14  H   UNL     1       7.064   5.154  20.208  0.00  0.00    +0.000 HD
ATOM     15  H   UNL     1       2.741   2.473  18.359  0.00  0.00    +0.000 HD
ENDROOT
TORSDOF 0
ENDMDL
MODEL 6
REMARK VINA RESULT:      -5.4      2.395      4.770
REMARK  Name = 
REMARK  3 active torsions:
REMARK  status: ('A' for Active; 'I' for Inactive)
REMARK    1  A    between atoms: C_1  and  N_2
REMARK    2  A    between atoms: N_6  and  C_7
REMARK    3  A    between atoms: N_10  and  C_11
REMARK                            x       y       z     vdW  Elec       q    Type
REMARK                         _______ _______ _______ _____ _____    ______ ____
ROOT
ATOM      1  C   UNL     1       0.811   2.295  18.802  0.00  0.00    +0.000 C 
ATOM      2  N   UNL     1       2.216   2.010  18.603  0.00  0.00    +0.000 N 
ATOM      3  C   UNL     1       2.969   3.105  18.186  0.00  0.00    +0.000 A 
ATOM      4  N   UNL     1       2.604   4.327  18.545  0.00  0.00    +0.000 NA
ATOM      5  C   UNL     1       3.354   5.314  18.090  0.00  0.00    +0.000 A 
ATOM      6  N   UNL     1       2.995   6.632  18.331  0.00  0.00    +0.000 N 
ATOM      7  C   UNL     1       2.384   6.924  19.606  0.00  0.00    +0.000 C 
ATOM      8  N   UNL     1       4.432   5.141  17.342  0.00  0.00    +0.000 NA
ATOM      9  C   UNL     1       4.727   3.885  17.034  0.00  0.00    +0.000 A 
ATOM     10  N   UNL     1       5.799   3.610  16.196  0.00  0.00    +0.000 N 
ATOM     11  C   UNL     1       6.969   4.450  16.335  0.00  0.00    +0.000 C 
ATOM     12  N   UNL     1       4.022   2.834  17.427  0.00  0.00    +0.000 NA
ATOM     13  H   UNL     1       2.422   1.254  17.956  0.00  0.00    +0.000 HD
ATOM     14  H   UNL     1       3.785   7.212  18.077  0.00  0.00    +0.000 HD
ATOM     15  H   UNL     1       5.974   2.612  16.246  0.00  0.00    +0.000 HD
ENDROOT
TORSDOF 0
ENDMDL
MODEL 7
REMARK VINA RESULT:      -5.4      3.240      5.324
REMARK  Name = 
REMARK  3 active torsions:
REMARK  status: ('A' for Active; 'I' for Inactive)
REMARK    1  A    between atoms: C_1  and  N_2
REMARK    2  A    between atoms: N_6  and  C_7
REMARK    3  A    between atoms: N_10  and  C_11
REMARK                            x       y       z     vdW  Elec       q    Type
REMARK                         _______ _______ _______ _____ _____    ______ ____
ROOT
ATOM      1  C   UNL     1       7.353   5.254  18.001  0.00  0.00    +0.000 C 
ATOM      2  N   UNL     1       6.524   4.084  18.200  0.00  0.00    +0.000 N 
ATOM      3  C   UNL     1       5.280   4.355  18.766  0.00  0.00    +0.000 A 
ATOM      4  N   UNL     1       4.701   5.527  18.549  0.00  0.00    +0.000 NA
ATOM      5  C   UNL     1       3.536   5.717  19.139  0.00  0.00    +0.000 A 
ATOM      6  N   UNL     1       2.901   6.947  19.051  0.00  0.00    +0.000 N 
ATOM      7  C   UNL     1       3.030   7.665  17.806  0.00  0.00    +0.000 C 
ATOM      8  N   UNL     1       2.929   4.811  19.888  0.00  0.00    +0.000 NA
ATOM      9  C   UNL     1       3.576   3.664  20.049  0.00  0.00    +0.000 A 
ATOM     10  N   UNL     1       3.050   2.680  20.874  0.00  0.00    +0.000 N 
ATOM     11  C   UNL     1       1.612   2.523  20.869  0.00  0.00    +0.000 C 
ATOM     12  N   UNL     1       4.758   3.392  19.513  0.00  0.00    +0.000 NA
ATOM     13  H   UNL     1       6.939   3.343  18.754  0.00  0.00    +0.000 HD
ATOM     14  H   UNL     1       1.956   6.824  19.395  0.00  0.00    +0.000 HD
ATOM     15  H   UNL     1       3.580   1.831  20.708  0.00  0.00    +0.000 HD
ENDROOT
TORSDOF 0
ENDMDL
MODEL 8
REMARK VINA RESULT:      -5.4      3.287      5.415
REMARK  Name = 
REMARK  3 active torsions:
REMARK  status: ('A' for Active; 'I' for Inactive)
REMARK    1  A    between atoms: C_1  and  N_2
REMARK    2  A    between atoms: N_6  and  C_7
REMARK    3  A    between atoms: N_10  and  C_11
REMARK                            x       y       z     vdW  Elec       q    Type
REMARK                         _______ _______ _______ _____ _____    ______ ____
ROOT
ATOM      1  C   UNL     1       1.486   2.683  20.936  0.00  0.00    +0.000 C 
ATOM      2  N   UNL     1       2.934   2.670  20.926  0.00  0.00    +0.000 N 
ATOM      3  C   UNL     1       3.510   3.667  20.142  0.00  0.00    +0.000 A 
ATOM      4  N   UNL     1       2.874   4.817  19.971  0.00  0.00    +0.000 NA
ATOM      5  C   UNL     1       3.473   5.701  19.195  0.00  0.00    +0.000 A 
ATOM      6  N   UNL     1       2.840   6.894  18.878  0.00  0.00    +0.000 N 
ATOM      7  C   UNL     1       2.026   7.499  19.905  0.00  0.00    +0.000 C 
ATOM      8  N   UNL     1       4.650   5.508  18.623  0.00  0.00    +0.000 NA
ATOM      9  C   UNL     1       5.218   4.331  18.851  0.00  0.00    +0.000 A 
ATOM     10  N   UNL     1       6.421   4.011  18.237  0.00  0.00    +0.000 N 
ATOM     11  C   UNL     1       7.380   5.082  18.082  0.00  0.00    +0.000 C 
ATOM     12  N   UNL     1       4.683   3.375  19.598  0.00  0.00    +0.000 NA
ATOM     13  H   UNL     1       3.361   1.794  20.641  0.00  0.00    +0.000 HD
ATOM     14  H   UNL     1       3.530   7.498  18.448  0.00  0.00    +0.000 HD
ATOM     15  H   UNL     1       6.776   3.173  18.686  0.00  0.00    +0.000 HD
ENDROOT
TORSDOF 0
ENDMDL
MODEL 9
REMARK VINA RESULT:      -5.3      2.023      3.058
REMARK  Name = 
REMARK  3 active torsions:
REMARK  status: ('A' for Active; 'I' for Inactive)
REMARK    1  A    between atoms: C_1  and  N_2
REMARK    2  A    between atoms: N_6  and  C_7
REMARK    3  A    between atoms: N_10  and  C_11
REMARK                            x       y       z     vdW  Elec       q    Type
REMARK                         _______ _______ _______ _____ _____    ______ ____
ROOT
ATOM      1  C   UNL     1       2.475   6.617  19.561  0.00  0.00    +0.000 C 
ATOM      2  N   UNL     1       2.996   6.922  18.246  0.00  0.00    +0.000 N 
ATOM      3  C   UNL     1       3.762   5.903  17.684  0.00  0.00    +0.000 A 
ATOM      4  N   UNL     1       3.510   4.642  18.002  0.00  0.00    +0.000 NA
ATOM      5  C   UNL     1       4.294   3.736  17.447  0.00  0.00    +0.000 A 
ATOM      6  N   UNL     1       4.171   2.398  17.795  0.00  0.00    +0.000 N 
ATOM      7  C   UNL     1       2.839   1.910  18.062  0.00  0.00    +0.000 C 
ATOM      8  N   UNL     1       5.267   4.019  16.597  0.00  0.00    +0.000 NA
ATOM      9  C   UNL     1       5.448   5.307  16.331  0.00  0.00    +0.000 A 
ATOM     10  N   UNL     1       6.489   5.705  15.505  0.00  0.00    +0.000 N 
ATOM     11  C   UNL     1       6.799   4.846  14.383  0.00  0.00    +0.000 C 
ATOM     12  N   UNL     1       4.724   6.286  16.855  0.00  0.00    +0.000 NA
ATOM     13  H   UNL     1       3.551   7.770  18.181  0.00  0.00    +0.000 HD
ATOM     14  H   UNL     1       4.713   1.862  17.128  0.00  0.00    +0.000 HD
ATOM     15  H   UNL     1       6.336   6.681  15.274  0.00  0.00    +0.000 HD
ENDROOT
TORSDOF 0
ENDMDL
