MODEL 1
REMARK VINA RESULT:      -7.8      0.000      0.000
REMARK  Name = 
REMARK  4 active torsions:
REMARK  status: ('A' for Active; 'I' for Inactive)
REMARK    1  A    between atoms: C_1  and  C_2
REMARK    2  A    between atoms: C_2  and  O_3
REMARK    3  A    between atoms: O_3  and  C_4
REMARK    4  A    between atoms: C_6  and  C_7
REMARK                            x       y       z     vdW  Elec       q    Type
REMARK                         _______ _______ _______ _____ _____    ______ ____
ROOT
ATOM      1  C   UNL     1       6.585   4.495  17.964  0.00  0.00    +0.000 A 
ATOM      2  N   UNL     1       5.570   4.285  18.824  0.00  0.00    +0.000 NA
ATOM      3  C   UNL     1       4.362   4.086  18.271  0.00  0.00    +0.000 A 
ATOM      4  N   UNL     1       4.113   4.142  16.956  0.00  0.00    +0.000 NA
ATOM      5  C   UNL     1       5.140   4.325  16.124  0.00  0.00    +0.000 A 
ATOM      6  C   UNL     1       4.897   4.301  14.760  0.00  0.00    +0.000 A 
ATOM      7  C   UNL     1       5.924   4.458  13.826  0.00  0.00    +0.000 A 
ATOM      8  C   UNL     1       7.227   4.662  14.264  0.00  0.00    +0.000 A 
ATOM      9  C   UNL     1       7.492   4.701  15.633  0.00  0.00    +0.000 A 
ATOM     10  C   UNL     1       6.447   4.523  16.573  0.00  0.00    +0.000 A 
ENDROOT
BRANCH   3  11
ATOM     11  C   UNL     1       3.221   3.828  19.167  0.00  0.00    +0.000 A 
ATOM     12  C   UNL     1       2.835   2.497  19.439  0.00  0.00    +0.000 A 
ATOM     13  C   UNL     1       1.794   2.196  20.324  0.00  0.00    +0.000 A 
ATOM     14  C   UNL     1       1.107   3.224  20.961  0.00  0.00    +0.000 A 
ATOM     15  C   UNL     1       1.444   4.547  20.692  0.00  0.00    +0.000 A 
ATOM     16  C   UNL     1       2.479   4.849  19.799  0.00  0.00    +0.000 A 
ATOM     17 CL   UNL     1       2.721   6.540  19.488  0.00  0.00    +0.000 Cl
ENDBRANCH   3  11
BRANCH   1  18
ATOM     18  O   UNL     1       7.852   4.726  18.483  0.00  0.00    +0.000 OA
BRANCH  18  20
ATOM     19  C   UNL     1       8.018   7.114  18.441  0.00  0.00    +0.000 C 
ATOM     20  C   UNL     1       7.907   5.881  19.321  0.00  0.00    +0.000 C 
ENDBRANCH  18  20
ENDBRANCH   1  18
TORSDOF 3
ENDMDL
MODEL 2
REMARK VINA RESULT:      -7.7      1.280      1.669
REMARK  Name = 
REMARK  4 active torsions:
REMARK  status: ('A' for Active; 'I' for Inactive)
REMARK    1  A    between atoms: C_1  and  C_2
REMARK    2  A    between atoms: C_2  and  O_3
REMARK    3  A    between atoms: O_3  and  C_4
REMARK    4  A    between atoms: C_6  and  C_7
REMARK                            x       y       z     vdW  Elec       q    Type
REMARK                         _______ _______ _______ _____ _____    ______ ____
ROOT
ATOM      1  C   UNL     1       6.620   4.780  17.682  0.00  0.00    +0.000 A 
ATOM      2  N   UNL     1       5.647   4.565  18.589  0.00  0.00    +0.000 NA
ATOM      3  C   UNL     1       4.451   4.204  18.094  0.00  0.00    +0.000 A 
ATOM      4  N   UNL     1       4.171   4.107  16.788  0.00  0.00    +0.000 NA
ATOM      5  C   UNL     1       5.158   4.300  15.911  0.00  0.00    +0.000 A 
ATOM      6  C   UNL     1       4.889   4.119  14.564  0.00  0.00    +0.000 A 
ATOM      7  C   UNL     1       5.876   4.276  13.589  0.00  0.00    +0.000 A 
ATOM      8  C   UNL     1       7.164   4.638  13.965  0.00  0.00    +0.000 A 
ATOM      9  C   UNL     1       7.453   4.836  15.315  0.00  0.00    +0.000 A 
ATOM     10  C   UNL     1       6.450   4.658  16.299  0.00  0.00    +0.000 A 
ENDROOT
BRANCH   3  11
ATOM     11  C   UNL     1       3.359   3.934  19.045  0.00  0.00    +0.000 A 
ATOM     12  C   UNL     1       2.781   5.003  19.765  0.00  0.00    +0.000 A 
ATOM     13  C   UNL     1       1.707   4.808  20.640  0.00  0.00    +0.000 A 
ATOM     14  C   UNL     1       1.181   3.532  20.820  0.00  0.00    +0.000 A 
ATOM     15  C   UNL     1       1.748   2.454  20.147  0.00  0.00    +0.000 A 
ATOM     16  C   UNL     1       2.829   2.647  19.280  0.00  0.00    +0.000 A 
ATOM     17 CL   UNL     1       3.493   1.199  18.587  0.00  0.00    +0.000 Cl
ENDBRANCH   3  11
BRANCH   1  18
ATOM     18  O   UNL     1       7.870   5.174  18.137  0.00  0.00    +0.000 OA
BRANCH  18  20
ATOM     19  C   UNL     1       7.824   7.553  17.875  0.00  0.00    +0.000 C 
ATOM     20  C   UNL     1       7.835   6.402  18.866  0.00  0.00    +0.000 C 
ENDBRANCH  18  20
ENDBRANCH   1  18
TORSDOF 3
ENDMDL
MODEL 3
REMARK VINA RESULT:      -7.5      2.408      6.052
REMARK  Name = 
REMARK  4 active torsions:
REMARK  status: ('A' for Active; 'I' for Inactive)
REMARK    1  A    between atoms: C_1  and  C_2
REMARK    2  A    between atoms: C_2  and  O_3
REMARK    3  A    between atoms: O_3  and  C_4
REMARK    4  A    between atoms: C_6  and  C_7
REMARK                            x       y       z     vdW  Elec       q    Type
REMARK                         _______ _______ _______ _____ _____    ______ ____
ROOT
ATOM      1  C   UNL     1       3.038   5.981  18.785  0.00  0.00    +0.000 A 
ATOM      2  N   UNL     1       3.862   5.965  17.720  0.00  0.00    +0.000 NA
ATOM      3  C   UNL     1       4.542   4.824  17.520  0.00  0.00    +0.000 A 
ATOM      4  N   UNL     1       4.487   3.758  18.329  0.00  0.00    +0.000 NA
ATOM      5  C   UNL     1       3.644   3.789  19.362  0.00  0.00    +0.000 A 
ATOM      6  C   UNL     1       3.525   2.657  20.152  0.00  0.00    +0.000 A 
ATOM      7  C   UNL     1       2.644   2.604  21.234  0.00  0.00    +0.000 A 
ATOM      8  C   UNL     1       1.870   3.715  21.548  0.00  0.00    +0.000 A 
ATOM      9  C   UNL     1       1.982   4.868  20.772  0.00  0.00    +0.000 A 
ATOM     10  C   UNL     1       2.866   4.908  19.666  0.00  0.00    +0.000 A 
ENDROOT
BRANCH   3  11
ATOM     11  C   UNL     1       5.440   4.746  16.355  0.00  0.00    +0.000 A 
ATOM     12  C   UNL     1       4.980   4.155  15.157  0.00  0.00    +0.000 A 
ATOM     13  C   UNL     1       5.774   4.103  14.006  0.00  0.00    +0.000 A 
ATOM     14  C   UNL     1       7.056   4.643  14.023  0.00  0.00    +0.000 A 
ATOM     15  C   UNL     1       7.549   5.207  15.196  0.00  0.00    +0.000 A 
ATOM     16  C   UNL     1       6.759   5.249  16.350  0.00  0.00    +0.000 A 
ATOM     17 CL   UNL     1       7.541   5.892  17.762  0.00  0.00    +0.000 Cl
ENDBRANCH   3  11
BRANCH   1  18
ATOM     18  O   UNL     1       2.326   7.142  19.051  0.00  0.00    +0.000 OA
BRANCH  18  20
ATOM     19  C   UNL     1       1.545   9.294  18.348  0.00  0.00    +0.000 C 
ATOM     20  C   UNL     1       2.440   8.115  18.010  0.00  0.00    +0.000 C 
ENDBRANCH  18  20
ENDBRANCH   1  18
TORSDOF 3
ENDMDL
MODEL 4
REMARK VINA RESULT:      -7.4      1.321      1.505
REMARK  Name = 
REMARK  4 active torsions:
REMARK  status: ('A' for Active; 'I' for Inactive)
REMARK    1  A    between atoms: C_1  and  C_2
REMARK    2  A    between atoms: C_2  and  O_3
REMARK    3  A    between atoms: O_3  and  C_4
REMARK    4  A    between atoms: C_6  and  C_7
REMARK                            x       y       z     vdW  Elec       q    Type
REMARK                         _______ _______ _______ _____ _____    ______ ____
ROOT
ATOM      1  C   UNL     1       6.650   5.760  16.500  0.00  0.00    +0.000 A 
ATOM      2  N   UNL     1       5.819   5.579  17.545  0.00  0.00    +0.000 NA
ATOM      3  C   UNL     1       4.811   4.713  17.352  0.00  0.00    +0.000 A 
ATOM      4  N   UNL     1       4.564   4.085  16.195  0.00  0.00    +0.000 NA
ATOM      5  C   UNL     1       5.416   4.261  15.184  0.00  0.00    +0.000 A 
ATOM      6  C   UNL     1       5.207   3.548  14.013  0.00  0.00    +0.000 A 
ATOM      7  C   UNL     1       6.071   3.658  12.921  0.00  0.00    +0.000 A 
ATOM      8  C   UNL     1       7.164   4.513  12.991  0.00  0.00    +0.000 A 
ATOM      9  C   UNL     1       7.386   5.248  14.156  0.00  0.00    +0.000 A 
ATOM     10  C   UNL     1       6.515   5.118  15.265  0.00  0.00    +0.000 A 
ENDROOT
BRANCH   3  11
ATOM     11  C   UNL     1       3.887   4.461  18.472  0.00  0.00    +0.000 A 
ATOM     12  C   UNL     1       3.953   3.234  19.169  0.00  0.00    +0.000 A 
ATOM     13  C   UNL     1       3.135   2.967  20.272  0.00  0.00    +0.000 A 
ATOM     14  C   UNL     1       2.224   3.923  20.708  0.00  0.00    +0.000 A 
ATOM     15  C   UNL     1       2.116   5.131  20.026  0.00  0.00    +0.000 A 
ATOM     16  C   UNL     1       2.925   5.395  18.916  0.00  0.00    +0.000 A 
ATOM     17 CL   UNL     1       2.610   6.900  18.107  0.00  0.00    +0.000 Cl
ENDBRANCH   3  11
BRANCH   1  18
ATOM     18  O   UNL     1       7.698   6.659  16.638  0.00  0.00    +0.000 OA
BRANCH  18  20
ATOM     19  C   UNL     1       7.979   8.748  17.774  0.00  0.00    +0.000 C 
ATOM     20  C   UNL     1       7.751   7.255  17.936  0.00  0.00    +0.000 C 
ENDBRANCH  18  20
ENDBRANCH   1  18
TORSDOF 3
ENDMDL
MODEL 5
REMARK VINA RESULT:      -7.2      2.981      6.178
REMARK  Name = 
REMARK  4 active torsions:
REMARK  status: ('A' for Active; 'I' for Inactive)
REMARK    1  A    between atoms: C_1  and  C_2
REMARK    2  A    between atoms: C_2  and  O_3
REMARK    3  A    between atoms: O_3  and  C_4
REMARK    4  A    between atoms: C_6  and  C_7
REMARK                            x       y       z     vdW  Elec       q    Type
REMARK                         _______ _______ _______ _____ _____    ______ ____
ROOT
ATOM      1  C   UNL     1       2.807   5.866  19.856  0.00  0.00    +0.000 A 
ATOM      2  N   UNL     1       3.678   5.276  19.014  0.00  0.00    +0.000 NA
ATOM      3  C   UNL     1       3.996   5.975  17.912  0.00  0.00    +0.000 A 
ATOM      4  N   UNL     1       3.466   7.162  17.589  0.00  0.00    +0.000 NA
ATOM      5  C   UNL     1       2.626   7.736  18.451  0.00  0.00    +0.000 A 
ATOM      6  C   UNL     1       2.140   9.001  18.157  0.00  0.00    +0.000 A 
ATOM      7  C   UNL     1       1.279   9.678  19.023  0.00  0.00    +0.000 A 
ATOM      8  C   UNL     1       0.877   9.072  20.208  0.00  0.00    +0.000 A 
ATOM      9  C   UNL     1       1.345   7.795  20.518  0.00  0.00    +0.000 A 
ATOM     10  C   UNL     1       2.232   7.123  19.642  0.00  0.00    +0.000 A 
ENDROOT
BRANCH   3  11
ATOM     11  C   UNL     1       4.963   5.385  16.970  0.00  0.00    +0.000 A 
ATOM     12  C   UNL     1       4.651   4.170  16.319  0.00  0.00    +0.000 A 
ATOM     13  C   UNL     1       5.511   3.595  15.377  0.00  0.00    +0.000 A 
ATOM     14  C   UNL     1       6.711   4.222  15.060  0.00  0.00    +0.000 A 
ATOM     15  C   UNL     1       7.060   5.405  15.704  0.00  0.00    +0.000 A 
ATOM     16  C   UNL     1       6.206   5.975  16.654  0.00  0.00    +0.000 A 
ATOM     17 CL   UNL     1       6.817   7.396  17.446  0.00  0.00    +0.000 Cl
ENDBRANCH   3  11
BRANCH   1  18
ATOM     18  O   UNL     1       2.429   5.179  21.001  0.00  0.00    +0.000 OA
BRANCH  18  20
ATOM     19  C   UNL     1       1.886   2.927  21.602  0.00  0.00    +0.000 C 
ATOM     20  C   UNL     1       1.514   4.115  20.733  0.00  0.00    +0.000 C 
ENDBRANCH  18  20
ENDBRANCH   1  18
TORSDOF 3
ENDMDL
MODEL 6
REMARK VINA RESULT:      -7.1      2.208      6.169
REMARK  Name = 
REMARK  4 active torsions:
REMARK  status: ('A' for Active; 'I' for Inactive)
REMARK    1  A    between atoms: C_1  and  C_2
REMARK    2  A    between atoms: C_2  and  O_3
REMARK    3  A    between atoms: O_3  and  C_4
REMARK    4  A    between atoms: C_6  and  C_7
REMARK                            x       y       z     vdW  Elec       q    Type
REMARK                         _______ _______ _______ _____ _____    ______ ____
ROOT
ATOM      1  C   UNL     1       3.249   4.039  19.100  0.00  0.00    +0.000 A 
ATOM      2  N   UNL     1       4.093   3.850  18.067  0.00  0.00    +0.000 NA
ATOM      3  C   UNL     1       4.402   4.944  17.353  0.00  0.00    +0.000 A 
ATOM      4  N   UNL     1       3.888   6.162  17.571  0.00  0.00    +0.000 NA
ATOM      5  C   UNL     1       3.075   6.328  18.616  0.00  0.00    +0.000 A 
ATOM      6  C   UNL     1       2.607   7.603  18.892  0.00  0.00    +0.000 A 
ATOM      7  C   UNL     1       1.774   7.861  19.983  0.00  0.00    +0.000 A 
ATOM      8  C   UNL     1       1.384   6.817  20.814  0.00  0.00    +0.000 A 
ATOM      9  C   UNL     1       1.835   5.524  20.547  0.00  0.00    +0.000 A 
ATOM     10  C   UNL     1       2.693   5.274  19.448  0.00  0.00    +0.000 A 
ENDROOT
BRANCH   3  11
ATOM     11  C   UNL     1       5.340   4.796  16.226  0.00  0.00    +0.000 A 
ATOM     12  C   UNL     1       4.912   4.156  15.041  0.00  0.00    +0.000 A 
ATOM     13  C   UNL     1       5.746   4.036  13.924  0.00  0.00    +0.000 A 
ATOM     14  C   UNL     1       7.036   4.555  13.963  0.00  0.00    +0.000 A 
ATOM     15  C   UNL     1       7.497   5.167  15.125  0.00  0.00    +0.000 A 
ATOM     16  C   UNL     1       6.667   5.277  16.246  0.00  0.00    +0.000 A 
ATOM     17 CL   UNL     1       7.409   5.974  17.654  0.00  0.00    +0.000 Cl
ENDBRANCH   3  11
BRANCH   1  18
ATOM     18  O   UNL     1       2.880   2.938  19.860  0.00  0.00    +0.000 OA
BRANCH  18  20
ATOM     19  C   UNL     1       0.781   2.309  18.894  0.00  0.00    +0.000 C 
ATOM     20  C   UNL     1       2.237   1.921  19.089  0.00  0.00    +0.000 C 
ENDBRANCH  18  20
ENDBRANCH   1  18
TORSDOF 3
ENDMDL
MODEL 7
REMARK VINA RESULT:      -7.1      1.660      2.118
REMARK  Name = 
REMARK  4 active torsions:
REMARK  status: ('A' for Active; 'I' for Inactive)
REMARK    1  A    between atoms: C_1  and  C_2
REMARK    2  A    between atoms: C_2  and  O_3
REMARK    3  A    between atoms: O_3  and  C_4
REMARK    4  A    between atoms: C_6  and  C_7
REMARK                            x       y       z     vdW  Elec       q    Type
REMARK                         _______ _______ _______ _____ _____    ______ ____
ROOT
ATOM      1  C   UNL     1       6.680   5.645  15.976  0.00  0.00    +0.000 A 
ATOM      2  N   UNL     1       5.791   5.302  16.928  0.00  0.00    +0.000 NA
ATOM      3  C   UNL     1       4.894   4.363  16.585  0.00  0.00    +0.000 A 
ATOM      4  N   UNL     1       4.805   3.810  15.368  0.00  0.00    +0.000 NA
ATOM      5  C   UNL     1       5.713   4.147  14.451  0.00  0.00    +0.000 A 
ATOM      6  C   UNL     1       5.672   3.515  13.218  0.00  0.00    +0.000 A 
ATOM      7  C   UNL     1       6.604   3.795  12.216  0.00  0.00    +0.000 A 
ATOM      8  C   UNL     1       7.597   4.741  12.444  0.00  0.00    +0.000 A 
ATOM      9  C   UNL     1       7.649   5.397  13.674  0.00  0.00    +0.000 A 
ATOM     10  C   UNL     1       6.709   5.095  14.690  0.00  0.00    +0.000 A 
ENDROOT
BRANCH   3  11
ATOM     11  C   UNL     1       3.914   3.936  17.598  0.00  0.00    +0.000 A 
ATOM     12  C   UNL     1       2.704   3.332  17.188  0.00  0.00    +0.000 A 
ATOM     13  C   UNL     1       1.764   2.861  18.110  0.00  0.00    +0.000 A 
ATOM     14  C   UNL     1       2.009   2.982  19.474  0.00  0.00    +0.000 A 
ATOM     15  C   UNL     1       3.179   3.597  19.910  0.00  0.00    +0.000 A 
ATOM     16  C   UNL     1       4.114   4.079  18.988  0.00  0.00    +0.000 A 
ATOM     17 CL   UNL     1       5.476   4.909  19.676  0.00  0.00    +0.000 Cl
ENDBRANCH   3  11
BRANCH   1  18
ATOM     18  O   UNL     1       7.617   6.625  16.270  0.00  0.00    +0.000 OA
BRANCH  18  20
ATOM     19  C   UNL     1       7.948   8.528  17.684  0.00  0.00    +0.000 C 
ATOM     20  C   UNL     1       7.556   7.062  17.629  0.00  0.00    +0.000 C 
ENDBRANCH  18  20
ENDBRANCH   1  18
TORSDOF 3
ENDMDL
MODEL 8
REMARK VINA RESULT:      -7.1      3.374      6.339
REMARK  Name = 
REMARK  4 active torsions:
REMARK  status: ('A' for Active; 'I' for Inactive)
REMARK    1  A    between atoms: C_1  and  C_2
REMARK    2  A    between atoms: C_2  and  O_3
REMARK    3  A    between atoms: O_3  and  C_4
REMARK    4  A    between atoms: C_6  and  C_7
REMARK                            x       y       z     vdW  Elec       q    Type
REMARK                         _______ _______ _______ _____ _____    ______ ____
ROOT
ATOM      1  C   UNL     1       2.388   6.510  19.827  0.00  0.00    +0.000 A 
ATOM      2  N   UNL     1       3.276   5.823  19.083  0.00  0.00    +0.000 NA
ATOM      3  C   UNL     1       3.720   6.440  17.976  0.00  0.00    +0.000 A 
ATOM      4  N   UNL     1       3.295   7.640  17.557  0.00  0.00    +0.000 NA
ATOM      5  C   UNL     1       2.435   8.311  18.324  0.00  0.00    +0.000 A 
ATOM      6  C   UNL     1       2.058   9.586  17.933  0.00  0.00    +0.000 A 
ATOM      7  C   UNL     1       1.183  10.361  18.698  0.00  0.00    +0.000 A 
ATOM      8  C   UNL     1       0.656   9.846  19.877  0.00  0.00    +0.000 A 
ATOM      9  C   UNL     1       1.014   8.560  20.282  0.00  0.00    +0.000 A 
ATOM     10  C   UNL     1       1.915   7.788  19.510  0.00  0.00    +0.000 A 
ENDROOT
BRANCH   3  11
ATOM     11  C   UNL     1       4.711   5.741  17.140  0.00  0.00    +0.000 A 
ATOM     12  C   UNL     1       5.898   6.407  16.761  0.00  0.00    +0.000 A 
ATOM     13  C   UNL     1       6.895   5.771  16.013  0.00  0.00    +0.000 A 
ATOM     14  C   UNL     1       6.729   4.447  15.620  0.00  0.00    +0.000 A 
ATOM     15  C   UNL     1       5.558   3.772  15.953  0.00  0.00    +0.000 A 
ATOM     16  C   UNL     1       4.556   4.411  16.692  0.00  0.00    +0.000 A 
ATOM     17 CL   UNL     1       3.112   3.479  16.948  0.00  0.00    +0.000 Cl
ENDBRANCH   3  11
BRANCH   1  18
ATOM     18  O   UNL     1       1.882   5.911  20.972  0.00  0.00    +0.000 OA
BRANCH  18  20
ATOM     19  C   UNL     1       1.040   3.697  20.623  0.00  0.00    +0.000 C 
ATOM     20  C   UNL     1       2.228   4.528  21.074  0.00  0.00    +0.000 C 
ENDBRANCH  18  20
ENDBRANCH   1  18
TORSDOF 3
ENDMDL
MODEL 9
REMARK VINA RESULT:      -7.0      2.982      4.565
REMARK  Name = 
REMARK  4 active torsions:
REMARK  status: ('A' for Active; 'I' for Inactive)
REMARK    1  A    between atoms: C_1  and  C_2
REMARK    2  A    between atoms: C_2  and  O_3
REMARK    3  A    between atoms: O_3  and  C_4
REMARK    4  A    between atoms: C_6  and  C_7
REMARK                            x       y       z     vdW  Elec       q    Type
REMARK                         _______ _______ _______ _____ _____    ______ ____
ROOT
ATOM      1  C   UNL     1       4.614   5.064  19.269  0.00  0.00    +0.000 A 
ATOM      2  N   UNL     1       4.127   6.320  19.284  0.00  0.00    +0.000 NA
ATOM      3  C   UNL     1       2.861   6.466  18.858  0.00  0.00    +0.000 A 
ATOM      4  N   UNL     1       2.104   5.469  18.381  0.00  0.00    +0.000 NA
ATOM      5  C   UNL     1       2.600   4.231  18.400  0.00  0.00    +0.000 A 
ATOM      6  C   UNL     1       1.787   3.188  17.984  0.00  0.00    +0.000 A 
ATOM      7  C   UNL     1       2.225   1.862  18.002  0.00  0.00    +0.000 A 
ATOM      8  C   UNL     1       3.514   1.568  18.431  0.00  0.00    +0.000 A 
ATOM      9  C   UNL     1       4.351   2.604  18.844  0.00  0.00    +0.000 A 
ATOM     10  C   UNL     1       3.893   3.944  18.839  0.00  0.00    +0.000 A 
ENDROOT
BRANCH   3  11
ATOM     11  C   UNL     1       2.273   7.816  18.876  0.00  0.00    +0.000 A 
ATOM     12  C   UNL     1       2.488   8.686  17.784  0.00  0.00    +0.000 A 
ATOM     13  C   UNL     1       1.909   9.959  17.728  0.00  0.00    +0.000 A 
ATOM     14  C   UNL     1       1.097  10.397  18.769  0.00  0.00    +0.000 A 
ATOM     15  C   UNL     1       0.889   9.575  19.872  0.00  0.00    +0.000 A 
ATOM     16  C   UNL     1       1.477   8.307  19.934  0.00  0.00    +0.000 A 
ATOM     17 CL   UNL     1       1.209   7.435  21.412  0.00  0.00    +0.000 Cl
ENDBRANCH   3  11
BRANCH   1  18
ATOM     18  O   UNL     1       5.923   4.859  19.680  0.00  0.00    +0.000 OA
BRANCH  18  20
ATOM     19  C   UNL     1       7.419   4.730  17.815  0.00  0.00    +0.000 C 
ATOM     20  C   UNL     1       6.869   5.614  18.921  0.00  0.00    +0.000 C 
ENDBRANCH  18  20
ENDBRANCH   1  18
TORSDOF 3
ENDMDL
