MODEL 1
REMARK VINA RESULT:      -8.5      0.000      0.000
REMARK  Name = 
REMARK  10 active torsions:
REMARK  status: ('A' for Active; 'I' for Inactive)
REMARK    1  A    between atoms: C_1  and  O_2
REMARK    2  A    between atoms: O_2  and  C_3
REMARK    3  A    between atoms: C_6  and  C_7
REMARK    4  A    between atoms: C_7  and  S_8
REMARK    5  A    between atoms: S_8  and  C_9
REMARK    6  A    between atoms: C_11  and  C_12
REMARK    7  A    between atoms: C_12  and  C_14
REMARK    8  A    between atoms: C_21  and  C_22
REMARK    9  A    between atoms: C_22  and  C_23
REMARK   10  A    between atoms: C_22  and  C_24
REMARK                            x       y       z     vdW  Elec       q    Type
REMARK                         _______ _______ _______ _____ _____    ______ ____
ROOT
ATOM      1  C   UNL     1       5.775   4.583  18.392  0.00  0.00    +0.000 A 
ATOM      2  N   UNL     1       4.748   5.340  18.216  0.00  0.00    +0.000 NA
ATOM      3  C   UNL     1       3.547   4.904  18.778  0.00  0.00    +0.000 A 
ATOM      4  C   UNL     1       3.402   3.782  19.535  0.00  0.00    +0.000 A 
ATOM      5  C   UNL     1       4.653   3.012  19.771  0.00  0.00    +0.000 A 
ATOM      6  O   UNL     1       4.718   2.006  20.468  0.00  0.00    +0.000 OA
ATOM      7  N   UNL     1       5.762   3.462  19.140  0.00  0.00    +0.000 N 
ATOM      8  H   UNL     1       6.610   2.926  19.249  0.00  0.00    +0.000 HD
ENDROOT
BRANCH   4   9
ATOM      9  C   UNL     1       2.108   3.178  20.098  0.00  0.00    +0.000 C 
ATOM     10  C   UNL     1       1.684   1.955  19.271  0.00  0.00    +0.000 C 
ATOM     11  C   UNL     1       2.105   2.791  21.589  0.00  0.00    +0.000 C 
ENDBRANCH   4   9
BRANCH   3  12
ATOM     12  C   UNL     1       2.307   5.679  18.362  0.00  0.00    +0.000 C 
ATOM     13  O   UNL     1       1.537   5.271  17.494  0.00  0.00    +0.000 OA
BRANCH  12  14
ATOM     14  C   UNL     1       2.017   7.011  18.968  0.00  0.00    +0.000 A 
ATOM     15  C   UNL     1       1.891   8.116  18.103  0.00  0.00    +0.000 A 
ATOM     16  C   UNL     1       1.516   9.370  18.592  0.00  0.00    +0.000 A 
ATOM     17  C   UNL     1       1.255   9.530  19.949  0.00  0.00    +0.000 A 
ATOM     18  C   UNL     1       1.390   8.439  20.804  0.00  0.00    +0.000 A 
ATOM     19  F   UNL     1       1.128   8.595  22.109  0.00  0.00    +0.000 F 
ATOM     20  C   UNL     1       1.767   7.184  20.330  0.00  0.00    +0.000 A 
ENDBRANCH  12  14
ENDBRANCH   3  12
BRANCH   1  21
ATOM     21  S   UNL     1       7.335   4.778  17.669  0.00  0.00    +0.000 S 
BRANCH  21  22
ATOM     22  C   UNL     1       7.050   5.913  16.294  0.00  0.00    +0.000 C 
BRANCH  22  26
ATOM     23  C   UNL     1       5.948   3.597  12.785  0.00  0.00    +0.000 A 
ATOM     24  C   UNL     1       5.163   3.559  13.939  0.00  0.00    +0.000 A 
ATOM     25  C   UNL     1       5.503   4.324  15.060  0.00  0.00    +0.000 A 
ATOM     26  C   UNL     1       6.647   5.133  15.055  0.00  0.00    +0.000 A 
ATOM     27  C   UNL     1       7.447   5.143  13.901  0.00  0.00    +0.000 A 
ATOM     28  C   UNL     1       7.099   4.383  12.773  0.00  0.00    +0.000 A 
BRANCH  23  30
ATOM     29  C   UNL     1       4.235   3.086  11.230  0.00  0.00    +0.000 C 
ATOM     30  O   UNL     1       5.521   2.792  11.763  0.00  0.00    +0.000 OA
ENDBRANCH  23  30
ENDBRANCH  22  26
ENDBRANCH  21  22
ENDBRANCH   1  21
TORSDOF 7
ENDMDL
MODEL 2
REMARK VINA RESULT:      -8.3      1.617      2.080
REMARK  Name = 
REMARK  10 active torsions:
REMARK  status: ('A' for Active; 'I' for Inactive)
REMARK    1  A    between atoms: C_1  and  O_2
REMARK    2  A    between atoms: O_2  and  C_3
REMARK    3  A    between atoms: C_6  and  C_7
REMARK    4  A    between atoms: C_7  and  S_8
REMARK    5  A    between atoms: S_8  and  C_9
REMARK    6  A    between atoms: C_11  and  C_12
REMARK    7  A    between atoms: C_12  and  C_14
REMARK    8  A    between atoms: C_21  and  C_22
REMARK    9  A    between atoms: C_22  and  C_23
REMARK   10  A    between atoms: C_22  and  C_24
REMARK                            x       y       z     vdW  Elec       q    Type
REMARK                         _______ _______ _______ _____ _____    ______ ____
ROOT
ATOM      1  C   UNL     1       5.662   4.977  19.372  0.00  0.00    +0.000 A 
ATOM      2  N   UNL     1       4.724   5.647  19.947  0.00  0.00    +0.000 NA
ATOM      3  C   UNL     1       3.420   5.193  19.747  0.00  0.00    +0.000 A 
ATOM      4  C   UNL     1       3.081   4.076  19.045  0.00  0.00    +0.000 A 
ATOM      5  C   UNL     1       4.227   3.306  18.492  0.00  0.00    +0.000 A 
ATOM      6  O   UNL     1       4.112   2.251  17.877  0.00  0.00    +0.000 OA
ATOM      7  N   UNL     1       5.455   3.844  18.672  0.00  0.00    +0.000 N 
ATOM      8  H   UNL     1       6.240   3.361  18.263  0.00  0.00    +0.000 HD
ENDROOT
BRANCH   4   9
ATOM      9  C   UNL     1       1.677   3.568  18.691  0.00  0.00    +0.000 C 
ATOM     10  C   UNL     1       1.261   4.071  17.300  0.00  0.00    +0.000 C 
ATOM     11  C   UNL     1       1.444   2.047  18.756  0.00  0.00    +0.000 C 
ENDBRANCH   4   9
BRANCH   3  12
ATOM     12  C   UNL     1       2.318   6.123  20.230  0.00  0.00    +0.000 C 
ATOM     13  O   UNL     1       1.540   5.810  21.128  0.00  0.00    +0.000 OA
BRANCH  12  14
ATOM     14  C   UNL     1       2.112   7.446  19.571  0.00  0.00    +0.000 A 
ATOM     15  C   UNL     1       2.578   7.606  18.251  0.00  0.00    +0.000 A 
ATOM     16  C   UNL     1       2.324   8.781  17.538  0.00  0.00    +0.000 A 
ATOM     17  C   UNL     1       1.594   9.804  18.135  0.00  0.00    +0.000 A 
ATOM     18  C   UNL     1       1.143   9.649  19.443  0.00  0.00    +0.000 A 
ATOM     19  F   UNL     1       0.433  10.633  20.011  0.00  0.00    +0.000 F 
ATOM     20  C   UNL     1       1.393   8.484  20.167  0.00  0.00    +0.000 A 
ENDBRANCH  12  14
ENDBRANCH   3  12
BRANCH   1  21
ATOM     21  S   UNL     1       7.337   5.405  19.298  0.00  0.00    +0.000 S 
BRANCH  21  22
ATOM     22  C   UNL     1       7.456   6.498  17.866  0.00  0.00    +0.000 C 
BRANCH  22  26
ATOM     23  C   UNL     1       5.629   4.697  14.357  0.00  0.00    +0.000 A 
ATOM     24  C   UNL     1       6.843   4.218  14.853  0.00  0.00    +0.000 A 
ATOM     25  C   UNL     1       7.420   4.780  15.997  0.00  0.00    +0.000 A 
ATOM     26  C   UNL     1       6.799   5.847  16.663  0.00  0.00    +0.000 A 
ATOM     27  C   UNL     1       5.592   6.340  16.140  0.00  0.00    +0.000 A 
ATOM     28  C   UNL     1       5.010   5.768  14.998  0.00  0.00    +0.000 A 
BRANCH  23  30
ATOM     29  C   UNL     1       6.144   3.334  12.488  0.00  0.00    +0.000 C 
ATOM     30  O   UNL     1       5.177   4.076  13.224  0.00  0.00    +0.000 OA
ENDBRANCH  23  30
ENDBRANCH  22  26
ENDBRANCH  21  22
ENDBRANCH   1  21
TORSDOF 7
ENDMDL
MODEL 3
REMARK VINA RESULT:      -8.1      3.625      7.575
REMARK  Name = 
REMARK  10 active torsions:
REMARK  status: ('A' for Active; 'I' for Inactive)
REMARK    1  A    between atoms: C_1  and  O_2
REMARK    2  A    between atoms: O_2  and  C_3
REMARK    3  A    between atoms: C_6  and  C_7
REMARK    4  A    between atoms: C_7  and  S_8
REMARK    5  A    between atoms: S_8  and  C_9
REMARK    6  A    between atoms: C_11  and  C_12
REMARK    7  A    between atoms: C_12  and  C_14
REMARK    8  A    between atoms: C_21  and  C_22
REMARK    9  A    between atoms: C_22  and  C_23
REMARK   10  A    between atoms: C_22  and  C_24
REMARK                            x       y       z     vdW  Elec       q    Type
REMARK                         _______ _______ _______ _____ _____    ______ ____
ROOT
ATOM      1  C   UNL     1       2.009   6.916  19.979  0.00  0.00    +0.000 A 
ATOM      2  N   UNL     1       2.765   6.767  18.947  0.00  0.00    +0.000 NA
ATOM      3  C   UNL     1       3.225   5.474  18.692  0.00  0.00    +0.000 A 
ATOM      4  C   UNL     1       2.888   4.370  19.414  0.00  0.00    +0.000 A 
ATOM      5  C   UNL     1       1.937   4.611  20.532  0.00  0.00    +0.000 A 
ATOM      6  O   UNL     1       1.488   3.727  21.253  0.00  0.00    +0.000 OA
ATOM      7  N   UNL     1       1.588   5.898  20.755  0.00  0.00    +0.000 N 
ATOM      8  H   UNL     1       0.981   6.088  21.539  0.00  0.00    +0.000 HD
ENDROOT
BRANCH   4   9
ATOM      9  C   UNL     1       3.428   2.940  19.268  0.00  0.00    +0.000 C 
ATOM     10  C   UNL     1       4.110   2.490  20.568  0.00  0.00    +0.000 C 
ATOM     11  C   UNL     1       2.427   1.853  18.833  0.00  0.00    +0.000 C 
ENDBRANCH   4   9
BRANCH   3  12
ATOM     12  C   UNL     1       4.299   5.357  17.622  0.00  0.00    +0.000 C 
ATOM     13  O   UNL     1       4.093   4.807  16.542  0.00  0.00    +0.000 OA
BRANCH  12  14
ATOM     14  C   UNL     1       5.677   5.866  17.884  0.00  0.00    +0.000 A 
ATOM     15  C   UNL     1       6.099   7.017  17.189  0.00  0.00    +0.000 A 
ATOM     16  C   UNL     1       7.335   7.608  17.465  0.00  0.00    +0.000 A 
ATOM     17  C   UNL     1       8.157   7.059  18.443  0.00  0.00    +0.000 A 
ATOM     18  C   UNL     1       7.744   5.916  19.121  0.00  0.00    +0.000 A 
ATOM     19  F   UNL     1       8.536   5.395  20.068  0.00  0.00    +0.000 F 
ATOM     20  C   UNL     1       6.516   5.314  18.854  0.00  0.00    +0.000 A 
ENDBRANCH  12  14
ENDBRANCH   3  12
BRANCH   1  21
ATOM     21  S   UNL     1       1.443   8.415  20.633  0.00  0.00    +0.000 S 
BRANCH  21  22
ATOM     22  C   UNL     1       1.476   9.554  19.232  0.00  0.00    +0.000 C 
BRANCH  22  26
ATOM     23  C   UNL     1      -2.462  11.231  18.474  0.00  0.00    +0.000 A 
ATOM     24  C   UNL     1      -1.885  10.333  17.574  0.00  0.00    +0.000 A 
ATOM     25  C   UNL     1      -0.628   9.773  17.830  0.00  0.00    +0.000 A 
ATOM     26  C   UNL     1       0.086  10.112  18.987  0.00  0.00    +0.000 A 
ATOM     27  C   UNL     1      -0.490  11.038  19.873  0.00  0.00    +0.000 A 
ATOM     28  C   UNL     1      -1.755  11.591  19.620  0.00  0.00    +0.000 A 
BRANCH  23  30
ATOM     29  C   UNL     1      -4.531  12.159  19.163  0.00  0.00    +0.000 C 
ATOM     30  O   UNL     1      -3.685  11.722  18.105  0.00  0.00    +0.000 OA
ENDBRANCH  23  30
ENDBRANCH  22  26
ENDBRANCH  21  22
ENDBRANCH   1  21
TORSDOF 7
ENDMDL
MODEL 4
REMARK VINA RESULT:      -8.1      1.543      2.017
REMARK  Name = 
REMARK  10 active torsions:
REMARK  status: ('A' for Active; 'I' for Inactive)
REMARK    1  A    between atoms: C_1  and  O_2
REMARK    2  A    between atoms: O_2  and  C_3
REMARK    3  A    between atoms: C_6  and  C_7
REMARK    4  A    between atoms: C_7  and  S_8
REMARK    5  A    between atoms: S_8  and  C_9
REMARK    6  A    between atoms: C_11  and  C_12
REMARK    7  A    between atoms: C_12  and  C_14
REMARK    8  A    between atoms: C_21  and  C_22
REMARK    9  A    between atoms: C_22  and  C_23
REMARK   10  A    between atoms: C_22  and  C_24
REMARK                            x       y       z     vdW  Elec       q    Type
REMARK                         _______ _______ _______ _____ _____    ______ ____
ROOT
ATOM      1  C   UNL     1       5.726   4.949  19.386  0.00  0.00    +0.000 A 
ATOM      2  N   UNL     1       4.721   5.547  19.926  0.00  0.00    +0.000 NA
ATOM      3  C   UNL     1       3.457   5.028  19.640  0.00  0.00    +0.000 A 
ATOM      4  C   UNL     1       3.222   3.917  18.890  0.00  0.00    +0.000 A 
ATOM      5  C   UNL     1       4.438   3.228  18.381  0.00  0.00    +0.000 A 
ATOM      6  O   UNL     1       4.417   2.188  17.732  0.00  0.00    +0.000 OA
ATOM      7  N   UNL     1       5.622   3.827  18.645  0.00  0.00    +0.000 N 
ATOM      8  H   UNL     1       6.455   3.402  18.267  0.00  0.00    +0.000 HD
ENDROOT
BRANCH   4   9
ATOM      9  C   UNL     1       1.871   3.342  18.443  0.00  0.00    +0.000 C 
ATOM     10  C   UNL     1       1.057   2.878  19.660  0.00  0.00    +0.000 C 
ATOM     11  C   UNL     1       0.980   4.244  17.567  0.00  0.00    +0.000 C 
ENDBRANCH   4   9
BRANCH   3  12
ATOM     12  C   UNL     1       2.280   5.881  20.085  0.00  0.00    +0.000 C 
ATOM     13  O   UNL     1       1.432   5.469  20.874  0.00  0.00    +0.000 OA
BRANCH  12  14
ATOM     14  C   UNL     1       2.087   7.248  19.519  0.00  0.00    +0.000 A 
ATOM     15  C   UNL     1       2.526   7.484  18.201  0.00  0.00    +0.000 A 
ATOM     16  C   UNL     1       2.281   8.708  17.572  0.00  0.00    +0.000 A 
ATOM     17  C   UNL     1       1.589   9.704  18.252  0.00  0.00    +0.000 A 
ATOM     18  C   UNL     1       1.165   9.474  19.558  0.00  0.00    +0.000 A 
ATOM     19  F   UNL     1       0.491  10.433  20.207  0.00  0.00    +0.000 F 
ATOM     20  C   UNL     1       1.406   8.259  20.199  0.00  0.00    +0.000 A 
ENDBRANCH  12  14
ENDBRANCH   3  12
BRANCH   1  21
ATOM     21  S   UNL     1       7.375   5.470  19.419  0.00  0.00    +0.000 S 
BRANCH  21  22
ATOM     22  C   UNL     1       7.521   6.578  18.000  0.00  0.00    +0.000 C 
BRANCH  22  26
ATOM     23  C   UNL     1       5.766   4.633  14.532  0.00  0.00    +0.000 A 
ATOM     24  C   UNL     1       5.152   5.744  15.112  0.00  0.00    +0.000 A 
ATOM     25  C   UNL     1       5.730   6.387  16.213  0.00  0.00    +0.000 A 
ATOM     26  C   UNL     1       6.929   5.920  16.768  0.00  0.00    +0.000 A 
ATOM     27  C   UNL     1       7.525   4.784  16.195  0.00  0.00    +0.000 A 
ATOM     28  C   UNL     1       6.950   4.147  15.085  0.00  0.00    +0.000 A 
BRANCH  23  30
ATOM     29  C   UNL     1       5.901   3.475  12.469  0.00  0.00    +0.000 C 
ATOM     30  O   UNL     1       5.096   4.083  13.473  0.00  0.00    +0.000 OA
ENDBRANCH  23  30
ENDBRANCH  22  26
ENDBRANCH  21  22
ENDBRANCH   1  21
TORSDOF 7
ENDMDL
MODEL 5
REMARK VINA RESULT:      -8.1      3.730      7.512
REMARK  Name = 
REMARK  10 active torsions:
REMARK  status: ('A' for Active; 'I' for Inactive)
REMARK    1  A    between atoms: C_1  and  O_2
REMARK    2  A    between atoms: O_2  and  C_3
REMARK    3  A    between atoms: C_6  and  C_7
REMARK    4  A    between atoms: C_7  and  S_8
REMARK    5  A    between atoms: S_8  and  C_9
REMARK    6  A    between atoms: C_11  and  C_12
REMARK    7  A    between atoms: C_12  and  C_14
REMARK    8  A    between atoms: C_21  and  C_22
REMARK    9  A    between atoms: C_22  and  C_23
REMARK   10  A    between atoms: C_22  and  C_24
REMARK                            x       y       z     vdW  Elec       q    Type
REMARK                         _______ _______ _______ _____ _____    ______ ____
ROOT
ATOM      1  C   UNL     1       1.832   6.891  20.033  0.00  0.00    +0.000 A 
ATOM      2  N   UNL     1       2.653   6.810  19.045  0.00  0.00    +0.000 NA
ATOM      3  C   UNL     1       3.106   5.533  18.712  0.00  0.00    +0.000 A 
ATOM      4  C   UNL     1       2.701   4.380  19.313  0.00  0.00    +0.000 A 
ATOM      5  C   UNL     1       1.680   4.550  20.382  0.00  0.00    +0.000 A 
ATOM      6  O   UNL     1       1.167   3.620  20.994  0.00  0.00    +0.000 OA
ATOM      7  N   UNL     1       1.340   5.822  20.690  0.00  0.00    +0.000 N 
ATOM      8  H   UNL     1       0.685   5.960  21.445  0.00  0.00    +0.000 HD
ENDROOT
BRANCH   4   9
ATOM      9  C   UNL     1       3.223   2.955  19.082  0.00  0.00    +0.000 C 
ATOM     10  C   UNL     1       4.019   2.472  20.304  0.00  0.00    +0.000 C 
ATOM     11  C   UNL     1       2.185   1.880  18.711  0.00  0.00    +0.000 C 
ENDBRANCH   4   9
BRANCH   3  12
ATOM     12  C   UNL     1       4.249   5.480  17.709  0.00  0.00    +0.000 C 
ATOM     13  O   UNL     1       4.119   4.988  16.591  0.00  0.00    +0.000 OA
BRANCH  12  14
ATOM     14  C   UNL     1       5.602   5.982  18.088  0.00  0.00    +0.000 A 
ATOM     15  C   UNL     1       6.286   5.318  19.125  0.00  0.00    +0.000 A 
ATOM     16  C   UNL     1       7.598   5.668  19.457  0.00  0.00    +0.000 A 
ATOM     17  C   UNL     1       8.240   6.680  18.751  0.00  0.00    +0.000 A 
ATOM     18  C   UNL     1       7.559   7.342  17.733  0.00  0.00    +0.000 A 
ATOM     19  F   UNL     1       8.185   8.310  17.049  0.00  0.00    +0.000 F 
ATOM     20  C   UNL     1       6.250   7.006  17.394  0.00  0.00    +0.000 A 
ENDBRANCH  12  14
ENDBRANCH   3  12
BRANCH   1  21
ATOM     21  S   UNL     1       1.249   8.343  20.772  0.00  0.00    +0.000 S 
BRANCH  21  22
ATOM     22  C   UNL     1       1.487   9.613  19.511  0.00  0.00    +0.000 C 
BRANCH  22  26
ATOM     23  C   UNL     1      -2.410  11.137  18.335  0.00  0.00    +0.000 A 
ATOM     24  C   UNL     1      -1.820  11.540  19.534  0.00  0.00    +0.000 A 
ATOM     25  C   UNL     1      -0.554  11.070  19.902  0.00  0.00    +0.000 A 
ATOM     26  C   UNL     1       0.142  10.172  19.081  0.00  0.00    +0.000 A 
ATOM     27  C   UNL     1      -0.472   9.750  17.891  0.00  0.00    +0.000 A 
ATOM     28  C   UNL     1      -1.737  10.230  17.519  0.00  0.00    +0.000 A 
BRANCH  23  30
ATOM     29  C   UNL     1      -4.216  11.373  16.818  0.00  0.00    +0.000 C 
ATOM     30  O   UNL     1      -3.656  11.653  18.097  0.00  0.00    +0.000 OA
ENDBRANCH  23  30
ENDBRANCH  22  26
ENDBRANCH  21  22
ENDBRANCH   1  21
TORSDOF 7
ENDMDL
MODEL 6
REMARK VINA RESULT:      -8.1      1.256      1.412
REMARK  Name = 
REMARK  10 active torsions:
REMARK  status: ('A' for Active; 'I' for Inactive)
REMARK    1  A    between atoms: C_1  and  O_2
REMARK    2  A    between atoms: O_2  and  C_3
REMARK    3  A    between atoms: C_6  and  C_7
REMARK    4  A    between atoms: C_7  and  S_8
REMARK    5  A    between atoms: S_8  and  C_9
REMARK    6  A    between atoms: C_11  and  C_12
REMARK    7  A    between atoms: C_12  and  C_14
REMARK    8  A    between atoms: C_21  and  C_22
REMARK    9  A    between atoms: C_22  and  C_23
REMARK   10  A    between atoms: C_22  and  C_24
REMARK                            x       y       z     vdW  Elec       q    Type
REMARK                         _______ _______ _______ _____ _____    ______ ____
ROOT
ATOM      1  C   UNL     1       5.430   4.696  18.964  0.00  0.00    +0.000 A 
ATOM      2  N   UNL     1       4.617   5.531  19.510  0.00  0.00    +0.000 NA
ATOM      3  C   UNL     1       3.362   5.037  19.870  0.00  0.00    +0.000 A 
ATOM      4  C   UNL     1       2.968   3.740  19.741  0.00  0.00    +0.000 A 
ATOM      5  C   UNL     1       3.997   2.819  19.190  0.00  0.00    +0.000 A 
ATOM      6  O   UNL     1       3.834   1.611  19.051  0.00  0.00    +0.000 OA
ATOM      7  N   UNL     1       5.164   3.384  18.804  0.00  0.00    +0.000 N 
ATOM      8  H   UNL     1       5.857   2.783  18.384  0.00  0.00    +0.000 HD
ENDROOT
BRANCH   4   9
ATOM      9  C   UNL     1       1.582   3.138  20.012  0.00  0.00    +0.000 C 
ATOM     10  C   UNL     1       1.159   2.225  18.851  0.00  0.00    +0.000 C 
ATOM     11  C   UNL     1       1.396   2.374  21.336  0.00  0.00    +0.000 C 
ENDBRANCH   4   9
BRANCH   3  12
ATOM     12  C   UNL     1       2.338   6.081  20.288  0.00  0.00    +0.000 C 
ATOM     13  O   UNL     1       1.567   5.906  21.229  0.00  0.00    +0.000 OA
BRANCH  12  14
ATOM     14  C   UNL     1       2.202   7.349  19.513  0.00  0.00    +0.000 A 
ATOM     15  C   UNL     1       2.723   7.383  18.205  0.00  0.00    +0.000 A 
ATOM     16  C   UNL     1       2.536   8.500  17.387  0.00  0.00    +0.000 A 
ATOM     17  C   UNL     1       1.818   9.591  17.866  0.00  0.00    +0.000 A 
ATOM     18  C   UNL     1       1.313   9.561  19.163  0.00  0.00    +0.000 A 
ATOM     19  F   UNL     1       0.614  10.610  19.617  0.00  0.00    +0.000 F 
ATOM     20  C   UNL     1       1.495   8.455  19.991  0.00  0.00    +0.000 A 
ENDBRANCH  12  14
ENDBRANCH   3  12
BRANCH   1  21
ATOM     21  S   UNL     1       6.968   5.064  18.263  0.00  0.00    +0.000 S 
BRANCH  21  22
ATOM     22  C   UNL     1       6.582   6.185  16.902  0.00  0.00    +0.000 C 
BRANCH  22  26
ATOM     23  C   UNL     1       6.104   3.841  13.273  0.00  0.00    +0.000 A 
ATOM     24  C   UNL     1       5.097   3.870  14.240  0.00  0.00    +0.000 A 
ATOM     25  C   UNL     1       5.239   4.645  15.397  0.00  0.00    +0.000 A 
ATOM     26  C   UNL     1       6.401   5.397  15.618  0.00  0.00    +0.000 A 
ATOM     27  C   UNL     1       7.421   5.338  14.654  0.00  0.00    +0.000 A 
ATOM     28  C   UNL     1       7.273   4.569  13.489  0.00  0.00    +0.000 A 
BRANCH  23  30
ATOM     29  C   UNL     1       4.569   3.165  11.599  0.00  0.00    +0.000 C 
ATOM     30  O   UNL     1       5.855   3.034  12.196  0.00  0.00    +0.000 OA
ENDBRANCH  23  30
ENDBRANCH  22  26
ENDBRANCH  21  22
ENDBRANCH   1  21
TORSDOF 7
ENDMDL
MODEL 7
REMARK VINA RESULT:      -8.1      0.964      1.464
REMARK  Name = 
REMARK  10 active torsions:
REMARK  status: ('A' for Active; 'I' for Inactive)
REMARK    1  A    between atoms: C_1  and  O_2
REMARK    2  A    between atoms: O_2  and  C_3
REMARK    3  A    between atoms: C_6  and  C_7
REMARK    4  A    between atoms: C_7  and  S_8
REMARK    5  A    between atoms: S_8  and  C_9
REMARK    6  A    between atoms: C_11  and  C_12
REMARK    7  A    between atoms: C_12  and  C_14
REMARK    8  A    between atoms: C_21  and  C_22
REMARK    9  A    between atoms: C_22  and  C_23
REMARK   10  A    between atoms: C_22  and  C_24
REMARK                            x       y       z     vdW  Elec       q    Type
REMARK                         _______ _______ _______ _____ _____    ______ ____
ROOT
ATOM      1  C   UNL     1       5.728   4.502  18.409  0.00  0.00    +0.000 A 
ATOM      2  N   UNL     1       4.656   5.191  18.226  0.00  0.00    +0.000 NA
ATOM      3  C   UNL     1       3.475   4.657  18.745  0.00  0.00    +0.000 A 
ATOM      4  C   UNL     1       3.390   3.507  19.468  0.00  0.00    +0.000 A 
ATOM      5  C   UNL     1       4.686   2.820  19.716  0.00  0.00    +0.000 A 
ATOM      6  O   UNL     1       4.805   1.801  20.389  0.00  0.00    +0.000 OA
ATOM      7  N   UNL     1       5.776   3.363  19.128  0.00  0.00    +0.000 N 
ATOM      8  H   UNL     1       6.657   2.885  19.244  0.00  0.00    +0.000 HD
ENDROOT
BRANCH   4   9
ATOM      9  C   UNL     1       2.129   2.799  19.982  0.00  0.00    +0.000 C 
ATOM     10  C   UNL     1       1.355   3.714  20.943  0.00  0.00    +0.000 C 
ATOM     11  C   UNL     1       1.151   2.253  18.924  0.00  0.00    +0.000 C 
ENDBRANCH   4   9
BRANCH   3  12
ATOM     12  C   UNL     1       2.193   5.355  18.316  0.00  0.00    +0.000 C 
ATOM     13  O   UNL     1       1.386   4.834  17.550  0.00  0.00    +0.000 OA
BRANCH  12  14
ATOM     14  C   UNL     1       1.906   6.744  18.779  0.00  0.00    +0.000 A 
ATOM     15  C   UNL     1       1.681   6.948  20.155  0.00  0.00    +0.000 A 
ATOM     16  C   UNL     1       1.512   8.236  20.670  0.00  0.00    +0.000 A 
ATOM     17  C   UNL     1       1.574   9.333  19.816  0.00  0.00    +0.000 A 
ATOM     18  C   UNL     1       1.786   9.129  18.456  0.00  0.00    +0.000 A 
ATOM     19  F   UNL     1       1.854  10.188  17.638  0.00  0.00    +0.000 F 
ATOM     20  C   UNL     1       1.953   7.849  17.927  0.00  0.00    +0.000 A 
ENDBRANCH  12  14
ENDBRANCH   3  12
BRANCH   1  21
ATOM     21  S   UNL     1       7.288   4.825  17.733  0.00  0.00    +0.000 S 
BRANCH  21  22
ATOM     22  C   UNL     1       6.956   5.961  16.368  0.00  0.00    +0.000 C 
BRANCH  22  26
ATOM     23  C   UNL     1       6.014   3.629  12.823  0.00  0.00    +0.000 A 
ATOM     24  C   UNL     1       5.168   3.611  13.933  0.00  0.00    +0.000 A 
ATOM     25  C   UNL     1       5.456   4.381  15.065  0.00  0.00    +0.000 A 
ATOM     26  C   UNL     1       6.610   5.176  15.116  0.00  0.00    +0.000 A 
ATOM     27  C   UNL     1       7.470   5.166  14.006  0.00  0.00    +0.000 A 
ATOM     28  C   UNL     1       7.174   4.401  12.867  0.00  0.00    +0.000 A 
BRANCH  23  30
ATOM     29  C   UNL     1       4.331   3.054  11.257  0.00  0.00    +0.000 C 
ATOM     30  O   UNL     1       5.632   2.822  11.786  0.00  0.00    +0.000 OA
ENDBRANCH  23  30
ENDBRANCH  22  26
ENDBRANCH  21  22
ENDBRANCH   1  21
TORSDOF 7
ENDMDL
MODEL 8
REMARK VINA RESULT:      -7.9      1.075      1.404
REMARK  Name = 
REMARK  10 active torsions:
REMARK  status: ('A' for Active; 'I' for Inactive)
REMARK    1  A    between atoms: C_1  and  O_2
REMARK    2  A    between atoms: O_2  and  C_3
REMARK    3  A    between atoms: C_6  and  C_7
REMARK    4  A    between atoms: C_7  and  S_8
REMARK    5  A    between atoms: S_8  and  C_9
REMARK    6  A    between atoms: C_11  and  C_12
REMARK    7  A    between atoms: C_12  and  C_14
REMARK    8  A    between atoms: C_21  and  C_22
REMARK    9  A    between atoms: C_22  and  C_23
REMARK   10  A    between atoms: C_22  and  C_24
REMARK                            x       y       z     vdW  Elec       q    Type
REMARK                         _______ _______ _______ _____ _____    ______ ____
ROOT
ATOM      1  C   UNL     1       5.714   5.190  19.423  0.00  0.00    +0.000 A 
ATOM      2  N   UNL     1       4.745   5.989  19.138  0.00  0.00    +0.000 NA
ATOM      3  C   UNL     1       3.461   5.442  19.150  0.00  0.00    +0.000 A 
ATOM      4  C   UNL     1       3.163   4.158  19.493  0.00  0.00    +0.000 A 
ATOM      5  C   UNL     1       4.327   3.326  19.900  0.00  0.00    +0.000 A 
ATOM      6  O   UNL     1       4.239   2.166  20.287  0.00  0.00    +0.000 OA
ATOM      7  N   UNL     1       5.544   3.907  19.800  0.00  0.00    +0.000 N 
ATOM      8  H   UNL     1       6.350   3.344  20.026  0.00  0.00    +0.000 HD
ENDROOT
BRANCH   4   9
ATOM      9  C   UNL     1       1.802   3.451  19.432  0.00  0.00    +0.000 C 
ATOM     10  C   UNL     1       1.810   2.367  18.344  0.00  0.00    +0.000 C 
ATOM     11  C   UNL     1       1.272   2.835  20.740  0.00  0.00    +0.000 C 
ENDBRANCH   4   9
BRANCH   3  12
ATOM     12  C   UNL     1       2.363   6.328  18.583  0.00  0.00    +0.000 C 
ATOM     13  O   UNL     1       1.826   6.099  17.501  0.00  0.00    +0.000 OA
BRANCH  12  14
ATOM     14  C   UNL     1       1.940   7.558  19.314  0.00  0.00    +0.000 A 
ATOM     15  C   UNL     1       1.710   8.727  18.562  0.00  0.00    +0.000 A 
ATOM     16  C   UNL     1       1.211   9.883  19.168  0.00  0.00    +0.000 A 
ATOM     17  C   UNL     1       0.929   9.879  20.531  0.00  0.00    +0.000 A 
ATOM     18  C   UNL     1       1.167   8.726  21.274  0.00  0.00    +0.000 A 
ATOM     19  F   UNL     1       0.886   8.724  22.585  0.00  0.00    +0.000 F 
ATOM     20  C   UNL     1       1.668   7.568  20.684  0.00  0.00    +0.000 A 
ENDBRANCH  12  14
ENDBRANCH   3  12
BRANCH   1  21
ATOM     21  S   UNL     1       7.404   5.543  19.315  0.00  0.00    +0.000 S 
BRANCH  21  22
ATOM     22  C   UNL     1       7.547   6.607  17.863  0.00  0.00    +0.000 C 
BRANCH  22  26
ATOM     23  C   UNL     1       5.758   4.576  14.462  0.00  0.00    +0.000 A 
ATOM     24  C   UNL     1       5.254   5.800  14.906  0.00  0.00    +0.000 A 
ATOM     25  C   UNL     1       5.845   6.467  15.985  0.00  0.00    +0.000 A 
ATOM     26  C   UNL     1       6.946   5.914  16.653  0.00  0.00    +0.000 A 
ATOM     27  C   UNL     1       7.428   4.669  16.218  0.00  0.00    +0.000 A 
ATOM     28  C   UNL     1       6.840   4.006  15.129  0.00  0.00    +0.000 A 
BRANCH  23  30
ATOM     29  C   UNL     1       5.877   3.311  12.461  0.00  0.00    +0.000 C 
ATOM     30  O   UNL     1       5.084   4.015  13.411  0.00  0.00    +0.000 OA
ENDBRANCH  23  30
ENDBRANCH  22  26
ENDBRANCH  21  22
ENDBRANCH   1  21
TORSDOF 7
ENDMDL
MODEL 9
REMARK VINA RESULT:      -7.9      3.162      7.453
REMARK  Name = 
REMARK  10 active torsions:
REMARK  status: ('A' for Active; 'I' for Inactive)
REMARK    1  A    between atoms: C_1  and  O_2
REMARK    2  A    between atoms: O_2  and  C_3
REMARK    3  A    between atoms: C_6  and  C_7
REMARK    4  A    between atoms: C_7  and  S_8
REMARK    5  A    between atoms: S_8  and  C_9
REMARK    6  A    between atoms: C_11  and  C_12
REMARK    7  A    between atoms: C_12  and  C_14
REMARK    8  A    between atoms: C_21  and  C_22
REMARK    9  A    between atoms: C_22  and  C_23
REMARK   10  A    between atoms: C_22  and  C_24
REMARK                            x       y       z     vdW  Elec       q    Type
REMARK                         _______ _______ _______ _____ _____    ______ ____
ROOT
ATOM      1  C   UNL     1       4.535   3.209  17.839  0.00  0.00    +0.000 A 
ATOM      2  N   UNL     1       4.679   3.718  16.665  0.00  0.00    +0.000 NA
ATOM      3  C   UNL     1       5.541   4.811  16.560  0.00  0.00    +0.000 A 
ATOM      4  C   UNL     1       6.272   5.329  17.585  0.00  0.00    +0.000 A 
ATOM      5  C   UNL     1       6.122   4.626  18.887  0.00  0.00    +0.000 A 
ATOM      6  O   UNL     1       6.741   4.924  19.903  0.00  0.00    +0.000 OA
ATOM      7  N   UNL     1       5.221   3.618  18.924  0.00  0.00    +0.000 N 
ATOM      8  H   UNL     1       5.069   3.160  19.810  0.00  0.00    +0.000 HD
ENDROOT
BRANCH   4   9
ATOM      9  C   UNL     1       7.157   6.584  17.580  0.00  0.00    +0.000 C 
ATOM     10  C   UNL     1       6.289   7.851  17.607  0.00  0.00    +0.000 C 
ATOM     11  C   UNL     1       8.225   6.693  18.684  0.00  0.00    +0.000 C 
ENDBRANCH   4   9
BRANCH   3  12
ATOM     12  C   UNL     1       5.515   5.544  15.227  0.00  0.00    +0.000 C 
ATOM     13  O   UNL     1       5.075   6.686  15.114  0.00  0.00    +0.000 OA
BRANCH  12  14
ATOM     14  C   UNL     1       5.979   4.859  13.986  0.00  0.00    +0.000 A 
ATOM     15  C   UNL     1       7.269   5.163  13.507  0.00  0.00    +0.000 A 
ATOM     16  C   UNL     1       7.806   4.480  12.413  0.00  0.00    +0.000 A 
ATOM     17  C   UNL     1       7.063   3.482  11.791  0.00  0.00    +0.000 A 
ATOM     18  C   UNL     1       5.784   3.190  12.259  0.00  0.00    +0.000 A 
ATOM     19  F   UNL     1       5.075   2.222  11.664  0.00  0.00    +0.000 F 
ATOM     20  C   UNL     1       5.234   3.865  13.347  0.00  0.00    +0.000 A 
ENDBRANCH  12  14
ENDBRANCH   3  12
BRANCH   1  21
ATOM     21  S   UNL     1       3.410   1.976  18.295  0.00  0.00    +0.000 S 
BRANCH  21  22
ATOM     22  C   UNL     1       1.793   2.762  18.125  0.00  0.00    +0.000 C 
BRANCH  22  26
ATOM     23  C   UNL     1       1.967   6.694  19.970  0.00  0.00    +0.000 A 
ATOM     24  C   UNL     1       2.152   6.544  18.595  0.00  0.00    +0.000 A 
ATOM     25  C   UNL     1       2.070   5.282  17.996  0.00  0.00    +0.000 A 
ATOM     26  C   UNL     1       1.817   4.138  18.766  0.00  0.00    +0.000 A 
ATOM     27  C   UNL     1       1.662   4.295  20.153  0.00  0.00    +0.000 A 
ATOM     28  C   UNL     1       1.733   5.563  20.750  0.00  0.00    +0.000 A 
BRANCH  23  30
ATOM     29  C   UNL     1       0.890   8.586  20.906  0.00  0.00    +0.000 C 
ATOM     30  O   UNL     1       2.087   7.974  20.438  0.00  0.00    +0.000 OA
ENDBRANCH  23  30
ENDBRANCH  22  26
ENDBRANCH  21  22
ENDBRANCH   1  21
TORSDOF 7
ENDMDL
