MODEL 1
REMARK VINA RESULT:      -7.8      0.000      0.000
REMARK  Name = 
REMARK  9 active torsions:
REMARK  status: ('A' for Active; 'I' for Inactive)
REMARK    1  A    between atoms: C_1  and  C_2
REMARK    2  A    between atoms: C_2  and  C_3
REMARK    3  A    between atoms: C_4  and  C_5
REMARK    4  A    between atoms: C_5  and  C_6
REMARK    5  A    between atoms: C_6  and  C_7
REMARK    6  A    between atoms: C_7  and  C_8
REMARK    7  A    between atoms: C_9  and  C_10
REMARK    8  A    between atoms: N_12  and  C_13
REMARK    9  A    between atoms: C_16  and  O_17
REMARK                            x       y       z     vdW  Elec       q    Type
REMARK                         _______ _______ _______ _____ _____    ______ ____
ROOT
ATOM      1  C   UNL     1       4.353   5.074  17.515  0.00  0.00    +0.000 C 
ATOM      2  O   UNL     1       4.581   5.933  18.357  0.00  0.00    +0.000 OA
ATOM      3  N   UNL     1       3.679   3.889  17.732  0.00  0.00    +0.000 N 
ATOM      4  H   UNL     1       3.760   3.147  17.051  0.00  0.00    +0.000 HD
ENDROOT
BRANCH   3   5
ATOM      5  C   UNL     1       3.005   3.599  18.942  0.00  0.00    +0.000 A 
ATOM      6  C   UNL     1       3.645   2.944  20.003  0.00  0.00    +0.000 A 
ATOM      7  C   UNL     1       2.951   2.586  21.155  0.00  0.00    +0.000 A 
ATOM      8  C   UNL     1       1.609   2.908  21.261  0.00  0.00    +0.000 A 
ATOM      9  C   UNL     1       0.967   3.614  20.249  0.00  0.00    +0.000 A 
ATOM     10  C   UNL     1       1.669   3.975  19.091  0.00  0.00    +0.000 A 
BRANCH   8  11
ATOM     11  O   UNL     1       0.887   2.536  22.354  0.00  0.00    +0.000 OA
ATOM     12  H   UNL     1       0.805   1.567  22.347  0.00  0.00    +0.000 HD
ENDBRANCH   8  11
ENDBRANCH   3   5
BRANCH   1  15
ATOM     13  C   UNL     1       6.172   4.932  15.822  0.00  0.00    +0.000 C 
ATOM     14  C   UNL     1       7.191   4.543  16.872  0.00  0.00    +0.000 C 
ATOM     15  C   UNL     1       4.886   5.224  16.135  0.00  0.00    +0.000 C 
BRANCH  13  16
ATOM     16  C   UNL     1       6.718   4.951  14.405  0.00  0.00    +0.000 C 
BRANCH  16  17
ATOM     17  C   UNL     1       6.448   3.692  13.575  0.00  0.00    +0.000 C 
BRANCH  17  21
ATOM     18  C   UNL     1       3.681   3.174  10.881  0.00  0.00    +0.000 C 
ATOM     19  C   UNL     1       4.936   2.971  11.680  0.00  0.00    +0.000 C 
ATOM     20  C   UNL     1       5.785   1.775  11.339  0.00  0.00    +0.000 C 
ATOM     21  C   UNL     1       5.269   3.842  12.654  0.00  0.00    +0.000 C 
ENDBRANCH  17  21
ENDBRANCH  16  17
ENDBRANCH  13  16
ENDBRANCH   1  15
TORSDOF 6
ENDMDL
MODEL 2
REMARK VINA RESULT:      -7.7      0.156      1.115
REMARK  Name = 
REMARK  9 active torsions:
REMARK  status: ('A' for Active; 'I' for Inactive)
REMARK    1  A    between atoms: C_1  and  C_2
REMARK    2  A    between atoms: C_2  and  C_3
REMARK    3  A    between atoms: C_4  and  C_5
REMARK    4  A    between atoms: C_5  and  C_6
REMARK    5  A    between atoms: C_6  and  C_7
REMARK    6  A    between atoms: C_7  and  C_8
REMARK    7  A    between atoms: C_9  and  C_10
REMARK    8  A    between atoms: N_12  and  C_13
REMARK    9  A    between atoms: C_16  and  O_17
REMARK                            x       y       z     vdW  Elec       q    Type
REMARK                         _______ _______ _______ _____ _____    ______ ____
ROOT
ATOM      1  C   UNL     1       4.346   4.952  17.522  0.00  0.00    +0.000 C 
ATOM      2  O   UNL     1       4.566   5.762  18.413  0.00  0.00    +0.000 OA
ATOM      3  N   UNL     1       3.669   3.757  17.667  0.00  0.00    +0.000 N 
ATOM      4  H   UNL     1       3.756   3.053  16.946  0.00  0.00    +0.000 HD
ENDROOT
BRANCH   3   5
ATOM      5  C   UNL     1       2.984   3.401  18.852  0.00  0.00    +0.000 A 
ATOM      6  C   UNL     1       1.613   3.642  19.012  0.00  0.00    +0.000 A 
ATOM      7  C   UNL     1       0.966   3.368  20.214  0.00  0.00    +0.000 A 
ATOM      8  C   UNL     1       1.690   2.824  21.260  0.00  0.00    +0.000 A 
ATOM      9  C   UNL     1       3.039   2.516  21.106  0.00  0.00    +0.000 A 
ATOM     10  C   UNL     1       3.685   2.792  19.894  0.00  0.00    +0.000 A 
BRANCH   8  11
ATOM     11  O   UNL     1       1.101   2.582  22.464  0.00  0.00    +0.000 OA
ATOM     12  H   UNL     1       1.443   1.737  22.803  0.00  0.00    +0.000 HD
ENDBRANCH   8  11
ENDBRANCH   3   5
BRANCH   1  15
ATOM     13  C   UNL     1       6.179   4.895  15.839  0.00  0.00    +0.000 C 
ATOM     14  C   UNL     1       7.186   4.441  16.874  0.00  0.00    +0.000 C 
ATOM     15  C   UNL     1       4.891   5.177  16.157  0.00  0.00    +0.000 C 
BRANCH  13  16
ATOM     16  C   UNL     1       6.737   4.992  14.430  0.00  0.00    +0.000 C 
BRANCH  16  17
ATOM     17  C   UNL     1       6.517   3.761  13.546  0.00  0.00    +0.000 C 
BRANCH  17  21
ATOM     18  C   UNL     1       3.702   3.199  10.912  0.00  0.00    +0.000 C 
ATOM     19  C   UNL     1       4.971   3.009  11.691  0.00  0.00    +0.000 C 
ATOM     20  C   UNL     1       5.813   1.807  11.354  0.00  0.00    +0.000 C 
ATOM     21  C   UNL     1       5.322   3.896  12.645  0.00  0.00    +0.000 C 
ENDBRANCH  17  21
ENDBRANCH  16  17
ENDBRANCH  13  16
ENDBRANCH   1  15
TORSDOF 6
ENDMDL
MODEL 3
REMARK VINA RESULT:      -7.1      1.137      1.953
REMARK  Name = 
REMARK  9 active torsions:
REMARK  status: ('A' for Active; 'I' for Inactive)
REMARK    1  A    between atoms: C_1  and  C_2
REMARK    2  A    between atoms: C_2  and  C_3
REMARK    3  A    between atoms: C_4  and  C_5
REMARK    4  A    between atoms: C_5  and  C_6
REMARK    5  A    between atoms: C_6  and  C_7
REMARK    6  A    between atoms: C_7  and  C_8
REMARK    7  A    between atoms: C_9  and  C_10
REMARK    8  A    between atoms: N_12  and  C_13
REMARK    9  A    between atoms: C_16  and  O_17
REMARK                            x       y       z     vdW  Elec       q    Type
REMARK                         _______ _______ _______ _____ _____    ______ ____
ROOT
ATOM      1  C   UNL     1       5.675   4.098  17.321  0.00  0.00    +0.000 C 
ATOM      2  O   UNL     1       5.841   4.900  18.230  0.00  0.00    +0.000 OA
ATOM      3  N   UNL     1       4.716   3.105  17.285  0.00  0.00    +0.000 N 
ATOM      4  H   UNL     1       4.819   2.348  16.622  0.00  0.00    +0.000 HD
ENDROOT
BRANCH   3   5
ATOM      5  C   UNL     1       3.677   3.006  18.239  0.00  0.00    +0.000 A 
ATOM      6  C   UNL     1       2.346   3.297  17.913  0.00  0.00    +0.000 A 
ATOM      7  C   UNL     1       1.345   3.281  18.880  0.00  0.00    +0.000 A 
ATOM      8  C   UNL     1       1.671   2.944  20.183  0.00  0.00    +0.000 A 
ATOM      9  C   UNL     1       2.973   2.588  20.519  0.00  0.00    +0.000 A 
ATOM     10  C   UNL     1       3.978   2.605  19.542  0.00  0.00    +0.000 A 
BRANCH   8  11
ATOM     11  O   UNL     1       0.726   2.959  21.163  0.00  0.00    +0.000 OA
ATOM     12  H   UNL     1      -0.082   3.357  20.798  0.00  0.00    +0.000 HD
ENDBRANCH   8  11
ENDBRANCH   3   5
BRANCH   1  15
ATOM     13  C   UNL     1       6.445   4.932  15.106  0.00  0.00    +0.000 C 
ATOM     14  C   UNL     1       5.257   5.862  14.984  0.00  0.00    +0.000 C 
ATOM     15  C   UNL     1       6.600   4.089  16.156  0.00  0.00    +0.000 C 
BRANCH  13  16
ATOM     16  C   UNL     1       7.438   5.041  13.961  0.00  0.00    +0.000 C 
BRANCH  16  17
ATOM     17  C   UNL     1       6.864   4.796  12.563  0.00  0.00    +0.000 C 
BRANCH  17  21
ATOM     18  C   UNL     1       5.954   1.236  11.267  0.00  0.00    +0.000 C 
ATOM     19  C   UNL     1       5.805   2.662  11.715  0.00  0.00    +0.000 C 
ATOM     20  C   UNL     1       4.431   3.270  11.634  0.00  0.00    +0.000 C 
ATOM     21  C   UNL     1       6.875   3.345  12.173  0.00  0.00    +0.000 C 
ENDBRANCH  17  21
ENDBRANCH  16  17
ENDBRANCH  13  16
ENDBRANCH   1  15
TORSDOF 6
ENDMDL
MODEL 4
REMARK VINA RESULT:      -7.0      1.450      1.927
REMARK  Name = 
REMARK  9 active torsions:
REMARK  status: ('A' for Active; 'I' for Inactive)
REMARK    1  A    between atoms: C_1  and  C_2
REMARK    2  A    between atoms: C_2  and  C_3
REMARK    3  A    between atoms: C_4  and  C_5
REMARK    4  A    between atoms: C_5  and  C_6
REMARK    5  A    between atoms: C_6  and  C_7
REMARK    6  A    between atoms: C_7  and  C_8
REMARK    7  A    between atoms: C_9  and  C_10
REMARK    8  A    between atoms: N_12  and  C_13
REMARK    9  A    between atoms: C_16  and  O_17
REMARK                            x       y       z     vdW  Elec       q    Type
REMARK                         _______ _______ _______ _____ _____    ______ ____
ROOT
ATOM      1  C   UNL     1       5.792   4.023  17.034  0.00  0.00    +0.000 C 
ATOM      2  O   UNL     1       6.119   4.569  18.079  0.00  0.00    +0.000 OA
ATOM      3  N   UNL     1       4.632   3.301  16.828  0.00  0.00    +0.000 N 
ATOM      4  H   UNL     1       4.572   2.688  16.027  0.00  0.00    +0.000 HD
ENDROOT
BRANCH   3   5
ATOM      5  C   UNL     1       3.581   3.252  17.773  0.00  0.00    +0.000 A 
ATOM      6  C   UNL     1       3.235   2.064  18.431  0.00  0.00    +0.000 A 
ATOM      7  C   UNL     1       2.144   2.006  19.293  0.00  0.00    +0.000 A 
ATOM      8  C   UNL     1       1.404   3.154  19.522  0.00  0.00    +0.000 A 
ATOM      9  C   UNL     1       1.766   4.361  18.932  0.00  0.00    +0.000 A 
ATOM     10  C   UNL     1       2.866   4.415  18.066  0.00  0.00    +0.000 A 
BRANCH   8  11
ATOM     11  O   UNL     1       0.305   3.126  20.326  0.00  0.00    +0.000 OA
ATOM     12  H   UNL     1       0.227   3.992  20.761  0.00  0.00    +0.000 HD
ENDBRANCH   8  11
ENDBRANCH   3   5
BRANCH   1  15
ATOM     13  C   UNL     1       6.584   4.933  14.857  0.00  0.00    +0.000 C 
ATOM     14  C   UNL     1       5.429   5.909  14.785  0.00  0.00    +0.000 C 
ATOM     15  C   UNL     1       6.712   4.036  15.866  0.00  0.00    +0.000 C 
BRANCH  13  16
ATOM     16  C   UNL     1       7.576   5.060  13.714  0.00  0.00    +0.000 C 
BRANCH  16  17
ATOM     17  C   UNL     1       7.019   4.763  12.319  0.00  0.00    +0.000 C 
BRANCH  17  21
ATOM     18  C   UNL     1       5.977   1.159  11.266  0.00  0.00    +0.000 C 
ATOM     19  C   UNL     1       5.878   2.608  11.649  0.00  0.00    +0.000 C 
ATOM     20  C   UNL     1       4.510   3.236  11.621  0.00  0.00    +0.000 C 
ATOM     21  C   UNL     1       6.983   3.294  12.005  0.00  0.00    +0.000 C 
ENDBRANCH  17  21
ENDBRANCH  16  17
ENDBRANCH  13  16
ENDBRANCH   1  15
TORSDOF 6
ENDMDL
MODEL 5
REMARK VINA RESULT:      -7.0      4.445      6.831
REMARK  Name = 
REMARK  9 active torsions:
REMARK  status: ('A' for Active; 'I' for Inactive)
REMARK    1  A    between atoms: C_1  and  C_2
REMARK    2  A    between atoms: C_2  and  C_3
REMARK    3  A    between atoms: C_4  and  C_5
REMARK    4  A    between atoms: C_5  and  C_6
REMARK    5  A    between atoms: C_6  and  C_7
REMARK    6  A    between atoms: C_7  and  C_8
REMARK    7  A    between atoms: C_9  and  C_10
REMARK    8  A    between atoms: N_12  and  C_13
REMARK    9  A    between atoms: C_16  and  O_17
REMARK                            x       y       z     vdW  Elec       q    Type
REMARK                         _______ _______ _______ _____ _____    ______ ____
ROOT
ATOM      1  C   UNL     1       6.734   5.088  18.250  0.00  0.00    +0.000 C 
ATOM      2  O   UNL     1       6.954   4.377  17.278  0.00  0.00    +0.000 OA
ATOM      3  N   UNL     1       5.557   5.128  18.971  0.00  0.00    +0.000 N 
ATOM      4  H   UNL     1       5.384   5.911  19.586  0.00  0.00    +0.000 HD
ENDROOT
BRANCH   3   5
ATOM      5  C   UNL     1       4.503   4.205  18.772  0.00  0.00    +0.000 A 
ATOM      6  C   UNL     1       3.487   4.436  17.835  0.00  0.00    +0.000 A 
ATOM      7  C   UNL     1       2.409   3.566  17.708  0.00  0.00    +0.000 A 
ATOM      8  C   UNL     1       2.357   2.437  18.508  0.00  0.00    +0.000 A 
ATOM      9  C   UNL     1       3.385   2.151  19.401  0.00  0.00    +0.000 A 
ATOM     10  C   UNL     1       4.469   3.029  19.524  0.00  0.00    +0.000 A 
BRANCH   8  11
ATOM     11  O   UNL     1       1.296   1.584  18.441  0.00  0.00    +0.000 OA
ATOM     12  H   UNL     1       0.996   1.547  17.517  0.00  0.00    +0.000 HD
ENDBRANCH   8  11
ENDBRANCH   3   5
BRANCH   1  15
ATOM     13  C   UNL     1       7.809   7.332  18.204  0.00  0.00    +0.000 C 
ATOM     14  C   UNL     1       6.915   7.796  17.074  0.00  0.00    +0.000 C 
ATOM     15  C   UNL     1       7.754   6.072  18.700  0.00  0.00    +0.000 C 
BRANCH  13  16
ATOM     16  C   UNL     1       8.752   8.401  18.729  0.00  0.00    +0.000 C 
BRANCH  16  17
ATOM     17  C   UNL     1       8.474   9.826  18.240  0.00  0.00    +0.000 C 
BRANCH  17  21
ATOM     18  C   UNL     1      11.344  12.102  19.568  0.00  0.00    +0.000 C 
ATOM     19  C   UNL     1      10.084  11.286  19.533  0.00  0.00    +0.000 C 
ATOM     20  C   UNL     1       9.328  11.128  20.826  0.00  0.00    +0.000 C 
ATOM     21  C   UNL     1       9.665  10.732  18.377  0.00  0.00    +0.000 C 
ENDBRANCH  17  21
ENDBRANCH  16  17
ENDBRANCH  13  16
ENDBRANCH   1  15
TORSDOF 6
ENDMDL
MODEL 6
REMARK VINA RESULT:      -7.0      1.001      1.579
REMARK  Name = 
REMARK  9 active torsions:
REMARK  status: ('A' for Active; 'I' for Inactive)
REMARK    1  A    between atoms: C_1  and  C_2
REMARK    2  A    between atoms: C_2  and  C_3
REMARK    3  A    between atoms: C_4  and  C_5
REMARK    4  A    between atoms: C_5  and  C_6
REMARK    5  A    between atoms: C_6  and  C_7
REMARK    6  A    between atoms: C_7  and  C_8
REMARK    7  A    between atoms: C_9  and  C_10
REMARK    8  A    between atoms: N_12  and  C_13
REMARK    9  A    between atoms: C_16  and  O_17
REMARK                            x       y       z     vdW  Elec       q    Type
REMARK                         _______ _______ _______ _____ _____    ______ ____
ROOT
ATOM      1  C   UNL     1       4.469   4.906  16.655  0.00  0.00    +0.000 C 
ATOM      2  O   UNL     1       4.254   5.915  17.314  0.00  0.00    +0.000 OA
ATOM      3  N   UNL     1       4.125   3.618  17.016  0.00  0.00    +0.000 N 
ATOM      4  H   UNL     1       4.561   2.841  16.536  0.00  0.00    +0.000 HD
ENDROOT
BRANCH   3   5
ATOM      5  C   UNL     1       3.312   3.325  18.136  0.00  0.00    +0.000 A 
ATOM      6  C   UNL     1       2.094   2.645  18.005  0.00  0.00    +0.000 A 
ATOM      7  C   UNL     1       1.260   2.437  19.100  0.00  0.00    +0.000 A 
ATOM      8  C   UNL     1       1.658   2.892  20.345  0.00  0.00    +0.000 A 
ATOM      9  C   UNL     1       2.892   3.513  20.513  0.00  0.00    +0.000 A 
ATOM     10  C   UNL     1       3.729   3.718  19.409  0.00  0.00    +0.000 A 
BRANCH   8  11
ATOM     11  O   UNL     1       0.850   2.745  21.432  0.00  0.00    +0.000 OA
ATOM     12  H   UNL     1       1.409   2.523  22.196  0.00  0.00    +0.000 HD
ENDBRANCH   8  11
ENDBRANCH   3   5
BRANCH   1  15
ATOM     13  C   UNL     1       6.569   4.813  15.324  0.00  0.00    +0.000 C 
ATOM     14  C   UNL     1       7.412   4.621  16.567  0.00  0.00    +0.000 C 
ATOM     15  C   UNL     1       5.227   4.996  15.379  0.00  0.00    +0.000 C 
BRANCH  13  16
ATOM     16  C   UNL     1       7.359   4.772  14.027  0.00  0.00    +0.000 C 
BRANCH  16  17
ATOM     17  C   UNL     1       6.542   4.487  12.764  0.00  0.00    +0.000 C 
BRANCH  17  21
ATOM     18  C   UNL     1       5.965   1.008  11.107  0.00  0.00    +0.000 C 
ATOM     19  C   UNL     1       5.713   2.411  11.581  0.00  0.00    +0.000 C 
ATOM     20  C   UNL     1       4.396   3.038  11.211  0.00  0.00    +0.000 C 
ATOM     21  C   UNL     1       6.645   3.057  12.312  0.00  0.00    +0.000 C 
ENDBRANCH  17  21
ENDBRANCH  16  17
ENDBRANCH  13  16
ENDBRANCH   1  15
TORSDOF 6
ENDMDL
MODEL 7
REMARK VINA RESULT:      -6.9      1.392      1.708
REMARK  Name = 
REMARK  9 active torsions:
REMARK  status: ('A' for Active; 'I' for Inactive)
REMARK    1  A    between atoms: C_1  and  C_2
REMARK    2  A    between atoms: C_2  and  C_3
REMARK    3  A    between atoms: C_4  and  C_5
REMARK    4  A    between atoms: C_5  and  C_6
REMARK    5  A    between atoms: C_6  and  C_7
REMARK    6  A    between atoms: C_7  and  C_8
REMARK    7  A    between atoms: C_9  and  C_10
REMARK    8  A    between atoms: N_12  and  C_13
REMARK    9  A    between atoms: C_16  and  O_17
REMARK                            x       y       z     vdW  Elec       q    Type
REMARK                         _______ _______ _______ _____ _____    ______ ____
ROOT
ATOM      1  C   UNL     1       4.503   3.602  16.865  0.00  0.00    +0.000 C 
ATOM      2  O   UNL     1       3.323   3.542  16.547  0.00  0.00    +0.000 OA
ATOM      3  N   UNL     1       4.989   3.676  18.155  0.00  0.00    +0.000 N 
ATOM      4  H   UNL     1       5.945   3.971  18.303  0.00  0.00    +0.000 HD
ENDROOT
BRANCH   3   5
ATOM      5  C   UNL     1       4.168   3.511  19.295  0.00  0.00    +0.000 A 
ATOM      6  C   UNL     1       4.186   2.333  20.053  0.00  0.00    +0.000 A 
ATOM      7  C   UNL     1       3.313   2.147  21.121  0.00  0.00    +0.000 A 
ATOM      8  C   UNL     1       2.429   3.159  21.453  0.00  0.00    +0.000 A 
ATOM      9  C   UNL     1       2.435   4.363  20.757  0.00  0.00    +0.000 A 
ATOM     10  C   UNL     1       3.317   4.547  19.683  0.00  0.00    +0.000 A 
BRANCH   8  11
ATOM     11  O   UNL     1       1.531   2.996  22.464  0.00  0.00    +0.000 OA
ATOM     12  H   UNL     1       1.995   3.147  23.306  0.00  0.00    +0.000 HD
ENDBRANCH   8  11
ENDBRANCH   3   5
BRANCH   1  15
ATOM     13  C   UNL     1       5.962   4.864  15.292  0.00  0.00    +0.000 C 
ATOM     14  C   UNL     1       5.301   6.178  15.649  0.00  0.00    +0.000 C 
ATOM     15  C   UNL     1       5.554   3.682  15.816  0.00  0.00    +0.000 C 
BRANCH  13  16
ATOM     16  C   UNL     1       7.118   4.997  14.315  0.00  0.00    +0.000 C 
BRANCH  16  17
ATOM     17  C   UNL     1       6.752   4.851  12.835  0.00  0.00    +0.000 C 
BRANCH  17  21
ATOM     18  C   UNL     1       6.047   1.366  11.244  0.00  0.00    +0.000 C 
ATOM     19  C   UNL     1       5.822   2.752  11.776  0.00  0.00    +0.000 C 
ATOM     20  C   UNL     1       4.436   3.325  11.644  0.00  0.00    +0.000 C 
ATOM     21  C   UNL     1       6.836   3.431  12.350  0.00  0.00    +0.000 C 
ENDBRANCH  17  21
ENDBRANCH  16  17
ENDBRANCH  13  16
ENDBRANCH   1  15
TORSDOF 6
ENDMDL
MODEL 8
REMARK VINA RESULT:      -6.9      4.712      6.813
REMARK  Name = 
REMARK  9 active torsions:
REMARK  status: ('A' for Active; 'I' for Inactive)
REMARK    1  A    between atoms: C_1  and  C_2
REMARK    2  A    between atoms: C_2  and  C_3
REMARK    3  A    between atoms: C_4  and  C_5
REMARK    4  A    between atoms: C_5  and  C_6
REMARK    5  A    between atoms: C_6  and  C_7
REMARK    6  A    between atoms: C_7  and  C_8
REMARK    7  A    between atoms: C_9  and  C_10
REMARK    8  A    between atoms: N_12  and  C_13
REMARK    9  A    between atoms: C_16  and  O_17
REMARK                            x       y       z     vdW  Elec       q    Type
REMARK                         _______ _______ _______ _____ _____    ______ ____
ROOT
ATOM      1  C   UNL     1       7.166   5.232  18.562  0.00  0.00    +0.000 C 
ATOM      2  O   UNL     1       7.654   4.319  17.910  0.00  0.00    +0.000 OA
ATOM      3  N   UNL     1       5.828   5.376  18.872  0.00  0.00    +0.000 N 
ATOM      4  H   UNL     1       5.492   6.275  19.192  0.00  0.00    +0.000 HD
ENDROOT
BRANCH   3   5
ATOM      5  C   UNL     1       4.867   4.371  18.612  0.00  0.00    +0.000 A 
ATOM      6  C   UNL     1       4.080   4.385  17.452  0.00  0.00    +0.000 A 
ATOM      7  C   UNL     1       3.078   3.442  17.247  0.00  0.00    +0.000 A 
ATOM      8  C   UNL     1       2.875   2.456  18.198  0.00  0.00    +0.000 A 
ATOM      9  C   UNL     1       3.684   2.382  19.327  0.00  0.00    +0.000 A 
ATOM     10  C   UNL     1       4.693   3.333  19.529  0.00  0.00    +0.000 A 
BRANCH   8  11
ATOM     11  O   UNL     1       1.876   1.542  18.051  0.00  0.00    +0.000 OA
ATOM     12  H   UNL     1       1.694   1.152  18.923  0.00  0.00    +0.000 HD
ENDBRANCH   8  11
ENDBRANCH   3   5
BRANCH   1  15
ATOM     13  C   UNL     1       8.066   7.545  18.381  0.00  0.00    +0.000 C 
ATOM     14  C   UNL     1       7.344   7.780  17.072  0.00  0.00    +0.000 C 
ATOM     15  C   UNL     1       8.020   6.355  19.030  0.00  0.00    +0.000 C 
BRANCH  13  16
ATOM     16  C   UNL     1       8.826   8.755  18.897  0.00  0.00    +0.000 C 
BRANCH  16  17
ATOM     17  C   UNL     1       8.526  10.077  18.185  0.00  0.00    +0.000 C 
BRANCH  17  21
ATOM     18  C   UNL     1      11.013  13.048  17.774  0.00  0.00    +0.000 C 
ATOM     19  C   UNL     1       9.727  12.275  17.838  0.00  0.00    +0.000 C 
ATOM     20  C   UNL     1       8.447  13.054  17.690  0.00  0.00    +0.000 C 
ATOM     21  C   UNL     1       9.746  10.938  18.016  0.00  0.00    +0.000 C 
ENDBRANCH  17  21
ENDBRANCH  16  17
ENDBRANCH  13  16
ENDBRANCH   1  15
TORSDOF 6
ENDMDL
MODEL 9
REMARK VINA RESULT:      -6.9      4.074      6.298
REMARK  Name = 
REMARK  9 active torsions:
REMARK  status: ('A' for Active; 'I' for Inactive)
REMARK    1  A    between atoms: C_1  and  C_2
REMARK    2  A    between atoms: C_2  and  C_3
REMARK    3  A    between atoms: C_4  and  C_5
REMARK    4  A    between atoms: C_5  and  C_6
REMARK    5  A    between atoms: C_6  and  C_7
REMARK    6  A    between atoms: C_7  and  C_8
REMARK    7  A    between atoms: C_9  and  C_10
REMARK    8  A    between atoms: N_12  and  C_13
REMARK    9  A    between atoms: C_16  and  O_17
REMARK                            x       y       z     vdW  Elec       q    Type
REMARK                         _______ _______ _______ _____ _____    ______ ____
ROOT
ATOM      1  C   UNL     1       5.195   5.760  17.632  0.00  0.00    +0.000 C 
ATOM      2  O   UNL     1       5.558   4.618  17.384  0.00  0.00    +0.000 OA
ATOM      3  N   UNL     1       3.976   6.121  18.170  0.00  0.00    +0.000 N 
ATOM      4  H   UNL     1       3.677   7.085  18.104  0.00  0.00    +0.000 HD
ENDROOT
BRANCH   3   5
ATOM      5  C   UNL     1       3.047   5.178  18.669  0.00  0.00    +0.000 A 
ATOM      6  C   UNL     1       2.135   4.526  17.828  0.00  0.00    +0.000 A 
ATOM      7  C   UNL     1       1.168   3.665  18.339  0.00  0.00    +0.000 A 
ATOM      8  C   UNL     1       1.127   3.432  19.703  0.00  0.00    +0.000 A 
ATOM      9  C   UNL     1       2.062   4.016  20.552  0.00  0.00    +0.000 A 
ATOM     10  C   UNL     1       3.035   4.881  20.032  0.00  0.00    +0.000 A 
BRANCH   8  11
ATOM     11  O   UNL     1       0.169   2.629  20.244  0.00  0.00    +0.000 OA
ATOM     12  H   UNL     1       0.554   2.176  21.014  0.00  0.00    +0.000 HD
ENDBRANCH   8  11
ENDBRANCH   3   5
BRANCH   1  15
ATOM     13  C   UNL     1       7.306   7.068  17.810  0.00  0.00    +0.000 C 
ATOM     14  C   UNL     1       7.848   6.148  18.883  0.00  0.00    +0.000 C 
ATOM     15  C   UNL     1       6.067   6.912  17.281  0.00  0.00    +0.000 C 
BRANCH  13  16
ATOM     16  C   UNL     1       8.272   8.158  17.381  0.00  0.00    +0.000 C 
BRANCH  16  17
ATOM     17  C   UNL     1       8.006   9.547  17.970  0.00  0.00    +0.000 C 
BRANCH  17  21
ATOM     18  C   UNL     1      10.545  11.532  20.159  0.00  0.00    +0.000 C 
ATOM     19  C   UNL     1       9.581  11.200  19.056  0.00  0.00    +0.000 C 
ATOM     20  C   UNL     1       9.259  12.292  18.071  0.00  0.00    +0.000 C 
ATOM     21  C   UNL     1       9.045   9.965  18.972  0.00  0.00    +0.000 C 
ENDBRANCH  17  21
ENDBRANCH  16  17
ENDBRANCH  13  16
ENDBRANCH   1  15
TORSDOF 6
ENDMDL
