MODEL 1
REMARK VINA RESULT:      -8.5      0.000      0.000
REMARK  Name = 
REMARK  11 active torsions:
REMARK  status: ('A' for Active; 'I' for Inactive)
REMARK    1  A    between atoms: C_1  and  C_2
REMARK    2  A    between atoms: C_6  and  C_7
REMARK    3  A    between atoms: N_8  and  C_9
REMARK    4  A    between atoms: C_9  and  C_10
REMARK    5  A    between atoms: C_10  and  C_11
REMARK    6  A    between atoms: C_11  and  C_12
REMARK    7  A    between atoms: C_12  and  C_13
REMARK    8  A    between atoms: C_13  and  N_14
REMARK    9  A    between atoms: C_17  and  C_18
REMARK   10  A    between atoms: C_21  and  C_22
REMARK   11  A    between atoms: C_22  and  S_24
REMARK                            x       y       z     vdW  Elec       q    Type
REMARK                         _______ _______ _______ _____ _____    ______ ____
ROOT
ATOM      1  N   UNL     1       6.789   5.040  18.032  0.00  0.00    +0.000 N 
ATOM      2  C   UNL     1       5.876   4.831  19.069  0.00  0.00    +0.000 C 
ATOM      3  O   UNL     1       6.169   4.922  20.262  0.00  0.00    +0.000 OA
ATOM      4  C   UNL     1       4.426   4.596  18.629  0.00  0.00    +0.000 C 
ATOM      5  O   UNL     1       4.282   3.838  17.427  0.00  0.00    +0.000 OA
ATOM      6  C   UNL     1       5.160   4.197  16.437  0.00  0.00    +0.000 A 
ATOM      7  C   UNL     1       4.752   3.888  15.136  0.00  0.00    +0.000 A 
ATOM      8  C   UNL     1       5.566   4.206  14.056  0.00  0.00    +0.000 A 
ATOM      9  C   UNL     1       6.796   4.816  14.280  0.00  0.00    +0.000 A 
ATOM     10  C   UNL     1       7.213   5.104  15.585  0.00  0.00    +0.000 A 
ATOM     11  C   UNL     1       6.402   4.796  16.687  0.00  0.00    +0.000 A 
ENDROOT
BRANCH   4  12
ATOM     12  C   UNL     1       3.629   5.903  18.584  0.00  0.00    +0.000 A 
ATOM     13  C   UNL     1       3.763   6.788  17.508  0.00  0.00    +0.000 A 
ATOM     14  C   UNL     1       3.069   8.005  17.484  0.00  0.00    +0.000 A 
ATOM     15  C   UNL     1       2.195   8.347  18.526  0.00  0.00    +0.000 A 
ATOM     16  C   UNL     1       2.015   7.442  19.574  0.00  0.00    +0.000 A 
ATOM     17  C   UNL     1       2.721   6.237  19.602  0.00  0.00    +0.000 A 
BRANCH  15  18
ATOM     18  C   UNL     1       1.462   9.635  18.463  0.00  0.00    +0.000 C 
ATOM     19  N   UNL     1       1.766  10.591  17.645  0.00  0.00    +0.000 NA
ATOM     20  H   UNL     1       2.534  10.327  17.023  0.00  0.00    +0.000 HD
BRANCH  18  21
ATOM     21  S   UNL     1       0.123   9.954  19.552  0.00  0.00    +0.000 S 
ATOM     22  H   UNL     1       0.205  11.287  19.617  0.00  0.00    +0.000 HD
ENDBRANCH  18  21
ENDBRANCH  15  18
ENDBRANCH   4  12
BRANCH   1  23
ATOM     23  C   UNL     1       8.153   5.388  18.409  0.00  0.00    +0.000 C 
BRANCH  23  24
ATOM     24  C   UNL     1       8.223   6.831  18.898  0.00  0.00    +0.000 C 
BRANCH  24  25
ATOM     25  C   UNL     1       7.582   7.788  17.911  0.00  0.00    +0.000 C 
BRANCH  25  26
ATOM     26  C   UNL     1       8.504   8.987  17.715  0.00  0.00    +0.000 C 
BRANCH  26  27
ATOM     27  C   UNL     1       8.947   9.633  19.023  0.00  0.00    +0.000 C 
BRANCH  27  35
ATOM     28  C   UNL     1       8.871  13.188  17.723  0.00  0.00    +0.000 C 
ATOM     29  C   UNL     1       9.351  11.739  17.909  0.00  0.00    +0.000 C 
ATOM     30  C   UNL     1      10.888  11.652  17.853  0.00  0.00    +0.000 C 
ATOM     31  C   UNL     1      11.547  12.199  19.115  0.00  0.00    +0.000 C 
ATOM     32  C   UNL     1      10.919  11.624  20.381  0.00  0.00    +0.000 C 
ATOM     33  C   UNL     1       9.386  11.726  20.354  0.00  0.00    +0.000 C 
ATOM     34  C   UNL     1       8.810  11.299  21.710  0.00  0.00    +0.000 C 
ATOM     35  N   UNL     1       8.796  11.103  19.139  0.00  0.00    +0.000 NA
ENDBRANCH  27  35
ENDBRANCH  26  27
ENDBRANCH  25  26
ENDBRANCH  24  25
ENDBRANCH  23  24
ENDBRANCH   1  23
TORSDOF 9
ENDMDL
MODEL 2
REMARK VINA RESULT:      -8.3      4.752      8.867
REMARK  Name = 
REMARK  11 active torsions:
REMARK  status: ('A' for Active; 'I' for Inactive)
REMARK    1  A    between atoms: C_1  and  C_2
REMARK    2  A    between atoms: C_6  and  C_7
REMARK    3  A    between atoms: N_8  and  C_9
REMARK    4  A    between atoms: C_9  and  C_10
REMARK    5  A    between atoms: C_10  and  C_11
REMARK    6  A    between atoms: C_11  and  C_12
REMARK    7  A    between atoms: C_12  and  C_13
REMARK    8  A    between atoms: C_13  and  N_14
REMARK    9  A    between atoms: C_17  and  C_18
REMARK   10  A    between atoms: C_21  and  C_22
REMARK   11  A    between atoms: C_22  and  S_24
REMARK                            x       y       z     vdW  Elec       q    Type
REMARK                         _______ _______ _______ _____ _____    ______ ____
ROOT
ATOM      1  N   UNL     1       0.814  11.236  19.565  0.00  0.00    +0.000 N 
ATOM      2  C   UNL     1       0.270  12.483  19.247  0.00  0.00    +0.000 C 
ATOM      3  O   UNL     1       0.578  13.123  18.241  0.00  0.00    +0.000 OA
ATOM      4  C   UNL     1      -0.848  12.968  20.177  0.00  0.00    +0.000 C 
ATOM      5  O   UNL     1      -0.668  12.630  21.553  0.00  0.00    +0.000 OA
ATOM      6  C   UNL     1      -0.231  11.347  21.756  0.00  0.00    +0.000 A 
ATOM      7  C   UNL     1      -0.525  10.807  23.012  0.00  0.00    +0.000 A 
ATOM      8  C   UNL     1      -0.127   9.513  23.326  0.00  0.00    +0.000 A 
ATOM      9  C   UNL     1       0.582   8.768  22.390  0.00  0.00    +0.000 A 
ATOM     10  C   UNL     1       0.896   9.318  21.141  0.00  0.00    +0.000 A 
ATOM     11  C   UNL     1       0.497  10.620  20.805  0.00  0.00    +0.000 A 
ENDROOT
BRANCH   4  12
ATOM     12  C   UNL     1      -2.232  12.559  19.661  0.00  0.00    +0.000 A 
ATOM     13  C   UNL     1      -2.367  11.826  18.477  0.00  0.00    +0.000 A 
ATOM     14  C   UNL     1      -3.633  11.489  17.978  0.00  0.00    +0.000 A 
ATOM     15  C   UNL     1      -4.793  11.850  18.677  0.00  0.00    +0.000 A 
ATOM     16  C   UNL     1      -4.661  12.532  19.889  0.00  0.00    +0.000 A 
ATOM     17  C   UNL     1      -3.398  12.881  20.374  0.00  0.00    +0.000 A 
BRANCH  15  18
ATOM     18  C   UNL     1      -6.117  11.463  18.131  0.00  0.00    +0.000 C 
ATOM     19  N   UNL     1      -6.658  12.030  17.101  0.00  0.00    +0.000 NA
ATOM     20  H   UNL     1      -6.042  12.734  16.688  0.00  0.00    +0.000 HD
BRANCH  18  21
ATOM     21  S   UNL     1      -7.064  10.200  18.898  0.00  0.00    +0.000 S 
ATOM     22  H   UNL     1      -8.159  10.252  18.134  0.00  0.00    +0.000 HD
ENDBRANCH  18  21
ENDBRANCH  15  18
ENDBRANCH   4  12
BRANCH   1  23
ATOM     23  C   UNL     1       1.793  10.684  18.638  0.00  0.00    +0.000 C 
BRANCH  23  24
ATOM     24  C   UNL     1       1.244   9.432  17.960  0.00  0.00    +0.000 C 
BRANCH  24  25
ATOM     25  C   UNL     1       2.360   8.522  17.480  0.00  0.00    +0.000 C 
BRANCH  25  26
ATOM     26  C   UNL     1       2.668   7.501  18.571  0.00  0.00    +0.000 C 
BRANCH  26  27
ATOM     27  C   UNL     1       3.167   6.166  18.030  0.00  0.00    +0.000 C 
BRANCH  27  35
ATOM     28  C   UNL     1       6.873   6.780  17.562  0.00  0.00    +0.000 C 
ATOM     29  C   UNL     1       5.380   6.682  17.208  0.00  0.00    +0.000 C 
ATOM     30  C   UNL     1       5.183   6.188  15.762  0.00  0.00    +0.000 C 
ATOM     31  C   UNL     1       5.479   4.700  15.610  0.00  0.00    +0.000 C 
ATOM     32  C   UNL     1       4.768   3.867  16.672  0.00  0.00    +0.000 C 
ATOM     33  C   UNL     1       4.993   4.431  18.084  0.00  0.00    +0.000 C 
ATOM     34  C   UNL     1       4.410   3.471  19.129  0.00  0.00    +0.000 C 
ATOM     35  N   UNL     1       4.609   5.865  18.190  0.00  0.00    +0.000 NA
ENDBRANCH  27  35
ENDBRANCH  26  27
ENDBRANCH  25  26
ENDBRANCH  24  25
ENDBRANCH  23  24
ENDBRANCH   1  23
TORSDOF 9
ENDMDL
MODEL 3
REMARK VINA RESULT:      -8.2      5.560      9.468
REMARK  Name = 
REMARK  11 active torsions:
REMARK  status: ('A' for Active; 'I' for Inactive)
REMARK    1  A    between atoms: C_1  and  C_2
REMARK    2  A    between atoms: C_6  and  C_7
REMARK    3  A    between atoms: N_8  and  C_9
REMARK    4  A    between atoms: C_9  and  C_10
REMARK    5  A    between atoms: C_10  and  C_11
REMARK    6  A    between atoms: C_11  and  C_12
REMARK    7  A    between atoms: C_12  and  C_13
REMARK    8  A    between atoms: C_13  and  N_14
REMARK    9  A    between atoms: C_17  and  C_18
REMARK   10  A    between atoms: C_21  and  C_22
REMARK   11  A    between atoms: C_22  and  S_24
REMARK                            x       y       z     vdW  Elec       q    Type
REMARK                         _______ _______ _______ _____ _____    ______ ____
ROOT
ATOM      1  N   UNL     1       0.780  11.326  19.452  0.00  0.00    +0.000 N 
ATOM      2  C   UNL     1       0.196  12.564  19.171  0.00  0.00    +0.000 C 
ATOM      3  O   UNL     1       0.471  13.235  18.175  0.00  0.00    +0.000 OA
ATOM      4  C   UNL     1      -0.920  12.995  20.129  0.00  0.00    +0.000 C 
ATOM      5  O   UNL     1      -0.709  12.632  21.494  0.00  0.00    +0.000 OA
ATOM      6  C   UNL     1      -0.233  11.357  21.661  0.00  0.00    +0.000 A 
ATOM      7  C   UNL     1      -0.492  10.781  22.909  0.00  0.00    +0.000 A 
ATOM      8  C   UNL     1      -0.053   9.492  23.186  0.00  0.00    +0.000 A 
ATOM      9  C   UNL     1       0.661   8.788  22.223  0.00  0.00    +0.000 A 
ATOM     10  C   UNL     1       0.940   9.375  20.982  0.00  0.00    +0.000 A 
ATOM     11  C   UNL     1       0.500  10.672  20.682  0.00  0.00    +0.000 A 
ENDROOT
BRANCH   4  12
ATOM     12  C   UNL     1      -2.300  12.560  19.625  0.00  0.00    +0.000 A 
ATOM     13  C   UNL     1      -3.465  12.966  20.284  0.00  0.00    +0.000 A 
ATOM     14  C   UNL     1      -4.726  12.533  19.852  0.00  0.00    +0.000 A 
ATOM     15  C   UNL     1      -4.849  11.710  18.724  0.00  0.00    +0.000 A 
ATOM     16  C   UNL     1      -3.693  11.348  18.029  0.00  0.00    +0.000 A 
ATOM     17  C   UNL     1      -2.436  11.768  18.473  0.00  0.00    +0.000 A 
BRANCH  15  18
ATOM     18  C   UNL     1      -6.199  11.283  18.282  0.00  0.00    +0.000 C 
ATOM     19  N   UNL     1      -6.860  11.872  17.338  0.00  0.00    +0.000 NA
ATOM     20  H   UNL     1      -6.318  12.625  16.909  0.00  0.00    +0.000 HD
BRANCH  18  21
ATOM     21  S   UNL     1      -7.011   9.937  19.064  0.00  0.00    +0.000 S 
ATOM     22  H   UNL     1      -6.659   8.954  18.229  0.00  0.00    +0.000 HD
ENDBRANCH  18  21
ENDBRANCH  15  18
ENDBRANCH   4  12
BRANCH   1  23
ATOM     23  C   UNL     1       1.759  10.822  18.498  0.00  0.00    +0.000 C 
BRANCH  23  24
ATOM     24  C   UNL     1       1.327   9.465  17.950  0.00  0.00    +0.000 C 
BRANCH  24  25
ATOM     25  C   UNL     1       2.519   8.561  17.694  0.00  0.00    +0.000 C 
BRANCH  25  26
ATOM     26  C   UNL     1       2.245   7.195  18.316  0.00  0.00    +0.000 C 
BRANCH  26  27
ATOM     27  C   UNL     1       3.330   6.165  18.023  0.00  0.00    +0.000 C 
BRANCH  27  35
ATOM     28  C   UNL     1       1.117   3.113  18.371  0.00  0.00    +0.000 C 
ATOM     29  C   UNL     1       1.958   4.330  18.791  0.00  0.00    +0.000 C 
ATOM     30  C   UNL     1       2.690   4.067  20.120  0.00  0.00    +0.000 C 
ATOM     31  C   UNL     1       3.868   3.112  19.957  0.00  0.00    +0.000 C 
ATOM     32  C   UNL     1       4.772   3.517  18.798  0.00  0.00    +0.000 C 
ATOM     33  C   UNL     1       3.970   3.783  17.513  0.00  0.00    +0.000 C 
ATOM     34  C   UNL     1       4.928   4.015  16.338  0.00  0.00    +0.000 C 
ATOM     35  N   UNL     1       2.889   4.784  17.716  0.00  0.00    +0.000 NA
ENDBRANCH  27  35
ENDBRANCH  26  27
ENDBRANCH  25  26
ENDBRANCH  24  25
ENDBRANCH  23  24
ENDBRANCH   1  23
TORSDOF 9
ENDMDL
MODEL 4
REMARK VINA RESULT:      -8.1      4.609      8.703
REMARK  Name = 
REMARK  11 active torsions:
REMARK  status: ('A' for Active; 'I' for Inactive)
REMARK    1  A    between atoms: C_1  and  C_2
REMARK    2  A    between atoms: C_6  and  C_7
REMARK    3  A    between atoms: N_8  and  C_9
REMARK    4  A    between atoms: C_9  and  C_10
REMARK    5  A    between atoms: C_10  and  C_11
REMARK    6  A    between atoms: C_11  and  C_12
REMARK    7  A    between atoms: C_12  and  C_13
REMARK    8  A    between atoms: C_13  and  N_14
REMARK    9  A    between atoms: C_17  and  C_18
REMARK   10  A    between atoms: C_21  and  C_22
REMARK   11  A    between atoms: C_22  and  S_24
REMARK                            x       y       z     vdW  Elec       q    Type
REMARK                         _______ _______ _______ _____ _____    ______ ____
ROOT
ATOM      1  N   UNL     1       0.031  10.448  19.599  0.00  0.00    +0.000 N 
ATOM      2  C   UNL     1       0.216  11.326  20.670  0.00  0.00    +0.000 C 
ATOM      3  O   UNL     1       1.096  11.186  21.520  0.00  0.00    +0.000 OA
ATOM      4  C   UNL     1      -0.681  12.570  20.661  0.00  0.00    +0.000 C 
ATOM      5  O   UNL     1      -2.007  12.347  20.180  0.00  0.00    +0.000 OA
ATOM      6  C   UNL     1      -2.065  11.556  19.062  0.00  0.00    +0.000 A 
ATOM      7  C   UNL     1      -3.206  11.721  18.272  0.00  0.00    +0.000 A 
ATOM      8  C   UNL     1      -3.369  10.968  17.114  0.00  0.00    +0.000 A 
ATOM      9  C   UNL     1      -2.398  10.038  16.760  0.00  0.00    +0.000 A 
ATOM     10  C   UNL     1      -1.266   9.857  17.564  0.00  0.00    +0.000 A 
ATOM     11  C   UNL     1      -1.083  10.612  18.732  0.00  0.00    +0.000 A 
ENDROOT
BRANCH   4  12
ATOM     12  C   UNL     1      -0.005  13.751  19.957  0.00  0.00    +0.000 A 
ATOM     13  C   UNL     1      -0.623  15.005  19.908  0.00  0.00    +0.000 A 
ATOM     14  C   UNL     1      -0.028  16.076  19.227  0.00  0.00    +0.000 A 
ATOM     15  C   UNL     1       1.220  15.922  18.608  0.00  0.00    +0.000 A 
ATOM     16  C   UNL     1       1.868  14.688  18.703  0.00  0.00    +0.000 A 
ATOM     17  C   UNL     1       1.264  13.618  19.369  0.00  0.00    +0.000 A 
BRANCH  15  18
ATOM     18  C   UNL     1       1.831  17.079  17.911  0.00  0.00    +0.000 C 
ATOM     19  N   UNL     1       3.109  17.257  17.805  0.00  0.00    +0.000 NA
ATOM     20  H   UNL     1       3.634  16.482  18.216  0.00  0.00    +0.000 HD
BRANCH  18  21
ATOM     21  S   UNL     1       0.822  18.326  17.197  0.00  0.00    +0.000 S 
ATOM     22  H   UNL     1       1.773  19.163  16.773  0.00  0.00    +0.000 HD
ENDBRANCH  18  21
ENDBRANCH  15  18
ENDBRANCH   4  12
BRANCH   1  23
ATOM     23  C   UNL     1       0.945   9.317  19.502  0.00  0.00    +0.000 C 
BRANCH  23  24
ATOM     24  C   UNL     1       1.968   9.546  18.395  0.00  0.00    +0.000 C 
BRANCH  24  25
ATOM     25  C   UNL     1       2.156   8.305  17.541  0.00  0.00    +0.000 C 
BRANCH  25  26
ATOM     26  C   UNL     1       3.006   7.300  18.312  0.00  0.00    +0.000 C 
BRANCH  26  27
ATOM     27  C   UNL     1       4.158   6.726  17.496  0.00  0.00    +0.000 C 
BRANCH  27  35
ATOM     28  C   UNL     1       7.516   5.654  18.877  0.00  0.00    +0.000 C 
ATOM     29  C   UNL     1       6.492   6.239  17.891  0.00  0.00    +0.000 C 
ATOM     30  C   UNL     1       6.889   5.936  16.434  0.00  0.00    +0.000 C 
ATOM     31  C   UNL     1       6.653   4.477  16.058  0.00  0.00    +0.000 C 
ATOM     32  C   UNL     1       5.256   4.006  16.451  0.00  0.00    +0.000 C 
ATOM     33  C   UNL     1       4.924   4.362  17.909  0.00  0.00    +0.000 C 
ATOM     34  C   UNL     1       3.590   3.721  18.312  0.00  0.00    +0.000 C 
ATOM     35  N   UNL     1       5.094   5.812  18.193  0.00  0.00    +0.000 NA
ENDBRANCH  27  35
ENDBRANCH  26  27
ENDBRANCH  25  26
ENDBRANCH  24  25
ENDBRANCH  23  24
ENDBRANCH   1  23
TORSDOF 9
ENDMDL
MODEL 5
REMARK VINA RESULT:      -8.1      5.493      9.477
REMARK  Name = 
REMARK  11 active torsions:
REMARK  status: ('A' for Active; 'I' for Inactive)
REMARK    1  A    between atoms: C_1  and  C_2
REMARK    2  A    between atoms: C_6  and  C_7
REMARK    3  A    between atoms: N_8  and  C_9
REMARK    4  A    between atoms: C_9  and  C_10
REMARK    5  A    between atoms: C_10  and  C_11
REMARK    6  A    between atoms: C_11  and  C_12
REMARK    7  A    between atoms: C_12  and  C_13
REMARK    8  A    between atoms: C_13  and  N_14
REMARK    9  A    between atoms: C_17  and  C_18
REMARK   10  A    between atoms: C_21  and  C_22
REMARK   11  A    between atoms: C_22  and  S_24
REMARK                            x       y       z     vdW  Elec       q    Type
REMARK                         _______ _______ _______ _____ _____    ______ ____
ROOT
ATOM      1  N   UNL     1       0.144  10.460  19.563  0.00  0.00    +0.000 N 
ATOM      2  C   UNL     1       0.368  11.319  20.642  0.00  0.00    +0.000 C 
ATOM      3  O   UNL     1       1.274  11.161  21.461  0.00  0.00    +0.000 OA
ATOM      4  C   UNL     1      -0.523  12.566  20.683  0.00  0.00    +0.000 C 
ATOM      5  O   UNL     1      -1.865  12.357  20.241  0.00  0.00    +0.000 OA
ATOM      6  C   UNL     1      -1.962  11.586  19.112  0.00  0.00    +0.000 A 
ATOM      7  C   UNL     1      -3.128  11.770  18.362  0.00  0.00    +0.000 A 
ATOM      8  C   UNL     1      -3.331  11.037  17.198  0.00  0.00    +0.000 A 
ATOM      9  C   UNL     1      -2.377  10.108  16.797  0.00  0.00    +0.000 A 
ATOM     10  C   UNL     1      -1.221   9.909  17.562  0.00  0.00    +0.000 A 
ATOM     11  C   UNL     1      -0.996  10.644  18.735  0.00  0.00    +0.000 A 
ENDROOT
BRANCH   4  12
ATOM     12  C   UNL     1       0.136  13.756  19.977  0.00  0.00    +0.000 A 
ATOM     13  C   UNL     1      -0.494  15.005  19.939  0.00  0.00    +0.000 A 
ATOM     14  C   UNL     1       0.085  16.084  19.257  0.00  0.00    +0.000 A 
ATOM     15  C   UNL     1       1.329  15.943  18.626  0.00  0.00    +0.000 A 
ATOM     16  C   UNL     1       1.988  14.714  18.710  0.00  0.00    +0.000 A 
ATOM     17  C   UNL     1       1.400  13.637  19.377  0.00  0.00    +0.000 A 
BRANCH  15  18
ATOM     18  C   UNL     1       1.923  17.109  17.927  0.00  0.00    +0.000 C 
ATOM     19  N   UNL     1       3.195  17.344  17.885  0.00  0.00    +0.000 NA
ATOM     20  H   UNL     1       3.733  16.606  18.346  0.00  0.00    +0.000 HD
BRANCH  18  21
ATOM     21  S   UNL     1       0.898  18.285  17.124  0.00  0.00    +0.000 S 
ATOM     22  H   UNL     1       1.026  19.307  17.977  0.00  0.00    +0.000 HD
ENDBRANCH  18  21
ENDBRANCH  15  18
ENDBRANCH   4  12
BRANCH   1  23
ATOM     23  C   UNL     1       1.049   9.327  19.418  0.00  0.00    +0.000 C 
BRANCH  23  24
ATOM     24  C   UNL     1       1.897   9.474  18.159  0.00  0.00    +0.000 C 
BRANCH  24  25
ATOM     25  C   UNL     1       2.809   8.277  17.956  0.00  0.00    +0.000 C 
BRANCH  25  26
ATOM     26  C   UNL     1       1.960   7.011  17.916  0.00  0.00    +0.000 C 
BRANCH  26  27
ATOM     27  C   UNL     1       2.516   5.879  18.772  0.00  0.00    +0.000 C 
BRANCH  27  35
ATOM     28  C   UNL     1       0.760   2.525  18.816  0.00  0.00    +0.000 C 
ATOM     29  C   UNL     1       1.443   3.793  19.354  0.00  0.00    +0.000 C 
ATOM     30  C   UNL     1       2.260   3.488  20.623  0.00  0.00    +0.000 C 
ATOM     31  C   UNL     1       3.550   2.734  20.317  0.00  0.00    +0.000 C 
ATOM     32  C   UNL     1       4.340   3.390  19.190  0.00  0.00    +0.000 C 
ATOM     33  C   UNL     1       3.455   3.684  17.968  0.00  0.00    +0.000 C 
ATOM     34  C   UNL     1       4.322   4.180  16.804  0.00  0.00    +0.000 C 
ATOM     35  N   UNL     1       2.256   4.493  18.316  0.00  0.00    +0.000 NA
ENDBRANCH  27  35
ENDBRANCH  26  27
ENDBRANCH  25  26
ENDBRANCH  24  25
ENDBRANCH  23  24
ENDBRANCH   1  23
TORSDOF 9
ENDMDL
MODEL 6
REMARK VINA RESULT:      -8.1      0.610      1.665
REMARK  Name = 
REMARK  11 active torsions:
REMARK  status: ('A' for Active; 'I' for Inactive)
REMARK    1  A    between atoms: C_1  and  C_2
REMARK    2  A    between atoms: C_6  and  C_7
REMARK    3  A    between atoms: N_8  and  C_9
REMARK    4  A    between atoms: C_9  and  C_10
REMARK    5  A    between atoms: C_10  and  C_11
REMARK    6  A    between atoms: C_11  and  C_12
REMARK    7  A    between atoms: C_12  and  C_13
REMARK    8  A    between atoms: C_13  and  N_14
REMARK    9  A    between atoms: C_17  and  C_18
REMARK   10  A    between atoms: C_21  and  C_22
REMARK   11  A    between atoms: C_22  and  S_24
REMARK                            x       y       z     vdW  Elec       q    Type
REMARK                         _______ _______ _______ _____ _____    ______ ____
ROOT
ATOM      1  N   UNL     1       6.797   4.947  17.982  0.00  0.00    +0.000 N 
ATOM      2  C   UNL     1       5.877   4.724  19.011  0.00  0.00    +0.000 C 
ATOM      3  O   UNL     1       6.170   4.771  20.206  0.00  0.00    +0.000 OA
ATOM      4  C   UNL     1       4.424   4.534  18.561  0.00  0.00    +0.000 C 
ATOM      5  O   UNL     1       4.266   3.819  17.335  0.00  0.00    +0.000 OA
ATOM      6  C   UNL     1       5.154   4.191  16.359  0.00  0.00    +0.000 A 
ATOM      7  C   UNL     1       4.742   3.932  15.048  0.00  0.00    +0.000 A 
ATOM      8  C   UNL     1       5.566   4.268  13.980  0.00  0.00    +0.000 A 
ATOM      9  C   UNL     1       6.807   4.844  14.225  0.00  0.00    +0.000 A 
ATOM     10  C   UNL     1       7.227   5.081  15.540  0.00  0.00    +0.000 A 
ATOM     11  C   UNL     1       6.407   4.755  16.629  0.00  0.00    +0.000 A 
ENDROOT
BRANCH   4  12
ATOM     12  C   UNL     1       3.654   5.859  18.557  0.00  0.00    +0.000 A 
ATOM     13  C   UNL     1       2.767   6.176  19.592  0.00  0.00    +0.000 A 
ATOM     14  C   UNL     1       2.028   7.366  19.569  0.00  0.00    +0.000 A 
ATOM     15  C   UNL     1       2.190   8.285  18.522  0.00  0.00    +0.000 A 
ATOM     16  C   UNL     1       3.116   8.000  17.517  0.00  0.00    +0.000 A 
ATOM     17  C   UNL     1       3.838   6.804  17.535  0.00  0.00    +0.000 A 
BRANCH  15  18
ATOM     18  C   UNL     1       1.406   9.544  18.537  0.00  0.00    +0.000 C 
ATOM     19  N   UNL     1       1.516  10.465  17.634  0.00  0.00    +0.000 NA
ATOM     20  H   UNL     1       2.168  10.193  16.893  0.00  0.00    +0.000 HD
BRANCH  18  21
ATOM     21  S   UNL     1       0.275   9.877  19.837  0.00  0.00    +0.000 S 
ATOM     22  H   UNL     1      -0.635  10.586  19.162  0.00  0.00    +0.000 HD
ENDBRANCH  18  21
ENDBRANCH  15  18
ENDBRANCH   4  12
BRANCH   1  23
ATOM     23  C   UNL     1       8.167   5.254  18.372  0.00  0.00    +0.000 C 
BRANCH  23  24
ATOM     24  C   UNL     1       8.271   6.685  18.888  0.00  0.00    +0.000 C 
BRANCH  24  25
ATOM     25  C   UNL     1       7.529   7.659  17.990  0.00  0.00    +0.000 C 
BRANCH  25  26
ATOM     26  C   UNL     1       8.499   8.742  17.528  0.00  0.00    +0.000 C 
BRANCH  26  27
ATOM     27  C   UNL     1       8.517   9.968  18.434  0.00  0.00    +0.000 C 
BRANCH  27  35
ATOM     28  C   UNL     1      11.829  11.801  18.388  0.00  0.00    +0.000 C 
ATOM     29  C   UNL     1      10.641  11.001  18.947  0.00  0.00    +0.000 C 
ATOM     30  C   UNL     1      10.324  11.416  20.396  0.00  0.00    +0.000 C 
ATOM     31  C   UNL     1       9.647  12.780  20.475  0.00  0.00    +0.000 C 
ATOM     32  C   UNL     1       8.473  12.890  19.508  0.00  0.00    +0.000 C 
ATOM     33  C   UNL     1       8.858  12.440  18.090  0.00  0.00    +0.000 C 
ATOM     34  C   UNL     1       7.707  12.730  17.119  0.00  0.00    +0.000 C 
ATOM     35  N   UNL     1       9.438  11.070  18.067  0.00  0.00    +0.000 NA
ENDBRANCH  27  35
ENDBRANCH  26  27
ENDBRANCH  25  26
ENDBRANCH  24  25
ENDBRANCH  23  24
ENDBRANCH   1  23
TORSDOF 9
ENDMDL
MODEL 7
REMARK VINA RESULT:      -8.0      5.678      9.548
REMARK  Name = 
REMARK  11 active torsions:
REMARK  status: ('A' for Active; 'I' for Inactive)
REMARK    1  A    between atoms: C_1  and  C_2
REMARK    2  A    between atoms: C_6  and  C_7
REMARK    3  A    between atoms: N_8  and  C_9
REMARK    4  A    between atoms: C_9  and  C_10
REMARK    5  A    between atoms: C_10  and  C_11
REMARK    6  A    between atoms: C_11  and  C_12
REMARK    7  A    between atoms: C_12  and  C_13
REMARK    8  A    between atoms: C_13  and  N_14
REMARK    9  A    between atoms: C_17  and  C_18
REMARK   10  A    between atoms: C_21  and  C_22
REMARK   11  A    between atoms: C_22  and  S_24
REMARK                            x       y       z     vdW  Elec       q    Type
REMARK                         _______ _______ _______ _____ _____    ______ ____
ROOT
ATOM      1  N   UNL     1       0.568  11.397  19.561  0.00  0.00    +0.000 N 
ATOM      2  C   UNL     1       0.018  12.666  19.363  0.00  0.00    +0.000 C 
ATOM      3  O   UNL     1       0.283  13.379  18.394  0.00  0.00    +0.000 OA
ATOM      4  C   UNL     1      -1.052  13.082  20.379  0.00  0.00    +0.000 C 
ATOM      5  O   UNL     1      -0.810  12.642  21.716  0.00  0.00    +0.000 OA
ATOM      6  C   UNL     1      -0.372  11.345  21.801  0.00  0.00    +0.000 A 
ATOM      7  C   UNL     1      -0.611  10.714  23.025  0.00  0.00    +0.000 A 
ATOM      8  C   UNL     1      -0.207   9.398  23.222  0.00  0.00    +0.000 A 
ATOM      9  C   UNL     1       0.452   8.723  22.200  0.00  0.00    +0.000 A 
ATOM     10  C   UNL     1       0.711   9.365  20.983  0.00  0.00    +0.000 A 
ATOM     11  C   UNL     1       0.305  10.689  20.765  0.00  0.00    +0.000 A 
ENDROOT
BRANCH   4  12
ATOM     12  C   UNL     1      -2.461  12.718  19.900  0.00  0.00    +0.000 A 
ATOM     13  C   UNL     1      -2.648  11.884  18.792  0.00  0.00    +0.000 A 
ATOM     14  C   UNL     1      -3.934  11.584  18.324  0.00  0.00    +0.000 A 
ATOM     15  C   UNL     1      -5.066  12.089  18.979  0.00  0.00    +0.000 A 
ATOM     16  C   UNL     1      -4.886  12.876  20.119  0.00  0.00    +0.000 A 
ATOM     17  C   UNL     1      -3.602  13.185  20.573  0.00  0.00    +0.000 A 
BRANCH  15  18
ATOM     18  C   UNL     1      -6.415  11.739  18.468  0.00  0.00    +0.000 C 
ATOM     19  N   UNL     1      -6.896  10.538  18.488  0.00  0.00    +0.000 NA
ATOM     20  H   UNL     1      -6.257   9.881  18.940  0.00  0.00    +0.000 HD
BRANCH  18  21
ATOM     21  S   UNL     1      -7.446  12.969  17.758  0.00  0.00    +0.000 S 
ATOM     22  H   UNL     1      -6.522  13.684  17.110  0.00  0.00    +0.000 HD
ENDBRANCH  18  21
ENDBRANCH  15  18
ENDBRANCH   4  12
BRANCH   1  23
ATOM     23  C   UNL     1       1.499  10.913  18.549  0.00  0.00    +0.000 C 
BRANCH  23  24
ATOM     24  C   UNL     1       1.092   9.524  18.066  0.00  0.00    +0.000 C 
BRANCH  24  25
ATOM     25  C   UNL     1       2.303   8.677  17.717  0.00  0.00    +0.000 C 
BRANCH  25  26
ATOM     26  C   UNL     1       2.102   7.273  18.280  0.00  0.00    +0.000 C 
BRANCH  26  27
ATOM     27  C   UNL     1       3.258   6.326  17.977  0.00  0.00    +0.000 C 
BRANCH  27  35
ATOM     28  C   UNL     1       1.312   3.101  18.353  0.00  0.00    +0.000 C 
ATOM     29  C   UNL     1       2.069   4.375  18.763  0.00  0.00    +0.000 C 
ATOM     30  C   UNL     1       2.872   4.151  20.057  0.00  0.00    +0.000 C 
ATOM     31  C   UNL     1       4.115   3.297  19.830  0.00  0.00    +0.000 C 
ATOM     32  C   UNL     1       4.937   3.791  18.644  0.00  0.00    +0.000 C 
ATOM     33  C   UNL     1       4.065   4.012  17.397  0.00  0.00    +0.000 C 
ATOM     34  C   UNL     1       4.954   4.339  16.190  0.00  0.00    +0.000 C 
ATOM     35  N   UNL     1       2.916   4.919  17.661  0.00  0.00    +0.000 NA
ENDBRANCH  27  35
ENDBRANCH  26  27
ENDBRANCH  25  26
ENDBRANCH  24  25
ENDBRANCH  23  24
ENDBRANCH   1  23
TORSDOF 9
ENDMDL
MODEL 8
REMARK VINA RESULT:      -8.0      5.268      9.464
REMARK  Name = 
REMARK  11 active torsions:
REMARK  status: ('A' for Active; 'I' for Inactive)
REMARK    1  A    between atoms: C_1  and  C_2
REMARK    2  A    between atoms: C_6  and  C_7
REMARK    3  A    between atoms: N_8  and  C_9
REMARK    4  A    between atoms: C_9  and  C_10
REMARK    5  A    between atoms: C_10  and  C_11
REMARK    6  A    between atoms: C_11  and  C_12
REMARK    7  A    between atoms: C_12  and  C_13
REMARK    8  A    between atoms: C_13  and  N_14
REMARK    9  A    between atoms: C_17  and  C_18
REMARK   10  A    between atoms: C_21  and  C_22
REMARK   11  A    between atoms: C_22  and  S_24
REMARK                            x       y       z     vdW  Elec       q    Type
REMARK                         _______ _______ _______ _____ _____    ______ ____
ROOT
ATOM      1  N   UNL     1      -0.553  10.846  19.635  0.00  0.00    +0.000 N 
ATOM      2  C   UNL     1      -0.573  11.712  20.732  0.00  0.00    +0.000 C 
ATOM      3  O   UNL     1       0.253  11.674  21.645  0.00  0.00    +0.000 OA
ATOM      4  C   UNL     1      -1.634  12.818  20.675  0.00  0.00    +0.000 C 
ATOM      5  O   UNL     1      -2.876  12.424  20.090  0.00  0.00    +0.000 OA
ATOM      6  C   UNL     1      -2.739  11.664  18.958  0.00  0.00    +0.000 A 
ATOM      7  C   UNL     1      -3.831  11.689  18.086  0.00  0.00    +0.000 A 
ATOM      8  C   UNL     1      -3.800  10.953  16.907  0.00  0.00    +0.000 A 
ATOM      9  C   UNL     1      -2.684  10.178  16.612  0.00  0.00    +0.000 A 
ATOM     10  C   UNL     1      -1.600  10.136  17.498  0.00  0.00    +0.000 A 
ATOM     11  C   UNL     1      -1.612  10.877  18.688  0.00  0.00    +0.000 A 
ENDROOT
BRANCH   4  12
ATOM     12  C   UNL     1      -1.082  14.101  20.045  0.00  0.00    +0.000 A 
ATOM     13  C   UNL     1      -0.024  14.052  19.131  0.00  0.00    +0.000 A 
ATOM     14  C   UNL     1       0.512  15.227  18.587  0.00  0.00    +0.000 A 
ATOM     15  C   UNL     1      -0.025  16.478  18.921  0.00  0.00    +0.000 A 
ATOM     16  C   UNL     1      -1.118  16.527  19.789  0.00  0.00    +0.000 A 
ATOM     17  C   UNL     1      -1.640  15.355  20.343  0.00  0.00    +0.000 A 
BRANCH  15  18
ATOM     18  C   UNL     1       0.554  17.701  18.314  0.00  0.00    +0.000 C 
ATOM     19  N   UNL     1       1.596  18.307  18.786  0.00  0.00    +0.000 NA
ATOM     20  H   UNL     1       1.991  17.813  19.589  0.00  0.00    +0.000 HD
BRANCH  18  21
ATOM     21  S   UNL     1      -0.186  18.432  16.900  0.00  0.00    +0.000 S 
ATOM     22  H   UNL     1      -0.245  17.360  16.104  0.00  0.00    +0.000 HD
ENDBRANCH  18  21
ENDBRANCH  15  18
ENDBRANCH   4  12
BRANCH   1  23
ATOM     23  C   UNL     1       0.517   9.858  19.590  0.00  0.00    +0.000 C 
BRANCH  23  24
ATOM     24  C   UNL     1       1.546  10.228  18.527  0.00  0.00    +0.000 C 
BRANCH  24  25
ATOM     25  C   UNL     1       2.050   9.002  17.787  0.00  0.00    +0.000 C 
BRANCH  25  26
ATOM     26  C   UNL     1       2.279   7.877  18.792  0.00  0.00    +0.000 C 
BRANCH  26  27
ATOM     27  C   UNL     1       2.450   6.508  18.144  0.00  0.00    +0.000 C 
BRANCH  27  35
ATOM     28  C   UNL     1       5.818   5.139  19.200  0.00  0.00    +0.000 C 
ATOM     29  C   UNL     1       4.742   5.757  18.292  0.00  0.00    +0.000 C 
ATOM     30  C   UNL     1       4.894   5.268  16.839  0.00  0.00    +0.000 C 
ATOM     31  C   UNL     1       4.436   3.824  16.662  0.00  0.00    +0.000 C 
ATOM     32  C   UNL     1       3.063   3.581  17.278  0.00  0.00    +0.000 C 
ATOM     33  C   UNL     1       2.982   4.114  18.718  0.00  0.00    +0.000 C 
ATOM     34  C   UNL     1       1.650   3.696  19.355  0.00  0.00    +0.000 C 
ATOM     35  N   UNL     1       3.360   5.550  18.814  0.00  0.00    +0.000 NA
ENDBRANCH  27  35
ENDBRANCH  26  27
ENDBRANCH  25  26
ENDBRANCH  24  25
ENDBRANCH  23  24
ENDBRANCH   1  23
TORSDOF 9
ENDMDL
MODEL 9
REMARK VINA RESULT:      -8.0      4.675      8.752
REMARK  Name = 
REMARK  11 active torsions:
REMARK  status: ('A' for Active; 'I' for Inactive)
REMARK    1  A    between atoms: C_1  and  C_2
REMARK    2  A    between atoms: C_6  and  C_7
REMARK    3  A    between atoms: N_8  and  C_9
REMARK    4  A    between atoms: C_9  and  C_10
REMARK    5  A    between atoms: C_10  and  C_11
REMARK    6  A    between atoms: C_11  and  C_12
REMARK    7  A    between atoms: C_12  and  C_13
REMARK    8  A    between atoms: C_13  and  N_14
REMARK    9  A    between atoms: C_17  and  C_18
REMARK   10  A    between atoms: C_21  and  C_22
REMARK   11  A    between atoms: C_22  and  S_24
REMARK                            x       y       z     vdW  Elec       q    Type
REMARK                         _______ _______ _______ _____ _____    ______ ____
ROOT
ATOM      1  N   UNL     1       0.332  10.595  19.542  0.00  0.00    +0.000 N 
ATOM      2  C   UNL     1       0.478  11.491  20.604  0.00  0.00    +0.000 C 
ATOM      3  O   UNL     1       1.426  11.466  21.390  0.00  0.00    +0.000 OA
ATOM      4  C   UNL     1      -0.567  12.611  20.665  0.00  0.00    +0.000 C 
ATOM      5  O   UNL     1      -1.885  12.221  20.276  0.00  0.00    +0.000 OA
ATOM      6  C   UNL     1      -1.920  11.427  19.159  0.00  0.00    +0.000 A 
ATOM      7  C   UNL     1      -3.125  11.445  18.451  0.00  0.00    +0.000 A 
ATOM      8  C   UNL     1      -3.271  10.675  17.302  0.00  0.00    +0.000 A 
ATOM      9  C   UNL     1      -2.217   9.874  16.875  0.00  0.00    +0.000 A 
ATOM     10  C   UNL     1      -1.019   9.840  17.598  0.00  0.00    +0.000 A 
ATOM     11  C   UNL     1      -0.851  10.615  18.755  0.00  0.00    +0.000 A 
ENDROOT
BRANCH   4  12
ATOM     12  C   UNL     1      -0.097  13.867  19.925  0.00  0.00    +0.000 A 
ATOM     13  C   UNL     1       1.161  13.909  19.312  0.00  0.00    +0.000 A 
ATOM     14  C   UNL     1       1.612  15.071  18.672  0.00  0.00    +0.000 A 
ATOM     15  C   UNL     1       0.796  16.208  18.601  0.00  0.00    +0.000 A 
ATOM     16  C   UNL     1      -0.482  16.153  19.162  0.00  0.00    +0.000 A 
ATOM     17  C   UNL     1      -0.922  14.998  19.813  0.00  0.00    +0.000 A 
BRANCH  15  18
ATOM     18  C   UNL     1       1.297  17.417  17.901  0.00  0.00    +0.000 C 
ATOM     19  N   UNL     1       2.554  17.665  17.716  0.00  0.00    +0.000 NA
ATOM     20  H   UNL     1       3.145  16.907  18.064  0.00  0.00    +0.000 HD
BRANCH  18  21
ATOM     21  S   UNL     1       0.178  18.627  17.299  0.00  0.00    +0.000 S 
ATOM     22  H   UNL     1      -0.958  18.158  17.825  0.00  0.00    +0.000 HD
ENDBRANCH  18  21
ENDBRANCH  15  18
ENDBRANCH   4  12
BRANCH   1  23
ATOM     23  C   UNL     1       1.372   9.589  19.375  0.00  0.00    +0.000 C 
BRANCH  23  24
ATOM     24  C   UNL     1       1.194   8.459  20.383  0.00  0.00    +0.000 C 
BRANCH  24  25
ATOM     25  C   UNL     1       2.019   7.240  20.009  0.00  0.00    +0.000 C 
BRANCH  25  26
ATOM     26  C   UNL     1       2.654   7.475  18.642  0.00  0.00    +0.000 C 
BRANCH  26  27
ATOM     27  C   UNL     1       3.205   6.206  18.002  0.00  0.00    +0.000 C 
BRANCH  27  35
ATOM     28  C   UNL     1       6.894   6.865  17.467  0.00  0.00    +0.000 C 
ATOM     29  C   UNL     1       5.400   6.722  17.133  0.00  0.00    +0.000 C 
ATOM     30  C   UNL     1       5.199   6.158  15.715  0.00  0.00    +0.000 C 
ATOM     31  C   UNL     1       5.521   4.669  15.631  0.00  0.00    +0.000 C 
ATOM     32  C   UNL     1       4.836   3.875  16.738  0.00  0.00    +0.000 C 
ATOM     33  C   UNL     1       5.064   4.510  18.119  0.00  0.00    +0.000 C 
ATOM     34  C   UNL     1       4.510   3.589  19.214  0.00  0.00    +0.000 C 
ATOM     35  N   UNL     1       4.654   5.939  18.162  0.00  0.00    +0.000 NA
ENDBRANCH  27  35
ENDBRANCH  26  27
ENDBRANCH  25  26
ENDBRANCH  24  25
ENDBRANCH  23  24
ENDBRANCH   1  23
TORSDOF 9
ENDMDL
