MODEL 1
REMARK VINA RESULT:      -8.6      0.000      0.000
REMARK  Name = 
REMARK  8 active torsions:
REMARK  status: ('A' for Active; 'I' for Inactive)
REMARK    1  A    between atoms: S_2  and  N_4
REMARK    2  A    between atoms: S_2  and  C_26
REMARK    3  A    between atoms: N_4  and  C_5
REMARK    4  A    between atoms: N_8  and  C_9
REMARK    5  A    between atoms: C_9  and  C_10
REMARK    6  A    between atoms: C_10  and  O_11
REMARK    7  A    between atoms: O_11  and  C_12
REMARK    8  A    between atoms: C_17  and  C_18
REMARK                            x       y       z     vdW  Elec       q    Type
REMARK                         _______ _______ _______ _____ _____    ______ ____
ROOT
ATOM      1  C   UNL     1      -1.368  12.678  19.917  0.00  0.00    +0.000 C 
ATOM      2  C   UNL     1      -1.357  11.780  18.684  0.00  0.00    +0.000 C 
ATOM      3  C   UNL     1      -0.645  10.449  18.915  0.00  0.00    +0.000 C 
ATOM      4  N   UNL     1       0.752  10.615  19.340  0.00  0.00    +0.000 NA
ATOM      5  C   UNL     1       0.858  11.509  20.508  0.00  0.00    +0.000 C 
ATOM      6  C   UNL     1       0.104  12.847  20.350  0.00  0.00    +0.000 C 
ENDROOT
BRANCH   1   7
ATOM      7  N   UNL     1      -2.181  12.194  21.075  0.00  0.00    +0.000 NA
ATOM      8  H   UNL     1      -2.447  11.209  21.054  0.00  0.00    +0.000 HD
BRANCH   7  10
ATOM      9  O   UNL     1      -3.899  12.252  22.939  0.00  0.00    +0.000 OA
ATOM     10  S   UNL     1      -3.410  13.074  21.854  0.00  0.00    +0.000 S 
ATOM     11  O   UNL     1      -2.835  14.366  22.131  0.00  0.00    +0.000 OA
BRANCH  10  12
ATOM     12  C   UNL     1      -4.792  13.388  20.703  0.00  0.00    +0.000 A 
ATOM     13  C   UNL     1      -5.650  14.295  21.283  0.00  0.00    +0.000 A 
ATOM     14  N   UNL     1      -6.924  13.975  21.597  0.00  0.00    +0.000 NA
ATOM     15  C   UNL     1      -7.302  12.696  21.348  0.00  0.00    +0.000 A 
ATOM     16  C   UNL     1      -6.548  11.807  20.611  0.00  0.00    +0.000 A 
ATOM     17  C   UNL     1      -7.101  10.605  20.124  0.00  0.00    +0.000 A 
ATOM     18  C   UNL     1      -6.928  10.306  18.783  0.00  0.00    +0.000 A 
ATOM     19  C   UNL     1      -6.163  11.174  18.005  0.00  0.00    +0.000 A 
ATOM     20  C   UNL     1      -5.351  12.135  18.633  0.00  0.00    +0.000 A 
ATOM     21  C   UNL     1      -5.402  12.330  20.023  0.00  0.00    +0.000 A 
ENDBRANCH  10  12
ENDBRANCH   7  10
ENDBRANCH   1   7
BRANCH   4  22
ATOM     22  C   UNL     1       1.383   9.295  19.638  0.00  0.00    +0.000 C 
BRANCH  22  23
ATOM     23  C   UNL     1       2.006   8.572  18.417  0.00  0.00    +0.000 C 
BRANCH  23  24
ATOM     24  O   UNL     1       2.210   7.173  18.697  0.00  0.00    +0.000 OA
BRANCH  24  25
ATOM     25  C   UNL     1       3.198   6.551  17.953  0.00  0.00    +0.000 A 
ATOM     26  C   UNL     1       3.997   7.275  17.049  0.00  0.00    +0.000 A 
ATOM     27  C   UNL     1       4.993   6.658  16.293  0.00  0.00    +0.000 A 
ATOM     28  C   UNL     1       5.239   5.306  16.457  0.00  0.00    +0.000 A 
ATOM     29  C   UNL     1       4.482   4.578  17.377  0.00  0.00    +0.000 A 
ATOM     30  C   UNL     1       3.434   5.160  18.134  0.00  0.00    +0.000 A 
BRANCH  30  31
ATOM     31  C   UNL     1       2.637   4.267  19.025  0.00  0.00    +0.000 A 
ATOM     32  C   UNL     1       1.522   3.545  18.576  0.00  0.00    +0.000 A 
ATOM     33  C   UNL     1       0.782   2.721  19.433  0.00  0.00    +0.000 A 
ATOM     34  C   UNL     1       1.131   2.612  20.775  0.00  0.00    +0.000 A 
ATOM     35  C   UNL     1       2.218   3.329  21.262  0.00  0.00    +0.000 A 
ATOM     36  C   UNL     1       2.960   4.138  20.395  0.00  0.00    +0.000 A 
ENDBRANCH  30  31
ENDBRANCH  24  25
ENDBRANCH  23  24
ENDBRANCH  22  23
ENDBRANCH   4  22
TORSDOF 8
ENDMDL
MODEL 2
REMARK VINA RESULT:      -8.5      0.771      1.134
REMARK  Name = 
REMARK  8 active torsions:
REMARK  status: ('A' for Active; 'I' for Inactive)
REMARK    1  A    between atoms: S_2  and  N_4
REMARK    2  A    between atoms: S_2  and  C_26
REMARK    3  A    between atoms: N_4  and  C_5
REMARK    4  A    between atoms: N_8  and  C_9
REMARK    5  A    between atoms: C_9  and  C_10
REMARK    6  A    between atoms: C_10  and  O_11
REMARK    7  A    between atoms: O_11  and  C_12
REMARK    8  A    between atoms: C_17  and  C_18
REMARK                            x       y       z     vdW  Elec       q    Type
REMARK                         _______ _______ _______ _____ _____    ______ ____
ROOT
ATOM      1  C   UNL     1      -1.562  12.415  18.667  0.00  0.00    +0.000 C 
ATOM      2  C   UNL     1      -1.574  11.236  17.700  0.00  0.00    +0.000 C 
ATOM      3  C   UNL     1      -0.762  10.042  18.195  0.00  0.00    +0.000 C 
ATOM      4  N   UNL     1       0.646  10.376  18.451  0.00  0.00    +0.000 NA
ATOM      5  C   UNL     1       0.772  11.540  19.347  0.00  0.00    +0.000 C 
ATOM      6  C   UNL     1      -0.078  12.757  18.923  0.00  0.00    +0.000 C 
ENDROOT
BRANCH   1   7
ATOM      7  N   UNL     1      -2.262  12.202  19.972  0.00  0.00    +0.000 NA
ATOM      8  H   UNL     1      -2.839  11.362  20.037  0.00  0.00    +0.000 HD
BRANCH   7  10
ATOM      9  O   UNL     1      -2.939  12.956  22.296  0.00  0.00    +0.000 OA
ATOM     10  S   UNL     1      -2.963  13.422  20.927  0.00  0.00    +0.000 S 
ATOM     11  O   UNL     1      -2.270  14.632  20.565  0.00  0.00    +0.000 OA
BRANCH  10  12
ATOM     12  C   UNL     1      -4.702  13.686  20.440  0.00  0.00    +0.000 A 
ATOM     13  C   UNL     1      -5.370  14.272  21.492  0.00  0.00    +0.000 A 
ATOM     14  N   UNL     1      -6.387  13.652  22.127  0.00  0.00    +0.000 NA
ATOM     15  C   UNL     1      -6.692  12.401  21.697  0.00  0.00    +0.000 A 
ATOM     16  C   UNL     1      -6.182  11.845  20.544  0.00  0.00    +0.000 A 
ATOM     17  C   UNL     1      -6.746  10.682  19.979  0.00  0.00    +0.000 A 
ATOM     18  C   UNL     1      -7.062  10.702  18.630  0.00  0.00    +0.000 A 
ATOM     19  C   UNL     1      -6.745  11.842  17.893  0.00  0.00    +0.000 A 
ATOM     20  C   UNL     1      -5.865  12.795  18.434  0.00  0.00    +0.000 A 
ATOM     21  C   UNL     1      -5.407  12.690  19.758  0.00  0.00    +0.000 A 
ENDBRANCH  10  12
ENDBRANCH   7  10
ENDBRANCH   1   7
BRANCH   4  22
ATOM     22  C   UNL     1       1.382   9.205  19.015  0.00  0.00    +0.000 C 
BRANCH  22  23
ATOM     23  C   UNL     1       2.329   8.483  18.024  0.00  0.00    +0.000 C 
BRANCH  23  24
ATOM     24  O   UNL     1       2.893   7.298  18.623  0.00  0.00    +0.000 OA
BRANCH  24  25
ATOM     25  C   UNL     1       3.616   6.482  17.770  0.00  0.00    +0.000 A 
ATOM     26  C   UNL     1       4.451   7.023  16.775  0.00  0.00    +0.000 A 
ATOM     27  C   UNL     1       5.182   6.210  15.910  0.00  0.00    +0.000 A 
ATOM     28  C   UNL     1       5.125   4.835  16.049  0.00  0.00    +0.000 A 
ATOM     29  C   UNL     1       4.332   4.280  17.055  0.00  0.00    +0.000 A 
ATOM     30  C   UNL     1       3.543   5.071  17.929  0.00  0.00    +0.000 A 
BRANCH  30  31
ATOM     31  C   UNL     1       2.670   4.366  18.912  0.00  0.00    +0.000 A 
ATOM     32  C   UNL     1       2.943   4.338  20.288  0.00  0.00    +0.000 A 
ATOM     33  C   UNL     1       2.115   3.659  21.190  0.00  0.00    +0.000 A 
ATOM     34  C   UNL     1       0.995   2.971  20.734  0.00  0.00    +0.000 A 
ATOM     35  C   UNL     1       0.704   2.959  19.375  0.00  0.00    +0.000 A 
ATOM     36  C   UNL     1       1.528   3.651  18.482  0.00  0.00    +0.000 A 
ENDBRANCH  30  31
ENDBRANCH  24  25
ENDBRANCH  23  24
ENDBRANCH  22  23
ENDBRANCH   4  22
TORSDOF 8
ENDMDL
MODEL 3
REMARK VINA RESULT:      -8.5      2.560      3.489
REMARK  Name = 
REMARK  8 active torsions:
REMARK  status: ('A' for Active; 'I' for Inactive)
REMARK    1  A    between atoms: S_2  and  N_4
REMARK    2  A    between atoms: S_2  and  C_26
REMARK    3  A    between atoms: N_4  and  C_5
REMARK    4  A    between atoms: N_8  and  C_9
REMARK    5  A    between atoms: C_9  and  C_10
REMARK    6  A    between atoms: C_10  and  O_11
REMARK    7  A    between atoms: O_11  and  C_12
REMARK    8  A    between atoms: C_17  and  C_18
REMARK                            x       y       z     vdW  Elec       q    Type
REMARK                         _______ _______ _______ _____ _____    ______ ____
ROOT
ATOM      1  C   UNL     1      -0.190  12.025  21.109  0.00  0.00    +0.000 C 
ATOM      2  C   UNL     1       0.972  12.398  20.194  0.00  0.00    +0.000 C 
ATOM      3  C   UNL     1       1.102  11.481  18.981  0.00  0.00    +0.000 C 
ATOM      4  N   UNL     1       1.279  10.069  19.348  0.00  0.00    +0.000 NA
ATOM      5  C   UNL     1       0.224   9.616  20.274  0.00  0.00    +0.000 C 
ATOM      6  C   UNL     1       0.010  10.542  21.489  0.00  0.00    +0.000 C 
ENDROOT
BRANCH   1   7
ATOM      7  N   UNL     1      -1.561  12.219  20.542  0.00  0.00    +0.000 NA
ATOM      8  H   UNL     1      -1.665  12.015  19.547  0.00  0.00    +0.000 HD
BRANCH   7  10
ATOM      9  O   UNL     1      -2.044  14.708  20.497  0.00  0.00    +0.000 OA
ATOM     10  S   UNL     1      -2.634  13.470  20.960  0.00  0.00    +0.000 S 
ATOM     11  O   UNL     1      -3.918  13.052  20.459  0.00  0.00    +0.000 OA
BRANCH  10  12
ATOM     12  C   UNL     1      -2.819  13.565  22.773  0.00  0.00    +0.000 A 
ATOM     13  C   UNL     1      -3.252  12.343  23.236  0.00  0.00    +0.000 A 
ATOM     14  N   UNL     1      -4.452  12.190  23.837  0.00  0.00    +0.000 NA
ATOM     15  C   UNL     1      -5.228  13.300  23.924  0.00  0.00    +0.000 A 
ATOM     16  C   UNL     1      -4.775  14.572  23.643  0.00  0.00    +0.000 A 
ATOM     17  C   UNL     1      -5.506  15.713  24.031  0.00  0.00    +0.000 A 
ATOM     18  C   UNL     1      -4.836  16.713  24.715  0.00  0.00    +0.000 A 
ATOM     19  C   UNL     1      -3.465  16.568  24.924  0.00  0.00    +0.000 A 
ATOM     20  C   UNL     1      -2.752  15.600  24.197  0.00  0.00    +0.000 A 
ATOM     21  C   UNL     1      -3.416  14.681  23.367  0.00  0.00    +0.000 A 
ENDBRANCH  10  12
ENDBRANCH   7  10
ENDBRANCH   1   7
BRANCH   4  22
ATOM     22  C   UNL     1       1.314   9.199  18.135  0.00  0.00    +0.000 C 
BRANCH  22  23
ATOM     23  C   UNL     1       2.698   8.587  17.803  0.00  0.00    +0.000 C 
BRANCH  23  24
ATOM     24  O   UNL     1       2.812   7.252  18.337  0.00  0.00    +0.000 OA
BRANCH  24  25
ATOM     25  C   UNL     1       3.617   6.386  17.617  0.00  0.00    +0.000 A 
ATOM     26  C   UNL     1       4.486   6.858  16.616  0.00  0.00    +0.000 A 
ATOM     27  C   UNL     1       5.300   5.994  15.884  0.00  0.00    +0.000 A 
ATOM     28  C   UNL     1       5.291   4.640  16.169  0.00  0.00    +0.000 A 
ATOM     29  C   UNL     1       4.464   4.158  17.184  0.00  0.00    +0.000 A 
ATOM     30  C   UNL     1       3.593   4.998  17.924  0.00  0.00    +0.000 A 
BRANCH  30  31
ATOM     31  C   UNL     1       2.694   4.360  18.928  0.00  0.00    +0.000 A 
ATOM     32  C   UNL     1       2.925   4.433  20.310  0.00  0.00    +0.000 A 
ATOM     33  C   UNL     1       2.073   3.816  21.234  0.00  0.00    +0.000 A 
ATOM     34  C   UNL     1       0.971   3.089  20.796  0.00  0.00    +0.000 A 
ATOM     35  C   UNL     1       0.722   2.976  19.433  0.00  0.00    +0.000 A 
ATOM     36  C   UNL     1       1.570   3.608  18.517  0.00  0.00    +0.000 A 
ENDBRANCH  30  31
ENDBRANCH  24  25
ENDBRANCH  23  24
ENDBRANCH  22  23
ENDBRANCH   4  22
TORSDOF 8
ENDMDL
MODEL 4
REMARK VINA RESULT:      -8.5      3.676      5.869
REMARK  Name = 
REMARK  8 active torsions:
REMARK  status: ('A' for Active; 'I' for Inactive)
REMARK    1  A    between atoms: S_2  and  N_4
REMARK    2  A    between atoms: S_2  and  C_26
REMARK    3  A    between atoms: N_4  and  C_5
REMARK    4  A    between atoms: N_8  and  C_9
REMARK    5  A    between atoms: C_9  and  C_10
REMARK    6  A    between atoms: C_10  and  O_11
REMARK    7  A    between atoms: O_11  and  C_12
REMARK    8  A    between atoms: C_17  and  C_18
REMARK                            x       y       z     vdW  Elec       q    Type
REMARK                         _______ _______ _______ _____ _____    ______ ____
ROOT
ATOM      1  C   UNL     1      -0.300  10.750  21.152  0.00  0.00    +0.000 C 
ATOM      2  C   UNL     1       0.161   9.333  21.477  0.00  0.00    +0.000 C 
ATOM      3  C   UNL     1       1.310   8.856  20.593  0.00  0.00    +0.000 C 
ATOM      4  N   UNL     1       0.979   8.884  19.162  0.00  0.00    +0.000 NA
ATOM      5  C   UNL     1       0.476  10.207  18.749  0.00  0.00    +0.000 C 
ATOM      6  C   UNL     1      -0.649  10.763  19.648  0.00  0.00    +0.000 C 
ENDROOT
BRANCH   1   7
ATOM      7  N   UNL     1       0.674  11.844  21.454  0.00  0.00    +0.000 NA
ATOM      8  H   UNL     1       1.300  11.679  22.243  0.00  0.00    +0.000 HD
BRANCH   7  10
ATOM      9  O   UNL     1      -1.069  13.682  21.564  0.00  0.00    +0.000 OA
ATOM     10  S   UNL     1       0.351  13.510  21.350  0.00  0.00    +0.000 S 
ATOM     11  O   UNL     1       1.296  14.136  22.240  0.00  0.00    +0.000 OA
BRANCH  10  12
ATOM     12  C   UNL     1       0.760  14.131  19.682  0.00  0.00    +0.000 A 
ATOM     13  C   UNL     1       1.942  13.554  19.275  0.00  0.00    +0.000 A 
ATOM     14  N   UNL     1       3.052  14.286  19.042  0.00  0.00    +0.000 NA
ATOM     15  C   UNL     1       2.952  15.621  19.270  0.00  0.00    +0.000 A 
ATOM     16  C   UNL     1       1.757  16.268  19.501  0.00  0.00    +0.000 A 
ATOM     17  C   UNL     1       1.659  17.673  19.432  0.00  0.00    +0.000 A 
ATOM     18  C   UNL     1       0.646  18.216  18.659  0.00  0.00    +0.000 A 
ATOM     19  C   UNL     1      -0.259  17.349  18.049  0.00  0.00    +0.000 A 
ATOM     20  C   UNL     1      -0.317  16.006  18.459  0.00  0.00    +0.000 A 
ATOM     21  C   UNL     1       0.614  15.487  19.375  0.00  0.00    +0.000 A 
ENDBRANCH  10  12
ENDBRANCH   7  10
ENDBRANCH   1   7
BRANCH   4  22
ATOM     22  C   UNL     1       2.156   8.494  18.330  0.00  0.00    +0.000 C 
BRANCH  22  23
ATOM     23  C   UNL     1       2.407   6.969  18.218  0.00  0.00    +0.000 C 
BRANCH  23  24
ATOM     24  O   UNL     1       3.375   6.534  19.195  0.00  0.00    +0.000 OA
BRANCH  24  25
ATOM     25  C   UNL     1       3.164   5.274  19.728  0.00  0.00    +0.000 A 
ATOM     26  C   UNL     1       2.232   5.065  20.762  0.00  0.00    +0.000 A 
ATOM     27  C   UNL     1       2.014   3.800  21.307  0.00  0.00    +0.000 A 
ATOM     28  C   UNL     1       2.695   2.708  20.798  0.00  0.00    +0.000 A 
ATOM     29  C   UNL     1       3.594   2.890  19.747  0.00  0.00    +0.000 A 
ATOM     30  C   UNL     1       3.874   4.165  19.193  0.00  0.00    +0.000 A 
BRANCH  30  31
ATOM     31  C   UNL     1       4.916   4.250  18.128  0.00  0.00    +0.000 A 
ATOM     32  C   UNL     1       4.660   3.927  16.787  0.00  0.00    +0.000 A 
ATOM     33  C   UNL     1       5.657   4.003  15.807  0.00  0.00    +0.000 A 
ATOM     34  C   UNL     1       6.949   4.389  16.149  0.00  0.00    +0.000 A 
ATOM     35  C   UNL     1       7.246   4.697  17.471  0.00  0.00    +0.000 A 
ATOM     36  C   UNL     1       6.240   4.632  18.442  0.00  0.00    +0.000 A 
ENDBRANCH  30  31
ENDBRANCH  24  25
ENDBRANCH  23  24
ENDBRANCH  22  23
ENDBRANCH   4  22
TORSDOF 8
ENDMDL
MODEL 5
REMARK VINA RESULT:      -8.4      1.929      3.791
REMARK  Name = 
REMARK  8 active torsions:
REMARK  status: ('A' for Active; 'I' for Inactive)
REMARK    1  A    between atoms: S_2  and  N_4
REMARK    2  A    between atoms: S_2  and  C_26
REMARK    3  A    between atoms: N_4  and  C_5
REMARK    4  A    between atoms: N_8  and  C_9
REMARK    5  A    between atoms: C_9  and  C_10
REMARK    6  A    between atoms: C_10  and  O_11
REMARK    7  A    between atoms: O_11  and  C_12
REMARK    8  A    between atoms: C_17  and  C_18
REMARK                            x       y       z     vdW  Elec       q    Type
REMARK                         _______ _______ _______ _____ _____    ______ ____
ROOT
ATOM      1  C   UNL     1      -0.728  10.514  20.752  0.00  0.00    +0.000 C 
ATOM      2  C   UNL     1      -0.093   9.189  21.160  0.00  0.00    +0.000 C 
ATOM      3  C   UNL     1       1.219   8.901  20.435  0.00  0.00    +0.000 C 
ATOM      4  N   UNL     1       1.069   8.876  18.973  0.00  0.00    +0.000 NA
ATOM      5  C   UNL     1       0.419  10.102  18.475  0.00  0.00    +0.000 C 
ATOM      6  C   UNL     1      -0.883  10.471  19.217  0.00  0.00    +0.000 C 
ENDROOT
BRANCH   1   7
ATOM      7  N   UNL     1       0.016  11.750  21.149  0.00  0.00    +0.000 NA
ATOM      8  H   UNL     1       1.018  11.636  21.308  0.00  0.00    +0.000 HD
BRANCH   7  10
ATOM      9  O   UNL     1      -1.087  12.300  23.365  0.00  0.00    +0.000 OA
ATOM     10  S   UNL     1      -0.568  12.962  22.188  0.00  0.00    +0.000 S 
ATOM     11  O   UNL     1       0.510  13.910  22.310  0.00  0.00    +0.000 OA
BRANCH  10  12
ATOM     12  C   UNL     1      -1.936  13.873  21.393  0.00  0.00    +0.000 A 
ATOM     13  C   UNL     1      -1.899  15.182  21.818  0.00  0.00    +0.000 A 
ATOM     14  N   UNL     1      -2.903  15.728  22.537  0.00  0.00    +0.000 NA
ATOM     15  C   UNL     1      -3.934  14.904  22.854  0.00  0.00    +0.000 A 
ATOM     16  C   UNL     1      -4.106  13.651  22.307  0.00  0.00    +0.000 A 
ATOM     17  C   UNL     1      -5.329  12.960  22.427  0.00  0.00    +0.000 A 
ATOM     18  C   UNL     1      -5.894  12.435  21.276  0.00  0.00    +0.000 A 
ATOM     19  C   UNL     1      -5.193  12.561  20.078  0.00  0.00    +0.000 A 
ATOM     20  C   UNL     1      -3.836  12.927  20.103  0.00  0.00    +0.000 A 
ATOM     21  C   UNL     1      -3.209  13.303  21.302  0.00  0.00    +0.000 A 
ENDBRANCH  10  12
ENDBRANCH   7  10
ENDBRANCH   1   7
BRANCH   4  22
ATOM     22  C   UNL     1       2.389   8.678  18.301  0.00  0.00    +0.000 C 
BRANCH  22  23
ATOM     23  C   UNL     1       2.758   7.205  17.995  0.00  0.00    +0.000 C 
BRANCH  23  24
ATOM     24  O   UNL     1       3.341   6.570  19.151  0.00  0.00    +0.000 OA
BRANCH  24  25
ATOM     25  C   UNL     1       2.874   5.298  19.435  0.00  0.00    +0.000 A 
ATOM     26  C   UNL     1       1.770   5.098  20.286  0.00  0.00    +0.000 A 
ATOM     27  C   UNL     1       1.294   3.822  20.580  0.00  0.00    +0.000 A 
ATOM     28  C   UNL     1       1.888   2.717  19.995  0.00  0.00    +0.000 A 
ATOM     29  C   UNL     1       2.959   2.897  19.119  0.00  0.00    +0.000 A 
ATOM     30  C   UNL     1       3.498   4.176  18.825  0.00  0.00    +0.000 A 
BRANCH  30  31
ATOM     31  C   UNL     1       4.697   4.241  17.940  0.00  0.00    +0.000 A 
ATOM     32  C   UNL     1       5.977   4.565  18.416  0.00  0.00    +0.000 A 
ATOM     33  C   UNL     1       7.086   4.631  17.564  0.00  0.00    +0.000 A 
ATOM     34  C   UNL     1       6.939   4.391  16.201  0.00  0.00    +0.000 A 
ATOM     35  C   UNL     1       5.683   4.087  15.690  0.00  0.00    +0.000 A 
ATOM     36  C   UNL     1       4.583   4.009  16.550  0.00  0.00    +0.000 A 
ENDBRANCH  30  31
ENDBRANCH  24  25
ENDBRANCH  23  24
ENDBRANCH  22  23
ENDBRANCH   4  22
TORSDOF 8
ENDMDL
MODEL 6
REMARK VINA RESULT:      -8.4      3.341      5.058
REMARK  Name = 
REMARK  8 active torsions:
REMARK  status: ('A' for Active; 'I' for Inactive)
REMARK    1  A    between atoms: S_2  and  N_4
REMARK    2  A    between atoms: S_2  and  C_26
REMARK    3  A    between atoms: N_4  and  C_5
REMARK    4  A    between atoms: N_8  and  C_9
REMARK    5  A    between atoms: C_9  and  C_10
REMARK    6  A    between atoms: C_10  and  O_11
REMARK    7  A    between atoms: O_11  and  C_12
REMARK    8  A    between atoms: C_17  and  C_18
REMARK                            x       y       z     vdW  Elec       q    Type
REMARK                         _______ _______ _______ _____ _____    ______ ____
ROOT
ATOM      1  C   UNL     1      -0.567  10.917  21.313  0.00  0.00    +0.000 C 
ATOM      2  C   UNL     1       0.038   9.522  21.429  0.00  0.00    +0.000 C 
ATOM      3  C   UNL     1       1.220   9.298  20.488  0.00  0.00    +0.000 C 
ATOM      4  N   UNL     1       0.871   9.501  19.075  0.00  0.00    +0.000 NA
ATOM      5  C   UNL     1       0.233  10.812  18.859  0.00  0.00    +0.000 C 
ATOM      6  C   UNL     1      -0.931  11.115  19.826  0.00  0.00    +0.000 C 
ENDROOT
BRANCH   1   7
ATOM      7  N   UNL     1       0.296  12.048  21.775  0.00  0.00    +0.000 NA
ATOM      8  H   UNL     1       0.770  11.912  22.669  0.00  0.00    +0.000 HD
BRANCH   7  10
ATOM      9  O   UNL     1      -1.501  13.821  21.542  0.00  0.00    +0.000 OA
ATOM     10  S   UNL     1      -0.060  13.700  21.591  0.00  0.00    +0.000 S 
ATOM     11  O   UNL     1       0.685  14.367  22.629  0.00  0.00    +0.000 OA
BRANCH  10  12
ATOM     12  C   UNL     1       0.622  14.324  20.017  0.00  0.00    +0.000 A 
ATOM     13  C   UNL     1       1.926  13.897  19.903  0.00  0.00    +0.000 A 
ATOM     14  N   UNL     1       2.962  14.762  19.871  0.00  0.00    +0.000 NA
ATOM     15  C   UNL     1       2.652  16.077  19.998  0.00  0.00    +0.000 A 
ATOM     16  C   UNL     1       1.365  16.568  19.935  0.00  0.00    +0.000 A 
ATOM     17  C   UNL     1       1.113  17.945  19.769  0.00  0.00    +0.000 A 
ATOM     18  C   UNL     1       0.233  18.330  18.771  0.00  0.00    +0.000 A 
ATOM     19  C   UNL     1      -0.403  17.334  18.030  0.00  0.00    +0.000 A 
ATOM     20  C   UNL     1      -0.384  16.007  18.493  0.00  0.00    +0.000 A 
ATOM     21  C   UNL     1       0.381  15.640  19.612  0.00  0.00    +0.000 A 
ENDBRANCH  10  12
ENDBRANCH   7  10
ENDBRANCH   1   7
BRANCH   4  22
ATOM     22  C   UNL     1       2.073   9.358  18.199  0.00  0.00    +0.000 C 
BRANCH  22  23
ATOM     23  C   UNL     1       2.246   7.965  17.542  0.00  0.00    +0.000 C 
BRANCH  23  24
ATOM     24  O   UNL     1       3.259   7.198  18.224  0.00  0.00    +0.000 OA
BRANCH  24  25
ATOM     25  C   UNL     1       3.908   6.246  17.456  0.00  0.00    +0.000 A 
ATOM     26  C   UNL     1       4.773   6.618  16.410  0.00  0.00    +0.000 A 
ATOM     27  C   UNL     1       5.430   5.667  15.629  0.00  0.00    +0.000 A 
ATOM     28  C   UNL     1       5.266   4.321  15.906  0.00  0.00    +0.000 A 
ATOM     29  C   UNL     1       4.442   3.935  16.964  0.00  0.00    +0.000 A 
ATOM     30  C   UNL     1       3.726   4.868  17.755  0.00  0.00    +0.000 A 
BRANCH  30  31
ATOM     31  C   UNL     1       2.810   4.336  18.805  0.00  0.00    +0.000 A 
ATOM     32  C   UNL     1       3.091   4.427  20.177  0.00  0.00    +0.000 A 
ATOM     33  C   UNL     1       2.222   3.910  21.145  0.00  0.00    +0.000 A 
ATOM     34  C   UNL     1       1.049   3.267  20.762  0.00  0.00    +0.000 A 
ATOM     35  C   UNL     1       0.746   3.139  19.411  0.00  0.00    +0.000 A 
ATOM     36  C   UNL     1       1.613   3.671  18.451  0.00  0.00    +0.000 A 
ENDBRANCH  30  31
ENDBRANCH  24  25
ENDBRANCH  23  24
ENDBRANCH  22  23
ENDBRANCH   4  22
TORSDOF 8
ENDMDL
MODEL 7
REMARK VINA RESULT:      -8.4      1.672      2.355
REMARK  Name = 
REMARK  8 active torsions:
REMARK  status: ('A' for Active; 'I' for Inactive)
REMARK    1  A    between atoms: S_2  and  N_4
REMARK    2  A    between atoms: S_2  and  C_26
REMARK    3  A    between atoms: N_4  and  C_5
REMARK    4  A    between atoms: N_8  and  C_9
REMARK    5  A    between atoms: C_9  and  C_10
REMARK    6  A    between atoms: C_10  and  O_11
REMARK    7  A    between atoms: O_11  and  C_12
REMARK    8  A    between atoms: C_17  and  C_18
REMARK                            x       y       z     vdW  Elec       q    Type
REMARK                         _______ _______ _______ _____ _____    ______ ____
ROOT
ATOM      1  C   UNL     1      -0.416  12.476  19.803  0.00  0.00    +0.000 C 
ATOM      2  C   UNL     1      -1.378  11.662  18.945  0.00  0.00    +0.000 C 
ATOM      3  C   UNL     1      -0.889  10.241  18.674  0.00  0.00    +0.000 C 
ATOM      4  N   UNL     1       0.420  10.205  18.007  0.00  0.00    +0.000 NA
ATOM      5  C   UNL     1       1.420  11.005  18.737  0.00  0.00    +0.000 C 
ATOM      6  C   UNL     1       0.952  12.433  19.089  0.00  0.00    +0.000 C 
ENDROOT
BRANCH   1   7
ATOM      7  N   UNL     1      -0.258  12.026  21.221  0.00  0.00    +0.000 NA
ATOM      8  H   UNL     1       0.029  11.056  21.353  0.00  0.00    +0.000 HD
BRANCH   7  10
ATOM      9  O   UNL     1      -1.796  11.263  23.087  0.00  0.00    +0.000 OA
ATOM     10  S   UNL     1      -1.261  12.480  22.517  0.00  0.00    +0.000 S 
ATOM     11  O   UNL     1      -0.460  13.363  23.326  0.00  0.00    +0.000 OA
BRANCH  10  12
ATOM     12  C   UNL     1      -2.655  13.493  21.915  0.00  0.00    +0.000 A 
ATOM     13  C   UNL     1      -2.413  14.810  22.236  0.00  0.00    +0.000 A 
ATOM     14  N   UNL     1      -3.209  15.498  23.082  0.00  0.00    +0.000 NA
ATOM     15  C   UNL     1      -4.241  14.809  23.632  0.00  0.00    +0.000 A 
ATOM     16  C   UNL     1      -4.632  13.555  23.212  0.00  0.00    +0.000 A 
ATOM     17  C   UNL     1      -5.874  13.008  23.593  0.00  0.00    +0.000 A 
ATOM     18  C   UNL     1      -6.689  12.492  22.599  0.00  0.00    +0.000 A 
ATOM     19  C   UNL     1      -6.211  12.480  21.290  0.00  0.00    +0.000 A 
ATOM     20  C   UNL     1      -4.843  12.696  21.050  0.00  0.00    +0.000 A 
ATOM     21  C   UNL     1      -3.973  13.062  22.091  0.00  0.00    +0.000 A 
ENDBRANCH  10  12
ENDBRANCH   7  10
ENDBRANCH   1   7
BRANCH   4  22
ATOM     22  C   UNL     1       0.899   8.800  17.840  0.00  0.00    +0.000 C 
BRANCH  22  23
ATOM     23  C   UNL     1       2.430   8.606  17.980  0.00  0.00    +0.000 C 
BRANCH  23  24
ATOM     24  O   UNL     1       2.735   7.314  18.543  0.00  0.00    +0.000 OA
BRANCH  24  25
ATOM     25  C   UNL     1       3.532   6.494  17.762  0.00  0.00    +0.000 A 
ATOM     26  C   UNL     1       4.363   7.024  16.758  0.00  0.00    +0.000 A 
ATOM     27  C   UNL     1       5.167   6.207  15.965  0.00  0.00    +0.000 A 
ATOM     28  C   UNL     1       5.188   4.841  16.189  0.00  0.00    +0.000 A 
ATOM     29  C   UNL     1       4.398   4.301  17.205  0.00  0.00    +0.000 A 
ATOM     30  C   UNL     1       3.537   5.093  18.006  0.00  0.00    +0.000 A 
BRANCH  30  31
ATOM     31  C   UNL     1       2.678   4.396  19.006  0.00  0.00    +0.000 A 
ATOM     32  C   UNL     1       2.883   4.502  20.390  0.00  0.00    +0.000 A 
ATOM     33  C   UNL     1       2.070   3.829  21.310  0.00  0.00    +0.000 A 
ATOM     34  C   UNL     1       1.035   3.012  20.866  0.00  0.00    +0.000 A 
ATOM     35  C   UNL     1       0.814   2.866  19.502  0.00  0.00    +0.000 A 
ATOM     36  C   UNL     1       1.622   3.553  18.590  0.00  0.00    +0.000 A 
ENDBRANCH  30  31
ENDBRANCH  24  25
ENDBRANCH  23  24
ENDBRANCH  22  23
ENDBRANCH   4  22
TORSDOF 8
ENDMDL
MODEL 8
REMARK VINA RESULT:      -8.4      3.768      5.321
REMARK  Name = 
REMARK  8 active torsions:
REMARK  status: ('A' for Active; 'I' for Inactive)
REMARK    1  A    between atoms: S_2  and  N_4
REMARK    2  A    between atoms: S_2  and  C_26
REMARK    3  A    between atoms: N_4  and  C_5
REMARK    4  A    between atoms: N_8  and  C_9
REMARK    5  A    between atoms: C_9  and  C_10
REMARK    6  A    between atoms: C_10  and  O_11
REMARK    7  A    between atoms: O_11  and  C_12
REMARK    8  A    between atoms: C_17  and  C_18
REMARK                            x       y       z     vdW  Elec       q    Type
REMARK                         _______ _______ _______ _____ _____    ______ ____
ROOT
ATOM      1  C   UNL     1      -0.080  11.142  21.518  0.00  0.00    +0.000 C 
ATOM      2  C   UNL     1       0.141   9.891  22.362  0.00  0.00    +0.000 C 
ATOM      3  C   UNL     1       1.233   8.978  21.811  0.00  0.00    +0.000 C 
ATOM      4  N   UNL     1       0.964   8.530  20.437  0.00  0.00    +0.000 NA
ATOM      5  C   UNL     1       0.691   9.670  19.541  0.00  0.00    +0.000 C 
ATOM      6  C   UNL     1      -0.365  10.657  20.081  0.00  0.00    +0.000 C 
ENDROOT
BRANCH   1   7
ATOM      7  N   UNL     1       1.042  12.131  21.504  0.00  0.00    +0.000 NA
ATOM      8  H   UNL     1       1.823  11.929  22.130  0.00  0.00    +0.000 HD
BRANCH   7  10
ATOM      9  O   UNL     1      -0.426  14.157  21.915  0.00  0.00    +0.000 OA
ATOM     10  S   UNL     1       0.870  13.817  21.369  0.00  0.00    +0.000 S 
ATOM     11  O   UNL     1       2.066  14.368  21.953  0.00  0.00    +0.000 OA
BRANCH  10  12
ATOM     12  C   UNL     1       0.903  14.318  19.614  0.00  0.00    +0.000 A 
ATOM     13  C   UNL     1       1.998  13.740  19.011  0.00  0.00    +0.000 A 
ATOM     14  N   UNL     1       3.007  14.478  18.502  0.00  0.00    +0.000 NA
ATOM     15  C   UNL     1       2.904  15.823  18.651  0.00  0.00    +0.000 A 
ATOM     16  C   UNL     1       1.758  16.458  19.080  0.00  0.00    +0.000 A 
ATOM     17  C   UNL     1       1.592  17.850  18.934  0.00  0.00    +0.000 A 
ATOM     18  C   UNL     1       0.422  18.309  18.353  0.00  0.00    +0.000 A 
ATOM     19  C   UNL     1      -0.554  17.376  18.006  0.00  0.00    +0.000 A 
ATOM     20  C   UNL     1      -0.474  16.068  18.513  0.00  0.00    +0.000 A 
ATOM     21  C   UNL     1       0.644  15.642  19.249  0.00  0.00    +0.000 A 
ENDBRANCH  10  12
ENDBRANCH   7  10
ENDBRANCH   1   7
BRANCH   4  22
ATOM     22  C   UNL     1       2.096   7.713  19.907  0.00  0.00    +0.000 C 
BRANCH  22  23
ATOM     23  C   UNL     1       2.519   8.039  18.452  0.00  0.00    +0.000 C 
BRANCH  23  24
ATOM     24  O   UNL     1       2.675   6.832  17.679  0.00  0.00    +0.000 OA
BRANCH  24  25
ATOM     25  C   UNL     1       3.920   6.231  17.752  0.00  0.00    +0.000 A 
ATOM     26  C   UNL     1       5.052   6.819  17.157  0.00  0.00    +0.000 A 
ATOM     27  C   UNL     1       6.309   6.221  17.223  0.00  0.00    +0.000 A 
ATOM     28  C   UNL     1       6.469   5.038  17.924  0.00  0.00    +0.000 A 
ATOM     29  C   UNL     1       5.366   4.459  18.553  0.00  0.00    +0.000 A 
ATOM     30  C   UNL     1       4.064   5.015  18.475  0.00  0.00    +0.000 A 
BRANCH  30  31
ATOM     31  C   UNL     1       2.946   4.265  19.117  0.00  0.00    +0.000 A 
ATOM     32  C   UNL     1       2.777   4.195  20.508  0.00  0.00    +0.000 A 
ATOM     33  C   UNL     1       1.726   3.475  21.089  0.00  0.00    +0.000 A 
ATOM     34  C   UNL     1       0.821   2.786  20.288  0.00  0.00    +0.000 A 
ATOM     35  C   UNL     1       0.968   2.814  18.906  0.00  0.00    +0.000 A 
ATOM     36  C   UNL     1       2.012   3.548  18.334  0.00  0.00    +0.000 A 
ENDBRANCH  30  31
ENDBRANCH  24  25
ENDBRANCH  23  24
ENDBRANCH  22  23
ENDBRANCH   4  22
TORSDOF 8
ENDMDL
MODEL 9
REMARK VINA RESULT:      -8.3      2.535      4.184
REMARK  Name = 
REMARK  8 active torsions:
REMARK  status: ('A' for Active; 'I' for Inactive)
REMARK    1  A    between atoms: S_2  and  N_4
REMARK    2  A    between atoms: S_2  and  C_26
REMARK    3  A    between atoms: N_4  and  C_5
REMARK    4  A    between atoms: N_8  and  C_9
REMARK    5  A    between atoms: C_9  and  C_10
REMARK    6  A    between atoms: C_10  and  O_11
REMARK    7  A    between atoms: O_11  and  C_12
REMARK    8  A    between atoms: C_17  and  C_18
REMARK                            x       y       z     vdW  Elec       q    Type
REMARK                         _______ _______ _______ _____ _____    ______ ____
ROOT
ATOM      1  C   UNL     1      -0.206  11.413  21.227  0.00  0.00    +0.000 C 
ATOM      2  C   UNL     1       1.049  11.086  20.425  0.00  0.00    +0.000 C 
ATOM      3  C   UNL     1       1.177   9.603  20.084  0.00  0.00    +0.000 C 
ATOM      4  N   UNL     1       1.189   8.742  21.275  0.00  0.00    +0.000 NA
ATOM      5  C   UNL     1       0.032   9.012  22.148  0.00  0.00    +0.000 C 
ATOM      6  C   UNL     1      -0.178  10.505  22.475  0.00  0.00    +0.000 C 
ENDROOT
BRANCH   1   7
ATOM      7  N   UNL     1      -1.507  11.243  20.510  0.00  0.00    +0.000 NA
ATOM      8  H   UNL     1      -1.641  10.350  20.033  0.00  0.00    +0.000 HD
BRANCH   7  10
ATOM      9  O   UNL     1      -1.327  13.138  18.835  0.00  0.00    +0.000 OA
ATOM     10  S   UNL     1      -2.319  12.455  19.637  0.00  0.00    +0.000 S 
ATOM     11  O   UNL     1      -3.427  11.788  19.001  0.00  0.00    +0.000 OA
BRANCH  10  12
ATOM     12  C   UNL     1      -3.066  13.666  20.781  0.00  0.00    +0.000 A 
ATOM     13  C   UNL     1      -2.140  14.652  21.044  0.00  0.00    +0.000 A 
ATOM     14  N   UNL     1      -1.647  14.856  22.284  0.00  0.00    +0.000 NA
ATOM     15  C   UNL     1      -2.082  14.010  23.252  0.00  0.00    +0.000 A 
ATOM     16  C   UNL     1      -3.132  13.132  23.084  0.00  0.00    +0.000 A 
ATOM     17  C   UNL     1      -3.741  12.498  24.186  0.00  0.00    +0.000 A 
ATOM     18  C   UNL     1      -5.122  12.554  24.286  0.00  0.00    +0.000 A 
ATOM     19  C   UNL     1      -5.835  13.173  23.260  0.00  0.00    +0.000 A 
ATOM     20  C   UNL     1      -5.196  13.447  22.039  0.00  0.00    +0.000 A 
ATOM     21  C   UNL     1      -3.817  13.236  21.878  0.00  0.00    +0.000 A 
ENDBRANCH  10  12
ENDBRANCH   7  10
ENDBRANCH   1   7
BRANCH   4  22
ATOM     22  C   UNL     1       1.227   7.299  20.893  0.00  0.00    +0.000 C 
BRANCH  22  23
ATOM     23  C   UNL     1       2.252   6.936  19.790  0.00  0.00    +0.000 C 
BRANCH  23  24
ATOM     24  O   UNL     1       2.971   5.733  20.132  0.00  0.00    +0.000 OA
BRANCH  24  25
ATOM     25  C   UNL     1       2.883   4.701  19.213  0.00  0.00    +0.000 A 
ATOM     26  C   UNL     1       1.784   3.822  19.204  0.00  0.00    +0.000 A 
ATOM     27  C   UNL     1       1.689   2.779  18.284  0.00  0.00    +0.000 A 
ATOM     28  C   UNL     1       2.673   2.618  17.325  0.00  0.00    +0.000 A 
ATOM     29  C   UNL     1       3.752   3.503  17.294  0.00  0.00    +0.000 A 
ATOM     30  C   UNL     1       3.906   4.552  18.236  0.00  0.00    +0.000 A 
BRANCH  30  31
ATOM     31  C   UNL     1       5.142   5.384  18.158  0.00  0.00    +0.000 A 
ATOM     32  C   UNL     1       5.267   6.478  17.289  0.00  0.00    +0.000 A 
ATOM     33  C   UNL     1       6.441   7.238  17.224  0.00  0.00    +0.000 A 
ATOM     34  C   UNL     1       7.534   6.910  18.019  0.00  0.00    +0.000 A 
ATOM     35  C   UNL     1       7.455   5.819  18.877  0.00  0.00    +0.000 A 
ATOM     36  C   UNL     1       6.273   5.074  18.946  0.00  0.00    +0.000 A 
ENDBRANCH  30  31
ENDBRANCH  24  25
ENDBRANCH  23  24
ENDBRANCH  22  23
ENDBRANCH   4  22
TORSDOF 8
ENDMDL
