MODEL 1
REMARK VINA RESULT:      -7.6      0.000      0.000
REMARK  Name = 
REMARK  4 active torsions:
REMARK  status: ('A' for Active; 'I' for Inactive)
REMARK    1  A    between atoms: C_1  and  C_2
REMARK    2  A    between atoms: C_2  and  N_3
REMARK    3  A    between atoms: N_3  and  C_4
REMARK    4  A    between atoms: C_4  and  C_5
REMARK                            x       y       z     vdW  Elec       q    Type
REMARK                         _______ _______ _______ _____ _____    ______ ____
ROOT
ATOM      1  C   UNL     1       2.290   5.418  19.656  0.00  0.00    +0.000 A 
ATOM      2  C   UNL     1       1.475   4.694  20.560  0.00  0.00    +0.000 A 
ATOM      3  C   UNL     1       1.460   3.303  20.589  0.00  0.00    +0.000 A 
ATOM      4  C   UNL     1       2.261   2.570  19.722  0.00  0.00    +0.000 A 
ATOM      5  C   UNL     1       3.063   3.278  18.821  0.00  0.00    +0.000 A 
ATOM      6  N   UNL     1       3.923   2.791  17.867  0.00  0.00    +0.000 N 
ATOM      7  C   UNL     1       4.502   3.809  17.155  0.00  0.00    +0.000 A 
ATOM      8  C   UNL     1       5.408   3.749  16.087  0.00  0.00    +0.000 A 
ATOM      9  C   UNL     1       5.826   4.957  15.526  0.00  0.00    +0.000 A 
ATOM     10 CL   UNL     1       6.932   4.935  14.205  0.00  0.00    +0.000 Cl
ATOM     11  C   UNL     1       5.364   6.174  16.013  0.00  0.00    +0.000 A 
ATOM     12  C   UNL     1       4.466   6.209  17.091  0.00  0.00    +0.000 A 
ATOM     13  C   UNL     1       4.016   5.006  17.682  0.00  0.00    +0.000 A 
ATOM     14  C   UNL     1       3.104   4.674  18.752  0.00  0.00    +0.000 A 
ATOM     15  H   UNL     1       4.088   1.811  17.699  0.00  0.00    +0.000 HD
ENDROOT
BRANCH   1  16
ATOM     16  C   UNL     1       2.228   6.933  19.716  0.00  0.00    +0.000 C 
BRANCH  16  17
ATOM     17  N   UNL     1       1.856   7.476  21.023  0.00  0.00    +0.000 NA
ATOM     18  H   UNL     1       1.296   6.785  21.520  0.00  0.00    +0.000 HD
BRANCH  17  20
ATOM     19  C   UNL     1      -0.224   8.569  21.637  0.00  0.00    +0.000 C 
ATOM     20  C   UNL     1       1.113   8.731  20.934  0.00  0.00    +0.000 C 
ENDBRANCH  17  20
ENDBRANCH  16  17
ENDBRANCH   1  16
TORSDOF 3
ENDMDL
MODEL 2
REMARK VINA RESULT:      -7.1      1.313      1.389
REMARK  Name = 
REMARK  4 active torsions:
REMARK  status: ('A' for Active; 'I' for Inactive)
REMARK    1  A    between atoms: C_1  and  C_2
REMARK    2  A    between atoms: C_2  and  N_3
REMARK    3  A    between atoms: N_3  and  C_4
REMARK    4  A    between atoms: C_4  and  C_5
REMARK                            x       y       z     vdW  Elec       q    Type
REMARK                         _______ _______ _______ _____ _____    ______ ____
ROOT
ATOM      1  C   UNL     1       2.522   5.585  19.425  0.00  0.00    +0.000 A 
ATOM      2  C   UNL     1       1.744   4.908  20.395  0.00  0.00    +0.000 A 
ATOM      3  C   UNL     1       1.760   3.523  20.520  0.00  0.00    +0.000 A 
ATOM      4  C   UNL     1       2.557   2.748  19.686  0.00  0.00    +0.000 A 
ATOM      5  C   UNL     1       3.323   3.408  18.719  0.00  0.00    +0.000 A 
ATOM      6  N   UNL     1       4.171   2.874  17.781  0.00  0.00    +0.000 N 
ATOM      7  C   UNL     1       4.712   3.853  16.986  0.00  0.00    +0.000 A 
ATOM      8  C   UNL     1       5.594   3.737  15.903  0.00  0.00    +0.000 A 
ATOM      9  C   UNL     1       5.972   4.912  15.251  0.00  0.00    +0.000 A 
ATOM     10 CL   UNL     1       7.048   4.821  13.908  0.00  0.00    +0.000 Cl
ATOM     11  C   UNL     1       5.495   6.150  15.665  0.00  0.00    +0.000 A 
ATOM     12  C   UNL     1       4.622   6.241  16.759  0.00  0.00    +0.000 A 
ATOM     13  C   UNL     1       4.211   5.073  17.442  0.00  0.00    +0.000 A 
ATOM     14  C   UNL     1       3.331   4.797  18.554  0.00  0.00    +0.000 A 
ATOM     15  H   UNL     1       4.354   1.889  17.676  0.00  0.00    +0.000 HD
ENDROOT
BRANCH   1  16
ATOM     16  C   UNL     1       2.428   7.099  19.383  0.00  0.00    +0.000 C 
BRANCH  16  17
ATOM     17  N   UNL     1       1.832   7.639  18.160  0.00  0.00    +0.000 NA
ATOM     18  H   UNL     1       2.134   7.073  17.369  0.00  0.00    +0.000 HD
BRANCH  17  20
ATOM     19  C   UNL     1       0.998   9.915  18.301  0.00  0.00    +0.000 C 
ATOM     20  C   UNL     1       2.179   9.037  17.920  0.00  0.00    +0.000 C 
ENDBRANCH  17  20
ENDBRANCH  16  17
ENDBRANCH   1  16
TORSDOF 3
ENDMDL
MODEL 3
REMARK VINA RESULT:      -7.0      3.237      6.615
REMARK  Name = 
REMARK  4 active torsions:
REMARK  status: ('A' for Active; 'I' for Inactive)
REMARK    1  A    between atoms: C_1  and  C_2
REMARK    2  A    between atoms: C_2  and  N_3
REMARK    3  A    between atoms: N_3  and  C_4
REMARK    4  A    between atoms: C_4  and  C_5
REMARK                            x       y       z     vdW  Elec       q    Type
REMARK                         _______ _______ _______ _____ _____    ______ ____
ROOT
ATOM      1  C   UNL     1       5.814   4.889  15.939  0.00  0.00    +0.000 A 
ATOM      2  C   UNL     1       7.005   5.644  15.810  0.00  0.00    +0.000 A 
ATOM      3  C   UNL     1       7.552   6.349  16.877  0.00  0.00    +0.000 A 
ATOM      4  C   UNL     1       6.939   6.330  18.125  0.00  0.00    +0.000 A 
ATOM      5  C   UNL     1       5.757   5.592  18.258  0.00  0.00    +0.000 A 
ATOM      6  N   UNL     1       4.967   5.427  19.369  0.00  0.00    +0.000 N 
ATOM      7  C   UNL     1       3.868   4.657  19.086  0.00  0.00    +0.000 A 
ATOM      8  C   UNL     1       2.808   4.274  19.918  0.00  0.00    +0.000 A 
ATOM      9  C   UNL     1       1.796   3.494  19.356  0.00  0.00    +0.000 A 
ATOM     10 CL   UNL     1       0.466   3.005  20.338  0.00  0.00    +0.000 Cl
ATOM     11  C   UNL     1       1.841   3.108  18.022  0.00  0.00    +0.000 A 
ATOM     12  C   UNL     1       2.919   3.495  17.212  0.00  0.00    +0.000 A 
ATOM     13  C   UNL     1       3.960   4.290  17.743  0.00  0.00    +0.000 A 
ATOM     14  C   UNL     1       5.170   4.876  17.211  0.00  0.00    +0.000 A 
ATOM     15  H   UNL     1       5.159   5.838  20.269  0.00  0.00    +0.000 HD
ENDROOT
BRANCH   1  16
ATOM     16  C   UNL     1       5.311   4.157  14.708  0.00  0.00    +0.000 C 
BRANCH  16  17
ATOM     17  N   UNL     1       6.338   3.406  13.985  0.00  0.00    +0.000 NA
ATOM     18  H   UNL     1       7.251   3.643  14.370  0.00  0.00    +0.000 HD
BRANCH  17  20
ATOM     19  C   UNL     1       4.965   3.319  11.984  0.00  0.00    +0.000 C 
ATOM     20  C   UNL     1       6.334   3.664  12.548  0.00  0.00    +0.000 C 
ENDBRANCH  17  20
ENDBRANCH  16  17
ENDBRANCH   1  16
TORSDOF 3
ENDMDL
MODEL 4
REMARK VINA RESULT:      -6.9      3.573      6.085
REMARK  Name = 
REMARK  4 active torsions:
REMARK  status: ('A' for Active; 'I' for Inactive)
REMARK    1  A    between atoms: C_1  and  C_2
REMARK    2  A    between atoms: C_2  and  N_3
REMARK    3  A    between atoms: N_3  and  C_4
REMARK    4  A    between atoms: C_4  and  C_5
REMARK                            x       y       z     vdW  Elec       q    Type
REMARK                         _______ _______ _______ _____ _____    ______ ____
ROOT
ATOM      1  C   UNL     1       6.166   6.014  16.900  0.00  0.00    +0.000 A 
ATOM      2  C   UNL     1       7.373   6.654  17.271  0.00  0.00    +0.000 A 
ATOM      3  C   UNL     1       7.932   6.500  18.536  0.00  0.00    +0.000 A 
ATOM      4  C   UNL     1       7.316   5.697  19.487  0.00  0.00    +0.000 A 
ATOM      5  C   UNL     1       6.118   5.067  19.131  0.00  0.00    +0.000 A 
ATOM      6  N   UNL     1       5.321   4.243  19.886  0.00  0.00    +0.000 N 
ATOM      7  C   UNL     1       4.207   3.854  19.189  0.00  0.00    +0.000 A 
ATOM      8  C   UNL     1       3.136   3.045  19.594  0.00  0.00    +0.000 A 
ATOM      9  C   UNL     1       2.109   2.826  18.675  0.00  0.00    +0.000 A 
ATOM     10 CL   UNL     1       0.767   1.845  19.130  0.00  0.00    +0.000 Cl
ATOM     11  C   UNL     1       2.150   3.385  17.403  0.00  0.00    +0.000 A 
ATOM     12  C   UNL     1       3.238   4.181  17.017  0.00  0.00    +0.000 A 
ATOM     13  C   UNL     1       4.295   4.431  17.921  0.00  0.00    +0.000 A 
ATOM     14  C   UNL     1       5.518   5.200  17.875  0.00  0.00    +0.000 A 
ATOM     15  H   UNL     1       5.520   3.977  20.838  0.00  0.00    +0.000 HD
ENDROOT
BRANCH   1  16
ATOM     16  C   UNL     1       5.651   6.251  15.492  0.00  0.00    +0.000 C 
BRANCH  16  17
ATOM     17  N   UNL     1       6.361   5.507  14.451  0.00  0.00    +0.000 NA
ATOM     18  H   UNL     1       6.201   5.962  13.554  0.00  0.00    +0.000 HD
BRANCH  17  20
ATOM     19  C   UNL     1       6.158   3.615  12.942  0.00  0.00    +0.000 C 
ATOM     20  C   UNL     1       5.955   4.107  14.366  0.00  0.00    +0.000 C 
ENDBRANCH  17  20
ENDBRANCH  16  17
ENDBRANCH   1  16
TORSDOF 3
ENDMDL
MODEL 5
REMARK VINA RESULT:      -6.9      2.633      4.989
REMARK  Name = 
REMARK  4 active torsions:
REMARK  status: ('A' for Active; 'I' for Inactive)
REMARK    1  A    between atoms: C_1  and  C_2
REMARK    2  A    between atoms: C_2  and  N_3
REMARK    3  A    between atoms: N_3  and  C_4
REMARK    4  A    between atoms: C_4  and  C_5
REMARK                            x       y       z     vdW  Elec       q    Type
REMARK                         _______ _______ _______ _____ _____    ______ ____
ROOT
ATOM      1  C   UNL     1       3.465   3.790  19.035  0.00  0.00    +0.000 A 
ATOM      2  C   UNL     1       3.457   2.641  19.863  0.00  0.00    +0.000 A 
ATOM      3  C   UNL     1       2.835   2.631  21.107  0.00  0.00    +0.000 A 
ATOM      4  C   UNL     1       2.187   3.766  21.582  0.00  0.00    +0.000 A 
ATOM      5  C   UNL     1       2.196   4.908  20.773  0.00  0.00    +0.000 A 
ATOM      6  N   UNL     1       1.644   6.140  21.017  0.00  0.00    +0.000 N 
ATOM      7  C   UNL     1       1.901   7.012  19.991  0.00  0.00    +0.000 A 
ATOM      8  C   UNL     1       1.546   8.362  19.855  0.00  0.00    +0.000 A 
ATOM      9  C   UNL     1       1.962   9.025  18.700  0.00  0.00    +0.000 A 
ATOM     10 CL   UNL     1       1.557  10.687  18.491  0.00  0.00    +0.000 Cl
ATOM     11  C   UNL     1       2.696   8.369  17.719  0.00  0.00    +0.000 A 
ATOM     12  C   UNL     1       3.029   7.016  17.872  0.00  0.00    +0.000 A 
ATOM     13  C   UNL     1       2.631   6.311  19.031  0.00  0.00    +0.000 A 
ATOM     14  C   UNL     1       2.815   4.963  19.520  0.00  0.00    +0.000 A 
ATOM     15  H   UNL     1       1.135   6.379  21.854  0.00  0.00    +0.000 HD
ENDROOT
BRANCH   1  16
ATOM     16  C   UNL     1       4.171   3.684  17.696  0.00  0.00    +0.000 C 
BRANCH  16  17
ATOM     17  N   UNL     1       5.632   3.708  17.774  0.00  0.00    +0.000 NA
ATOM     18  H   UNL     1       5.919   3.315  18.669  0.00  0.00    +0.000 HD
BRANCH  17  20
ATOM     19  C   UNL     1       6.711   5.522  18.975  0.00  0.00    +0.000 C 
ATOM     20  C   UNL     1       6.194   5.047  17.627  0.00  0.00    +0.000 C 
ENDBRANCH  17  20
ENDBRANCH  16  17
ENDBRANCH   1  16
TORSDOF 3
ENDMDL
MODEL 6
REMARK VINA RESULT:      -6.9      2.773      4.714
REMARK  Name = 
REMARK  4 active torsions:
REMARK  status: ('A' for Active; 'I' for Inactive)
REMARK    1  A    between atoms: C_1  and  C_2
REMARK    2  A    between atoms: C_2  and  N_3
REMARK    3  A    between atoms: N_3  and  C_4
REMARK    4  A    between atoms: C_4  and  C_5
REMARK                            x       y       z     vdW  Elec       q    Type
REMARK                         _______ _______ _______ _____ _____    ______ ____
ROOT
ATOM      1  C   UNL     1       4.378   6.426  17.057  0.00  0.00    +0.000 A 
ATOM      2  C   UNL     1       5.187   6.449  15.895  0.00  0.00    +0.000 A 
ATOM      3  C   UNL     1       5.673   5.283  15.310  0.00  0.00    +0.000 A 
ATOM      4  C   UNL     1       5.368   4.041  15.852  0.00  0.00    +0.000 A 
ATOM      5  C   UNL     1       4.575   4.010  17.005  0.00  0.00    +0.000 A 
ATOM      6  N   UNL     1       4.150   2.923  17.729  0.00  0.00    +0.000 N 
ATOM      7  C   UNL     1       3.417   3.310  18.820  0.00  0.00    +0.000 A 
ATOM      8  C   UNL     1       2.827   2.528  19.823  0.00  0.00    +0.000 A 
ATOM      9  C   UNL     1       2.144   3.193  20.843  0.00  0.00    +0.000 A 
ATOM     10 CL   UNL     1       1.410   2.275  22.103  0.00  0.00    +0.000 Cl
ATOM     11  C   UNL     1       2.050   4.580  20.860  0.00  0.00    +0.000 A 
ATOM     12  C   UNL     1       2.639   5.340  19.839  0.00  0.00    +0.000 A 
ATOM     13  C   UNL     1       3.343   4.703  18.792  0.00  0.00    +0.000 A 
ATOM     14  C   UNL     1       4.073   5.156  17.630  0.00  0.00    +0.000 A 
ATOM     15  H   UNL     1       4.370   1.967  17.499  0.00  0.00    +0.000 HD
ENDROOT
BRANCH   1  16
ATOM     16  C   UNL     1       3.902   7.758  17.606  0.00  0.00    +0.000 C 
BRANCH  16  17
ATOM     17  N   UNL     1       2.469   8.008  17.442  0.00  0.00    +0.000 NA
ATOM     18  H   UNL     1       2.325   8.553  16.593  0.00  0.00    +0.000 HD
BRANCH  17  20
ATOM     19  C   UNL     1       0.829   9.686  18.068  0.00  0.00    +0.000 C 
ATOM     20  C   UNL     1       1.874   8.707  18.577  0.00  0.00    +0.000 C 
ENDBRANCH  17  20
ENDBRANCH  16  17
ENDBRANCH   1  16
TORSDOF 3
ENDMDL
MODEL 7
REMARK VINA RESULT:      -6.8      1.602      3.663
REMARK  Name = 
REMARK  4 active torsions:
REMARK  status: ('A' for Active; 'I' for Inactive)
REMARK    1  A    between atoms: C_1  and  C_2
REMARK    2  A    between atoms: C_2  and  N_3
REMARK    3  A    between atoms: N_3  and  C_4
REMARK    4  A    between atoms: C_4  and  C_5
REMARK                            x       y       z     vdW  Elec       q    Type
REMARK                         _______ _______ _______ _____ _____    ______ ____
ROOT
ATOM      1  C   UNL     1       2.556   5.025  19.977  0.00  0.00    +0.000 A 
ATOM      2  C   UNL     1       1.739   5.824  20.813  0.00  0.00    +0.000 A 
ATOM      3  C   UNL     1       1.530   7.177  20.566  0.00  0.00    +0.000 A 
ATOM      4  C   UNL     1       2.120   7.795  19.470  0.00  0.00    +0.000 A 
ATOM      5  C   UNL     1       2.935   7.013  18.643  0.00  0.00    +0.000 A 
ATOM      6  N   UNL     1       3.631   7.386  17.520  0.00  0.00    +0.000 N 
ATOM      7  C   UNL     1       4.346   6.335  17.007  0.00  0.00    +0.000 A 
ATOM      8  C   UNL     1       5.201   6.293  15.897  0.00  0.00    +0.000 A 
ATOM      9  C   UNL     1       5.825   5.078  15.609  0.00  0.00    +0.000 A 
ATOM     10 CL   UNL     1       6.892   4.979  14.260  0.00  0.00    +0.000 Cl
ATOM     11  C   UNL     1       5.602   3.951  16.391  0.00  0.00    +0.000 A 
ATOM     12  C   UNL     1       4.733   4.015  17.490  0.00  0.00    +0.000 A 
ATOM     13  C   UNL     1       4.086   5.229  17.818  0.00  0.00    +0.000 A 
ATOM     14  C   UNL     1       3.178   5.653  18.859  0.00  0.00    +0.000 A 
ATOM     15  H   UNL     1       3.633   8.318  17.136  0.00  0.00    +0.000 HD
ENDROOT
BRANCH   1  16
ATOM     16  C   UNL     1       2.709   3.560  20.341  0.00  0.00    +0.000 C 
BRANCH  16  17
ATOM     17  N   UNL     1       1.465   2.791  20.311  0.00  0.00    +0.000 NA
ATOM     18  H   UNL     1       1.623   1.891  20.761  0.00  0.00    +0.000 HD
BRANCH  17  20
ATOM     19  C   UNL     1       2.046   1.954  18.107  0.00  0.00    +0.000 C 
ATOM     20  C   UNL     1       0.953   2.577  18.960  0.00  0.00    +0.000 C 
ENDBRANCH  17  20
ENDBRANCH  16  17
ENDBRANCH   1  16
TORSDOF 3
ENDMDL
MODEL 8
REMARK VINA RESULT:      -6.8      2.856      5.835
REMARK  Name = 
REMARK  4 active torsions:
REMARK  status: ('A' for Active; 'I' for Inactive)
REMARK    1  A    between atoms: C_1  and  C_2
REMARK    2  A    between atoms: C_2  and  N_3
REMARK    3  A    between atoms: N_3  and  C_4
REMARK    4  A    between atoms: C_4  and  C_5
REMARK                            x       y       z     vdW  Elec       q    Type
REMARK                         _______ _______ _______ _____ _____    ______ ____
ROOT
ATOM      1  C   UNL     1       4.637   4.221  17.747  0.00  0.00    +0.000 A 
ATOM      2  C   UNL     1       5.452   4.105  16.595  0.00  0.00    +0.000 A 
ATOM      3  C   UNL     1       5.653   5.170  15.722  0.00  0.00    +0.000 A 
ATOM      4  C   UNL     1       5.055   6.402  15.961  0.00  0.00    +0.000 A 
ATOM      5  C   UNL     1       4.242   6.522  17.094  0.00  0.00    +0.000 A 
ATOM      6  N   UNL     1       3.540   7.616  17.538  0.00  0.00    +0.000 N 
ATOM      7  C   UNL     1       2.830   7.322  18.673  0.00  0.00    +0.000 A 
ATOM      8  C   UNL     1       1.971   8.136  19.425  0.00  0.00    +0.000 A 
ATOM      9  C   UNL     1       1.354   7.567  20.539  0.00  0.00    +0.000 A 
ATOM     10 CL   UNL     1       0.282   8.525  21.490  0.00  0.00    +0.000 Cl
ATOM     11  C   UNL     1       1.586   6.243  20.892  0.00  0.00    +0.000 A 
ATOM     12  C   UNL     1       2.458   5.451  20.131  0.00  0.00    +0.000 A 
ATOM     13  C   UNL     1       3.099   5.991  18.992  0.00  0.00    +0.000 A 
ATOM     14  C   UNL     1       4.007   5.477  17.993  0.00  0.00    +0.000 A 
ATOM     15  H   UNL     1       3.532   8.511  17.075  0.00  0.00    +0.000 HD
ENDROOT
BRANCH   1  16
ATOM     16  C   UNL     1       4.493   2.995  18.630  0.00  0.00    +0.000 C 
BRANCH  16  17
ATOM     17  N   UNL     1       3.751   1.890  18.021  0.00  0.00    +0.000 NA
ATOM     18  H   UNL     1       4.243   1.587  17.182  0.00  0.00    +0.000 HD
BRANCH  17  20
ATOM     19  C   UNL     1       1.518   2.170  18.933  0.00  0.00    +0.000 C 
ATOM     20  C   UNL     1       2.375   2.241  17.680  0.00  0.00    +0.000 C 
ENDBRANCH  17  20
ENDBRANCH  16  17
ENDBRANCH   1  16
TORSDOF 3
ENDMDL
MODEL 9
REMARK VINA RESULT:      -6.7      3.263      5.687
REMARK  Name = 
REMARK  4 active torsions:
REMARK  status: ('A' for Active; 'I' for Inactive)
REMARK    1  A    between atoms: C_1  and  C_2
REMARK    2  A    between atoms: C_2  and  N_3
REMARK    3  A    between atoms: N_3  and  C_4
REMARK    4  A    between atoms: C_4  and  C_5
REMARK                            x       y       z     vdW  Elec       q    Type
REMARK                         _______ _______ _______ _____ _____    ______ ____
ROOT
ATOM      1  C   UNL     1       6.111   5.936  16.785  0.00  0.00    +0.000 A 
ATOM      2  C   UNL     1       6.912   5.696  15.642  0.00  0.00    +0.000 A 
ATOM      3  C   UNL     1       6.838   4.506  14.925  0.00  0.00    +0.000 A 
ATOM      4  C   UNL     1       5.957   3.502  15.311  0.00  0.00    +0.000 A 
ATOM      5  C   UNL     1       5.167   3.729  16.444  0.00  0.00    +0.000 A 
ATOM      6  N   UNL     1       4.240   2.901  17.028  0.00  0.00    +0.000 N 
ATOM      7  C   UNL     1       3.701   3.473  18.151  0.00  0.00    +0.000 A 
ATOM      8  C   UNL     1       2.752   2.961  19.046  0.00  0.00    +0.000 A 
ATOM      9  C   UNL     1       2.392   3.760  20.132  0.00  0.00    +0.000 A 
ATOM     10 CL   UNL     1       1.235   3.170  21.265  0.00  0.00    +0.000 Cl
ATOM     11  C   UNL     1       2.951   5.019  20.315  0.00  0.00    +0.000 A 
ATOM     12  C   UNL     1       3.891   5.515  19.399  0.00  0.00    +0.000 A 
ATOM     13  C   UNL     1       4.285   4.733  18.290  0.00  0.00    +0.000 A 
ATOM     14  C   UNL     1       5.215   4.907  17.198  0.00  0.00    +0.000 A 
ATOM     15  H   UNL     1       4.005   1.983  16.686  0.00  0.00    +0.000 HD
ENDROOT
BRANCH   1  16
ATOM     16  C   UNL     1       6.274   7.272  17.486  0.00  0.00    +0.000 C 
BRANCH  16  17
ATOM     17  N   UNL     1       7.504   7.990  17.151  0.00  0.00    +0.000 NA
ATOM     18  H   UNL     1       8.048   7.425  16.500  0.00  0.00    +0.000 HD
BRANCH  17  20
ATOM     19  C   UNL     1       8.673   9.786  18.294  0.00  0.00    +0.000 C 
ATOM     20  C   UNL     1       8.321   8.307  18.319  0.00  0.00    +0.000 C 
ENDBRANCH  17  20
ENDBRANCH  16  17
ENDBRANCH   1  16
TORSDOF 3
ENDMDL
