MODEL 1
REMARK VINA RESULT:      -8.4      0.000      0.000
REMARK  Name = 
REMARK  6 active torsions:
REMARK  status: ('A' for Active; 'I' for Inactive)
REMARK    1  A    between atoms: O_1  and  C_2
REMARK    2  A    between atoms: C_4  and  C_5
REMARK    3  A    between atoms: C_8  and  C_9
REMARK    4  A    between atoms: C_12  and  O_13
REMARK    5  A    between atoms: O_13  and  C_14
REMARK    6  A    between atoms: C_26  and  O_27
REMARK                            x       y       z     vdW  Elec       q    Type
REMARK                         _______ _______ _______ _____ _____    ______ ____
ROOT
ATOM      1  C   UNL     1       1.737   7.271  20.443  0.00  0.00    +0.000 A 
ATOM      2  N   UNL     1       1.544   6.046  20.892  0.00  0.00    +0.000 NA
ATOM      3  C   UNL     1       2.425   5.287  20.172  0.00  0.00    +0.000 A 
ATOM      4  C   UNL     1       3.147   6.078  19.306  0.00  0.00    +0.000 A 
ATOM      5  O   UNL     1       2.710   7.372  19.482  0.00  0.00    +0.000 OA
ENDROOT
BRANCH   1   8
ATOM      6  C   UNL     1      -0.169   9.897  22.395  0.00  0.00    +0.000 A 
ATOM      7  C   UNL     1       0.493   8.702  22.099  0.00  0.00    +0.000 A 
ATOM      8  C   UNL     1       1.013   8.485  20.814  0.00  0.00    +0.000 A 
ATOM      9  C   UNL     1       0.853   9.486  19.840  0.00  0.00    +0.000 A 
ATOM     10  C   UNL     1       0.198  10.680  20.142  0.00  0.00    +0.000 A 
ATOM     11 BR   UNL     1       0.029  11.999  18.792  0.00  0.00    +0.000 Br
ATOM     12  C   UNL     1      -0.316  10.890  21.421  0.00  0.00    +0.000 A 
BRANCH   6  13
ATOM     13  O   UNL     1      -0.674  10.119  23.646  0.00  0.00    +0.000 OA
ATOM     14  H   UNL     1      -1.641  10.096  23.617  0.00  0.00    +0.000 HD
ENDBRANCH   6  13
BRANCH  12  15
ATOM     15  O   UNL     1      -0.957  12.053  21.749  0.00  0.00    +0.000 OA
ATOM     16  H   UNL     1      -1.804  12.070  21.269  0.00  0.00    +0.000 HD
ENDBRANCH  12  15
ENDBRANCH   1   8
BRANCH   4  17
ATOM     17  C   UNL     1       4.152   5.829  18.283  0.00  0.00    +0.000 A 
ATOM     18  C   UNL     1       4.246   6.668  17.160  0.00  0.00    +0.000 A 
ATOM     19  C   UNL     1       5.284   6.519  16.235  0.00  0.00    +0.000 A 
ATOM     20  C   UNL     1       6.241   5.525  16.419  0.00  0.00    +0.000 A 
ATOM     21  C   UNL     1       6.096   4.613  17.465  0.00  0.00    +0.000 A 
ATOM     22  C   UNL     1       5.075   4.781  18.406  0.00  0.00    +0.000 A 
BRANCH  20  23
ATOM     23  O   UNL     1       7.274   5.486  15.513  0.00  0.00    +0.000 OA
BRANCH  23  24
ATOM     24  C   UNL     1       7.065   4.898  14.282  0.00  0.00    +0.000 A 
ATOM     25  C   UNL     1       7.843   5.392  13.232  0.00  0.00    +0.000 A 
ATOM     26  C   UNL     1       7.688   4.878  11.942  0.00  0.00    +0.000 A 
ATOM     27  C   UNL     1       6.756   3.869  11.700  0.00  0.00    +0.000 A 
ATOM     28  C   UNL     1       6.005   3.349  12.751  0.00  0.00    +0.000 A 
ATOM     29  C   UNL     1       6.180   3.842  14.045  0.00  0.00    +0.000 A 
ENDBRANCH  23  24
ENDBRANCH  20  23
ENDBRANCH   4  17
TORSDOF 6
ENDMDL
MODEL 2
REMARK VINA RESULT:      -8.4      3.762     10.731
REMARK  Name = 
REMARK  6 active torsions:
REMARK  status: ('A' for Active; 'I' for Inactive)
REMARK    1  A    between atoms: O_1  and  C_2
REMARK    2  A    between atoms: C_4  and  C_5
REMARK    3  A    between atoms: C_8  and  C_9
REMARK    4  A    between atoms: C_12  and  O_13
REMARK    5  A    between atoms: O_13  and  C_14
REMARK    6  A    between atoms: C_26  and  O_27
REMARK                            x       y       z     vdW  Elec       q    Type
REMARK                         _______ _______ _______ _____ _____    ______ ____
ROOT
ATOM      1  C   UNL     1       2.313   7.439  19.003  0.00  0.00    +0.000 A 
ATOM      2  N   UNL     1       2.111   8.177  17.928  0.00  0.00    +0.000 NA
ATOM      3  C   UNL     1       1.455   9.279  18.403  0.00  0.00    +0.000 A 
ATOM      4  C   UNL     1       1.287   9.190  19.767  0.00  0.00    +0.000 A 
ATOM      5  O   UNL     1       1.849   7.999  20.166  0.00  0.00    +0.000 OA
ENDROOT
BRANCH   1   8
ATOM      6  C   UNL     1       4.530   4.429  18.396  0.00  0.00    +0.000 A 
ATOM      7  C   UNL     1       3.983   5.708  18.257  0.00  0.00    +0.000 A 
ATOM      8  C   UNL     1       2.916   6.110  19.076  0.00  0.00    +0.000 A 
ATOM      9  C   UNL     1       2.414   5.205  20.027  0.00  0.00    +0.000 A 
ATOM     10  C   UNL     1       2.968   3.932  20.167  0.00  0.00    +0.000 A 
ATOM     11 BR   UNL     1       2.259   2.763  21.478  0.00  0.00    +0.000 Br
ATOM     12  C   UNL     1       4.028   3.540  19.350  0.00  0.00    +0.000 A 
BRANCH   6  13
ATOM     13  O   UNL     1       5.572   4.032  17.605  0.00  0.00    +0.000 OA
ATOM     14  H   UNL     1       6.300   3.714  18.158  0.00  0.00    +0.000 HD
ENDBRANCH   6  13
BRANCH  12  15
ATOM     15  O   UNL     1       4.596   2.301  19.467  0.00  0.00    +0.000 OA
ATOM     16  H   UNL     1       5.317   2.365  20.118  0.00  0.00    +0.000 HD
ENDBRANCH  12  15
ENDBRANCH   1   8
BRANCH   4  17
ATOM     17  C   UNL     1       0.631  10.009  20.776  0.00  0.00    +0.000 A 
ATOM     18  C   UNL     1       0.658  11.411  20.679  0.00  0.00    +0.000 A 
ATOM     19  C   UNL     1      -0.072  12.208  21.567  0.00  0.00    +0.000 A 
ATOM     20  C   UNL     1      -0.836  11.612  22.567  0.00  0.00    +0.000 A 
ATOM     21  C   UNL     1      -0.781  10.230  22.746  0.00  0.00    +0.000 A 
ATOM     22  C   UNL     1      -0.075   9.433  21.840  0.00  0.00    +0.000 A 
BRANCH  20  23
ATOM     23  O   UNL     1      -1.587  12.453  23.354  0.00  0.00    +0.000 OA
BRANCH  23  24
ATOM     24  C   UNL     1      -2.934  12.594  23.091  0.00  0.00    +0.000 A 
ATOM     25  C   UNL     1      -3.770  12.657  24.208  0.00  0.00    +0.000 A 
ATOM     26  C   UNL     1      -5.152  12.776  24.044  0.00  0.00    +0.000 A 
ATOM     27  C   UNL     1      -5.701  12.832  22.763  0.00  0.00    +0.000 A 
ATOM     28  C   UNL     1      -4.868  12.806  21.647  0.00  0.00    +0.000 A 
ATOM     29  C   UNL     1      -3.485  12.717  21.811  0.00  0.00    +0.000 A 
ENDBRANCH  23  24
ENDBRANCH  20  23
ENDBRANCH   4  17
TORSDOF 6
ENDMDL
MODEL 3
REMARK VINA RESULT:      -8.4      3.856     10.618
REMARK  Name = 
REMARK  6 active torsions:
REMARK  status: ('A' for Active; 'I' for Inactive)
REMARK    1  A    between atoms: O_1  and  C_2
REMARK    2  A    between atoms: C_4  and  C_5
REMARK    3  A    between atoms: C_8  and  C_9
REMARK    4  A    between atoms: C_12  and  O_13
REMARK    5  A    between atoms: O_13  and  C_14
REMARK    6  A    between atoms: C_26  and  O_27
REMARK                            x       y       z     vdW  Elec       q    Type
REMARK                         _______ _______ _______ _____ _____    ______ ____
ROOT
ATOM      1  C   UNL     1       2.587   7.255  18.879  0.00  0.00    +0.000 A 
ATOM      2  N   UNL     1       2.508   7.924  17.744  0.00  0.00    +0.000 NA
ATOM      3  C   UNL     1       1.782   9.037  18.066  0.00  0.00    +0.000 A 
ATOM      4  C   UNL     1       1.446   9.024  19.403  0.00  0.00    +0.000 A 
ATOM      5  O   UNL     1       1.973   7.871  19.939  0.00  0.00    +0.000 OA
ENDROOT
BRANCH   1   8
ATOM      6  C   UNL     1       4.964   4.308  18.821  0.00  0.00    +0.000 A 
ATOM      7  C   UNL     1       4.424   5.567  18.542  0.00  0.00    +0.000 A 
ATOM      8  C   UNL     1       3.196   5.947  19.107  0.00  0.00    +0.000 A 
ATOM      9  C   UNL     1       2.527   5.041  19.948  0.00  0.00    +0.000 A 
ATOM     10  C   UNL     1       3.074   3.788  20.228  0.00  0.00    +0.000 A 
ATOM     11 BR   UNL     1       2.134   2.616  21.383  0.00  0.00    +0.000 Br
ATOM     12  C   UNL     1       4.294   3.417  19.665  0.00  0.00    +0.000 A 
BRANCH   6  13
ATOM     13  O   UNL     1       6.162   3.932  18.279  0.00  0.00    +0.000 OA
ATOM     14  H   UNL     1       6.219   4.242  17.364  0.00  0.00    +0.000 HD
ENDBRANCH   6  13
BRANCH  12  15
ATOM     15  O   UNL     1       4.858   2.198  19.926  0.00  0.00    +0.000 OA
ATOM     16  H   UNL     1       4.643   1.606  19.184  0.00  0.00    +0.000 HD
ENDBRANCH  12  15
ENDBRANCH   1   8
BRANCH   4  17
ATOM     17  C   UNL     1       0.657   9.885  20.271  0.00  0.00    +0.000 A 
ATOM     18  C   UNL     1      -0.013   9.349  21.384  0.00  0.00    +0.000 A 
ATOM     19  C   UNL     1      -0.669  10.180  22.297  0.00  0.00    +0.000 A 
ATOM     20  C   UNL     1      -0.667  11.559  22.108  0.00  0.00    +0.000 A 
ATOM     21  C   UNL     1      -0.105  12.095  20.949  0.00  0.00    +0.000 A 
ATOM     22  C   UNL     1       0.576  11.267  20.052  0.00  0.00    +0.000 A 
BRANCH  20  23
ATOM     23  O   UNL     1      -1.266  12.318  23.086  0.00  0.00    +0.000 OA
BRANCH  23  24
ATOM     24  C   UNL     1      -2.631  12.509  23.046  0.00  0.00    +0.000 A 
ATOM     25  C   UNL     1      -3.175  12.754  21.783  0.00  0.00    +0.000 A 
ATOM     26  C   UNL     1      -4.545  12.983  21.641  0.00  0.00    +0.000 A 
ATOM     27  C   UNL     1      -5.376  12.966  22.762  0.00  0.00    +0.000 A 
ATOM     28  C   UNL     1      -4.843  12.686  24.018  0.00  0.00    +0.000 A 
ATOM     29  C   UNL     1      -3.478  12.428  24.156  0.00  0.00    +0.000 A 
ENDBRANCH  23  24
ENDBRANCH  20  23
ENDBRANCH   4  17
TORSDOF 6
ENDMDL
MODEL 4
REMARK VINA RESULT:      -8.3      4.700      6.903
REMARK  Name = 
REMARK  6 active torsions:
REMARK  status: ('A' for Active; 'I' for Inactive)
REMARK    1  A    between atoms: O_1  and  C_2
REMARK    2  A    between atoms: C_4  and  C_5
REMARK    3  A    between atoms: C_8  and  C_9
REMARK    4  A    between atoms: C_12  and  O_13
REMARK    5  A    between atoms: O_13  and  C_14
REMARK    6  A    between atoms: C_26  and  O_27
REMARK                            x       y       z     vdW  Elec       q    Type
REMARK                         _______ _______ _______ _____ _____    ______ ____
ROOT
ATOM      1  C   UNL     1      -2.060  12.021  19.163  0.00  0.00    +0.000 A 
ATOM      2  N   UNL     1      -1.196  13.014  19.074  0.00  0.00    +0.000 NA
ATOM      3  C   UNL     1       0.021  12.390  19.029  0.00  0.00    +0.000 A 
ATOM      4  C   UNL     1      -0.137  11.022  19.077  0.00  0.00    +0.000 A 
ATOM      5  O   UNL     1      -1.488  10.774  19.157  0.00  0.00    +0.000 OA
ENDROOT
BRANCH   1   8
ATOM      6  C   UNL     1      -5.787  11.673  18.589  0.00  0.00    +0.000 A 
ATOM      7  C   UNL     1      -4.409  11.577  18.373  0.00  0.00    +0.000 A 
ATOM      8  C   UNL     1      -3.511  12.108  19.312  0.00  0.00    +0.000 A 
ATOM      9  C   UNL     1      -4.024  12.735  20.461  0.00  0.00    +0.000 A 
ATOM     10  C   UNL     1      -5.400  12.822  20.675  0.00  0.00    +0.000 A 
ATOM     11 BR   UNL     1      -6.030  13.663  22.251  0.00  0.00    +0.000 Br
ATOM     12  C   UNL     1      -6.286  12.291  19.738  0.00  0.00    +0.000 A 
BRANCH   6  13
ATOM     13  O   UNL     1      -6.668  11.154  17.681  0.00  0.00    +0.000 OA
ATOM     14  H   UNL     1      -7.295  10.569  18.131  0.00  0.00    +0.000 HD
ENDBRANCH   6  13
BRANCH  12  15
ATOM     15  O   UNL     1      -7.640  12.356  19.923  0.00  0.00    +0.000 OA
ATOM     16  H   UNL     1      -7.977  13.101  19.396  0.00  0.00    +0.000 HD
ENDBRANCH  12  15
ENDBRANCH   1   8
BRANCH   4  17
ATOM     17  C   UNL     1       0.771   9.885  19.120  0.00  0.00    +0.000 A 
ATOM     18  C   UNL     1       0.984   9.192  20.324  0.00  0.00    +0.000 A 
ATOM     19  C   UNL     1       1.752   8.024  20.356  0.00  0.00    +0.000 A 
ATOM     20  C   UNL     1       2.322   7.536  19.183  0.00  0.00    +0.000 A 
ATOM     21  C   UNL     1       2.214   8.274  18.004  0.00  0.00    +0.000 A 
ATOM     22  C   UNL     1       1.422   9.425  17.968  0.00  0.00    +0.000 A 
BRANCH  20  23
ATOM     23  O   UNL     1       2.999   6.342  19.275  0.00  0.00    +0.000 OA
BRANCH  23  24
ATOM     24  C   UNL     1       2.282   5.173  19.419  0.00  0.00    +0.000 A 
ATOM     25  C   UNL     1       1.976   4.497  18.236  0.00  0.00    +0.000 A 
ATOM     26  C   UNL     1       1.233   3.315  18.275  0.00  0.00    +0.000 A 
ATOM     27  C   UNL     1       0.794   2.806  19.497  0.00  0.00    +0.000 A 
ATOM     28  C   UNL     1       1.128   3.458  20.682  0.00  0.00    +0.000 A 
ATOM     29  C   UNL     1       1.896   4.623  20.645  0.00  0.00    +0.000 A 
ENDBRANCH  23  24
ENDBRANCH  20  23
ENDBRANCH   4  17
TORSDOF 6
ENDMDL
MODEL 5
REMARK VINA RESULT:      -8.3      3.800     10.657
REMARK  Name = 
REMARK  6 active torsions:
REMARK  status: ('A' for Active; 'I' for Inactive)
REMARK    1  A    between atoms: O_1  and  C_2
REMARK    2  A    between atoms: C_4  and  C_5
REMARK    3  A    between atoms: C_8  and  C_9
REMARK    4  A    between atoms: C_12  and  O_13
REMARK    5  A    between atoms: O_13  and  C_14
REMARK    6  A    between atoms: C_26  and  O_27
REMARK                            x       y       z     vdW  Elec       q    Type
REMARK                         _______ _______ _______ _____ _____    ______ ____
ROOT
ATOM      1  C   UNL     1       2.576   7.264  18.619  0.00  0.00    +0.000 A 
ATOM      2  N   UNL     1       2.617   8.148  17.641  0.00  0.00    +0.000 NA
ATOM      3  C   UNL     1       1.939   9.226  18.140  0.00  0.00    +0.000 A 
ATOM      4  C   UNL     1       1.511   8.974  19.425  0.00  0.00    +0.000 A 
ATOM      5  O   UNL     1       1.929   7.702  19.747  0.00  0.00    +0.000 OA
ENDROOT
BRANCH   1   8
ATOM      6  C   UNL     1       4.882   4.261  18.571  0.00  0.00    +0.000 A 
ATOM      7  C   UNL     1       4.458   5.592  18.550  0.00  0.00    +0.000 A 
ATOM      8  C   UNL     1       3.089   5.895  18.612  0.00  0.00    +0.000 A 
ATOM      9  C   UNL     1       2.163   4.841  18.693  0.00  0.00    +0.000 A 
ATOM     10  C   UNL     1       2.592   3.513  18.721  0.00  0.00    +0.000 A 
ATOM     11 BR   UNL     1       1.299   2.135  18.847  0.00  0.00    +0.000 Br
ATOM     12  C   UNL     1       3.954   3.219  18.660  0.00  0.00    +0.000 A 
BRANCH   6  13
ATOM     13  O   UNL     1       6.214   3.957  18.516  0.00  0.00    +0.000 OA
ATOM     14  H   UNL     1       6.612   4.071  19.391  0.00  0.00    +0.000 HD
ENDBRANCH   6  13
BRANCH  12  15
ATOM     15  O   UNL     1       4.405   1.928  18.692  0.00  0.00    +0.000 OA
ATOM     16  H   UNL     1       4.462   1.610  17.773  0.00  0.00    +0.000 HD
ENDBRANCH  12  15
ENDBRANCH   1   8
BRANCH   4  17
ATOM     17  C   UNL     1       0.718   9.702  20.404  0.00  0.00    +0.000 A 
ATOM     18  C   UNL     1       0.175   9.034  21.516  0.00  0.00    +0.000 A 
ATOM     19  C   UNL     1      -0.480   9.741  22.529  0.00  0.00    +0.000 A 
ATOM     20  C   UNL     1      -0.605  11.125  22.443  0.00  0.00    +0.000 A 
ATOM     21  C   UNL     1      -0.172  11.785  21.293  0.00  0.00    +0.000 A 
ATOM     22  C   UNL     1       0.509  11.083  20.294  0.00  0.00    +0.000 A 
BRANCH  20  23
ATOM     23  O   UNL     1      -1.192  11.760  23.511  0.00  0.00    +0.000 OA
BRANCH  23  24
ATOM     24  C   UNL     1      -2.160  12.714  23.275  0.00  0.00    +0.000 A 
ATOM     25  C   UNL     1      -1.819  14.025  23.616  0.00  0.00    +0.000 A 
ATOM     26  C   UNL     1      -2.741  15.059  23.436  0.00  0.00    +0.000 A 
ATOM     27  C   UNL     1      -4.005  14.785  22.914  0.00  0.00    +0.000 A 
ATOM     28  C   UNL     1      -4.336  13.485  22.538  0.00  0.00    +0.000 A 
ATOM     29  C   UNL     1      -3.405  12.456  22.691  0.00  0.00    +0.000 A 
ENDBRANCH  23  24
ENDBRANCH  20  23
ENDBRANCH   4  17
TORSDOF 6
ENDMDL
MODEL 6
REMARK VINA RESULT:      -8.2      3.711      5.300
REMARK  Name = 
REMARK  6 active torsions:
REMARK  status: ('A' for Active; 'I' for Inactive)
REMARK    1  A    between atoms: O_1  and  C_2
REMARK    2  A    between atoms: C_4  and  C_5
REMARK    3  A    between atoms: C_8  and  C_9
REMARK    4  A    between atoms: C_12  and  O_13
REMARK    5  A    between atoms: O_13  and  C_14
REMARK    6  A    between atoms: C_26  and  O_27
REMARK                            x       y       z     vdW  Elec       q    Type
REMARK                         _______ _______ _______ _____ _____    ______ ____
ROOT
ATOM      1  C   UNL     1      -0.824  11.002  18.421  0.00  0.00    +0.000 A 
ATOM      2  N   UNL     1      -0.035  11.862  19.038  0.00  0.00    +0.000 NA
ATOM      3  C   UNL     1       1.105  11.148  19.282  0.00  0.00    +0.000 A 
ATOM      4  C   UNL     1       0.987   9.866  18.792  0.00  0.00    +0.000 A 
ATOM      5  O   UNL     1      -0.263   9.766  18.224  0.00  0.00    +0.000 OA
ENDROOT
BRANCH   1   8
ATOM      6  C   UNL     1      -4.009  11.019  16.374  0.00  0.00    +0.000 A 
ATOM      7  C   UNL     1      -2.669  10.818  16.719  0.00  0.00    +0.000 A 
ATOM      8  C   UNL     1      -2.204  11.205  17.985  0.00  0.00    +0.000 A 
ATOM      9  C   UNL     1      -3.104  11.797  18.887  0.00  0.00    +0.000 A 
ATOM     10  C   UNL     1      -4.442  11.989  18.540  0.00  0.00    +0.000 A 
ATOM     11 BR   UNL     1      -5.612  12.776  19.805  0.00  0.00    +0.000 Br
ATOM     12  C   UNL     1      -4.898  11.601  17.281  0.00  0.00    +0.000 A 
BRANCH   6  13
ATOM     13  O   UNL     1      -4.472  10.640  15.144  0.00  0.00    +0.000 OA
ATOM     14  H   UNL     1      -5.438  10.692  15.128  0.00  0.00    +0.000 HD
ENDBRANCH   6  13
BRANCH  12  15
ATOM     15  O   UNL     1      -6.206  11.772  16.914  0.00  0.00    +0.000 OA
ATOM     16  H   UNL     1      -6.313  11.403  16.020  0.00  0.00    +0.000 HD
ENDBRANCH  12  15
ENDBRANCH   1   8
BRANCH   4  17
ATOM     17  C   UNL     1       1.828   8.678  18.811  0.00  0.00    +0.000 A 
ATOM     18  C   UNL     1       1.797   7.805  19.911  0.00  0.00    +0.000 A 
ATOM     19  C   UNL     1       2.502   6.596  19.890  0.00  0.00    +0.000 A 
ATOM     20  C   UNL     1       3.249   6.248  18.769  0.00  0.00    +0.000 A 
ATOM     21  C   UNL     1       3.381   7.156  17.718  0.00  0.00    +0.000 A 
ATOM     22  C   UNL     1       2.653   8.350  17.727  0.00  0.00    +0.000 A 
BRANCH  20  23
ATOM     23  O   UNL     1       3.853   5.012  18.788  0.00  0.00    +0.000 OA
BRANCH  23  24
ATOM     24  C   UNL     1       4.914   4.771  17.941  0.00  0.00    +0.000 A 
ATOM     25  C   UNL     1       6.181   5.062  18.453  0.00  0.00    +0.000 A 
ATOM     26  C   UNL     1       7.317   4.873  17.663  0.00  0.00    +0.000 A 
ATOM     27  C   UNL     1       7.190   4.393  16.360  0.00  0.00    +0.000 A 
ATOM     28  C   UNL     1       5.932   4.067  15.858  0.00  0.00    +0.000 A 
ATOM     29  C   UNL     1       4.799   4.228  16.657  0.00  0.00    +0.000 A 
ENDBRANCH  23  24
ENDBRANCH  20  23
ENDBRANCH   4  17
TORSDOF 6
ENDMDL
MODEL 7
REMARK VINA RESULT:      -8.1      3.438     10.608
REMARK  Name = 
REMARK  6 active torsions:
REMARK  status: ('A' for Active; 'I' for Inactive)
REMARK    1  A    between atoms: O_1  and  C_2
REMARK    2  A    between atoms: C_4  and  C_5
REMARK    3  A    between atoms: C_8  and  C_9
REMARK    4  A    between atoms: C_12  and  O_13
REMARK    5  A    between atoms: O_13  and  C_14
REMARK    6  A    between atoms: C_26  and  O_27
REMARK                            x       y       z     vdW  Elec       q    Type
REMARK                         _______ _______ _______ _____ _____    ______ ____
ROOT
ATOM      1  C   UNL     1       2.528   7.348  18.303  0.00  0.00    +0.000 A 
ATOM      2  N   UNL     1       2.545   8.337  17.430  0.00  0.00    +0.000 NA
ATOM      3  C   UNL     1       1.911   9.361  18.078  0.00  0.00    +0.000 A 
ATOM      4  C   UNL     1       1.534   8.970  19.345  0.00  0.00    +0.000 A 
ATOM      5  O   UNL     1       1.938   7.664  19.500  0.00  0.00    +0.000 OA
ENDROOT
BRANCH   1   8
ATOM      6  C   UNL     1       4.714   4.352  17.541  0.00  0.00    +0.000 A 
ATOM      7  C   UNL     1       4.309   5.683  17.674  0.00  0.00    +0.000 A 
ATOM      8  C   UNL     1       3.010   5.981  18.117  0.00  0.00    +0.000 A 
ATOM      9  C   UNL     1       2.136   4.922  18.418  0.00  0.00    +0.000 A 
ATOM     10  C   UNL     1       2.549   3.595  18.290  0.00  0.00    +0.000 A 
ATOM     11 BR   UNL     1       1.332   2.211  18.727  0.00  0.00    +0.000 Br
ATOM     12  C   UNL     1       3.840   3.306  17.850  0.00  0.00    +0.000 A 
BRANCH   6  13
ATOM     13  O   UNL     1       5.979   4.053  17.115  0.00  0.00    +0.000 OA
ATOM     14  H   UNL     1       6.625   4.569  17.618  0.00  0.00    +0.000 HD
ENDBRANCH   6  13
BRANCH  12  15
ATOM     15  O   UNL     1       4.276   2.015  17.721  0.00  0.00    +0.000 OA
ATOM     16  H   UNL     1       3.895   1.499  18.453  0.00  0.00    +0.000 HD
ENDBRANCH  12  15
ENDBRANCH   1   8
BRANCH   4  17
ATOM     17  C   UNL     1       0.798   9.594  20.435  0.00  0.00    +0.000 A 
ATOM     18  C   UNL     1      -0.025  10.707  20.190  0.00  0.00    +0.000 A 
ATOM     19  C   UNL     1      -0.835  11.238  21.199  0.00  0.00    +0.000 A 
ATOM     20  C   UNL     1      -0.829  10.665  22.468  0.00  0.00    +0.000 A 
ATOM     21  C   UNL     1       0.066   9.634  22.755  0.00  0.00    +0.000 A 
ATOM     22  C   UNL     1       0.853   9.085  21.739  0.00  0.00    +0.000 A 
BRANCH  20  23
ATOM     23  O   UNL     1      -1.706  11.191  23.387  0.00  0.00    +0.000 OA
BRANCH  23  24
ATOM     24  C   UNL     1      -2.168  12.479  23.214  0.00  0.00    +0.000 A 
ATOM     25  C   UNL     1      -3.517  12.602  22.876  0.00  0.00    +0.000 A 
ATOM     26  C   UNL     1      -4.073  13.864  22.657  0.00  0.00    +0.000 A 
ATOM     27  C   UNL     1      -3.281  15.006  22.775  0.00  0.00    +0.000 A 
ATOM     28  C   UNL     1      -1.944  14.890  23.147  0.00  0.00    +0.000 A 
ATOM     29  C   UNL     1      -1.395  13.631  23.395  0.00  0.00    +0.000 A 
ENDBRANCH  23  24
ENDBRANCH  20  23
ENDBRANCH   4  17
TORSDOF 6
ENDMDL
MODEL 8
REMARK VINA RESULT:      -8.1      3.722     10.685
REMARK  Name = 
REMARK  6 active torsions:
REMARK  status: ('A' for Active; 'I' for Inactive)
REMARK    1  A    between atoms: O_1  and  C_2
REMARK    2  A    between atoms: C_4  and  C_5
REMARK    3  A    between atoms: C_8  and  C_9
REMARK    4  A    between atoms: C_12  and  O_13
REMARK    5  A    between atoms: O_13  and  C_14
REMARK    6  A    between atoms: C_26  and  O_27
REMARK                            x       y       z     vdW  Elec       q    Type
REMARK                         _______ _______ _______ _____ _____    ______ ____
ROOT
ATOM      1  C   UNL     1       2.222   7.570  18.939  0.00  0.00    +0.000 A 
ATOM      2  N   UNL     1       2.042   8.366  17.903  0.00  0.00    +0.000 NA
ATOM      3  C   UNL     1       1.393   9.450  18.427  0.00  0.00    +0.000 A 
ATOM      4  C   UNL     1       1.205   9.291  19.783  0.00  0.00    +0.000 A 
ATOM      5  O   UNL     1       1.749   8.073  20.124  0.00  0.00    +0.000 OA
ENDROOT
BRANCH   1   8
ATOM      6  C   UNL     1       3.146   4.028  19.909  0.00  0.00    +0.000 A 
ATOM      7  C   UNL     1       2.574   5.302  19.974  0.00  0.00    +0.000 A 
ATOM      8  C   UNL     1       2.808   6.231  18.949  0.00  0.00    +0.000 A 
ATOM      9  C   UNL     1       3.625   5.858  17.868  0.00  0.00    +0.000 A 
ATOM     10  C   UNL     1       4.189   4.582  17.805  0.00  0.00    +0.000 A 
ATOM     11 BR   UNL     1       5.268   4.131  16.314  0.00  0.00    +0.000 Br
ATOM     12  C   UNL     1       3.951   3.664  18.826  0.00  0.00    +0.000 A 
BRANCH   6  13
ATOM     13  O   UNL     1       2.919   3.115  20.901  0.00  0.00    +0.000 OA
ATOM     14  H   UNL     1       3.679   3.086  21.499  0.00  0.00    +0.000 HD
ENDBRANCH   6  13
BRANCH  12  15
ATOM     15  O   UNL     1       4.485   2.404  18.789  0.00  0.00    +0.000 OA
ATOM     16  H   UNL     1       4.343   2.048  17.894  0.00  0.00    +0.000 HD
ENDBRANCH  12  15
ENDBRANCH   1   8
BRANCH   4  17
ATOM     17  C   UNL     1       0.546  10.062  20.826  0.00  0.00    +0.000 A 
ATOM     18  C   UNL     1       0.525  11.467  20.763  0.00  0.00    +0.000 A 
ATOM     19  C   UNL     1      -0.211  12.216  21.687  0.00  0.00    +0.000 A 
ATOM     20  C   UNL     1      -0.932  11.572  22.687  0.00  0.00    +0.000 A 
ATOM     21  C   UNL     1      -0.828  10.188  22.830  0.00  0.00    +0.000 A 
ATOM     22  C   UNL     1      -0.117   9.437  21.889  0.00  0.00    +0.000 A 
BRANCH  20  23
ATOM     23  O   UNL     1      -1.693  12.368  23.511  0.00  0.00    +0.000 OA
BRANCH  23  24
ATOM     24  C   UNL     1      -3.029  12.552  23.220  0.00  0.00    +0.000 A 
ATOM     25  C   UNL     1      -3.893  12.580  24.316  0.00  0.00    +0.000 A 
ATOM     26  C   UNL     1      -5.267  12.739  24.122  0.00  0.00    +0.000 A 
ATOM     27  C   UNL     1      -5.780  12.871  22.832  0.00  0.00    +0.000 A 
ATOM     28  C   UNL     1      -4.917  12.880  21.738  0.00  0.00    +0.000 A 
ATOM     29  C   UNL     1      -3.541  12.751  21.934  0.00  0.00    +0.000 A 
ENDBRANCH  23  24
ENDBRANCH  20  23
ENDBRANCH   4  17
TORSDOF 6
ENDMDL
MODEL 9
REMARK VINA RESULT:      -8.1      2.887     10.116
REMARK  Name = 
REMARK  6 active torsions:
REMARK  status: ('A' for Active; 'I' for Inactive)
REMARK    1  A    between atoms: O_1  and  C_2
REMARK    2  A    between atoms: C_4  and  C_5
REMARK    3  A    between atoms: C_8  and  C_9
REMARK    4  A    between atoms: C_12  and  O_13
REMARK    5  A    between atoms: O_13  and  C_14
REMARK    6  A    between atoms: C_26  and  O_27
REMARK                            x       y       z     vdW  Elec       q    Type
REMARK                         _______ _______ _______ _____ _____    ______ ____
ROOT
ATOM      1  C   UNL     1       3.363   5.687  19.361  0.00  0.00    +0.000 A 
ATOM      2  N   UNL     1       2.558   4.844  19.980  0.00  0.00    +0.000 NA
ATOM      3  C   UNL     1       1.618   5.649  20.560  0.00  0.00    +0.000 A 
ATOM      4  C   UNL     1       1.868   6.972  20.267  0.00  0.00    +0.000 A 
ATOM      5  O   UNL     1       2.997   7.003  19.480  0.00  0.00    +0.000 OA
ENDROOT
BRANCH   1   8
ATOM      6  C   UNL     1       6.980   4.992  18.485  0.00  0.00    +0.000 A 
ATOM      7  C   UNL     1       5.850   5.315  19.241  0.00  0.00    +0.000 A 
ATOM      8  C   UNL     1       4.589   5.380  18.628  0.00  0.00    +0.000 A 
ATOM      9  C   UNL     1       4.490   5.119  17.250  0.00  0.00    +0.000 A 
ATOM     10  C   UNL     1       5.621   4.790  16.502  0.00  0.00    +0.000 A 
ATOM     11 BR   UNL     1       5.422   4.432  14.652  0.00  0.00    +0.000 Br
ATOM     12  C   UNL     1       6.870   4.726  17.117  0.00  0.00    +0.000 A 
BRANCH   6  13
ATOM     13  O   UNL     1       8.212   4.921  19.075  0.00  0.00    +0.000 OA
ATOM     14  H   UNL     1       8.720   5.718  18.869  0.00  0.00    +0.000 HD
ENDBRANCH   6  13
BRANCH  12  15
ATOM     15  O   UNL     1       7.996   4.401  16.411  0.00  0.00    +0.000 OA
ATOM     16  H   UNL     1       8.732   4.930  16.765  0.00  0.00    +0.000 HD
ENDBRANCH  12  15
ENDBRANCH   1   8
BRANCH   4  17
ATOM     17  C   UNL     1       1.260   8.239  20.644  0.00  0.00    +0.000 A 
ATOM     18  C   UNL     1       0.845   8.461  21.968  0.00  0.00    +0.000 A 
ATOM     19  C   UNL     1       0.377   9.715  22.374  0.00  0.00    +0.000 A 
ATOM     20  C   UNL     1       0.315  10.763  21.460  0.00  0.00    +0.000 A 
ATOM     21  C   UNL     1       0.615  10.527  20.118  0.00  0.00    +0.000 A 
ATOM     22  C   UNL     1       1.110   9.282  19.719  0.00  0.00    +0.000 A 
BRANCH  20  23
ATOM     23  O   UNL     1      -0.082  11.986  21.948  0.00  0.00    +0.000 OA
BRANCH  23  24
ATOM     24  C   UNL     1      -1.425  12.300  21.960  0.00  0.00    +0.000 A 
ATOM     25  C   UNL     1      -2.056  12.227  23.204  0.00  0.00    +0.000 A 
ATOM     26  C   UNL     1      -3.421  12.504  23.315  0.00  0.00    +0.000 A 
ATOM     27  C   UNL     1      -4.157  12.855  22.184  0.00  0.00    +0.000 A 
ATOM     28  C   UNL     1      -3.523  12.964  20.948  0.00  0.00    +0.000 A 
ATOM     29  C   UNL     1      -2.154  12.716  20.841  0.00  0.00    +0.000 A 
ENDBRANCH  23  24
ENDBRANCH  20  23
ENDBRANCH   4  17
TORSDOF 6
ENDMDL
