MODEL 1
REMARK VINA RESULT:      -8.4      0.000      0.000
REMARK  Name = 
REMARK  11 active torsions:
REMARK  status: ('A' for Active; 'I' for Inactive)
REMARK    1  A    between atoms: C_1  and  C_2
REMARK    2  A    between atoms: C_2  and  O_3
REMARK    3  A    between atoms: O_3  and  C_4
REMARK    4  A    between atoms: C_6  and  C_7
REMARK    5  A    between atoms: N_8  and  N_9
REMARK    6  A    between atoms: N_9  and  S_10
REMARK    7  A    between atoms: S_10  and  C_13
REMARK    8  A    between atoms: C_21  and  O_22
REMARK    9  A    between atoms: O_22  and  S_23
REMARK   10  A    between atoms: S_23  and  C_26
REMARK   11  A    between atoms: C_29  and  C_30
REMARK                            x       y       z     vdW  Elec       q    Type
REMARK                         _______ _______ _______ _____ _____    ______ ____
ROOT
ATOM      1  C   UNL     1       9.473  12.559  18.540  0.00  0.00    +0.000 A 
ATOM      2  C   UNL     1       8.875  11.480  17.850  0.00  0.00    +0.000 A 
ATOM      3  C   UNL     1       8.740  10.230  18.456  0.00  0.00    +0.000 A 
ATOM      4  C   UNL     1       9.239  10.031  19.736  0.00  0.00    +0.000 A 
ATOM      5  C   UNL     1       9.838  11.084  20.418  0.00  0.00    +0.000 A 
ATOM      6  C   UNL     1       9.913  12.374  19.862  0.00  0.00    +0.000 A 
ENDROOT
BRANCH   3   7
ATOM      7  C   UNL     1       8.028   9.127  17.783  0.00  0.00    +0.000 C 
ATOM      8  N   UNL     1       8.190   7.906  18.186  0.00  0.00    +0.000 NA
BRANCH   8   9
ATOM      9  N   UNL     1       7.401   6.912  17.531  0.00  0.00    +0.000 N 
ATOM     10  H   UNL     1       6.558   7.137  17.001  0.00  0.00    +0.000 HD
BRANCH   9  11
ATOM     11  S   UNL     1       7.398   5.325  18.155  0.00  0.00    +0.000 S 
ATOM     12  O   UNL     1       8.037   4.420  17.223  0.00  0.00    +0.000 OA
ATOM     13  O   UNL     1       7.856   5.431  19.527  0.00  0.00    +0.000 OA
BRANCH  11  14
ATOM     14  C   UNL     1       5.662   4.963  18.193  0.00  0.00    +0.000 A 
ATOM     15  C   UNL     1       4.895   5.382  19.292  0.00  0.00    +0.000 A 
ATOM     16  C   UNL     1       3.524   5.125  19.305  0.00  0.00    +0.000 A 
ATOM     17  C   UNL     1       2.922   4.460  18.233  0.00  0.00    +0.000 A 
ATOM     18  C   UNL     1       3.688   4.057  17.138  0.00  0.00    +0.000 A 
ATOM     19  C   UNL     1       5.059   4.312  17.112  0.00  0.00    +0.000 A 
ENDBRANCH  11  14
ENDBRANCH   9  11
ENDBRANCH   8   9
ENDBRANCH   3   7
BRANCH   1  20
ATOM     20  O   UNL     1       9.456  13.711  17.806  0.00  0.00    +0.000 OA
BRANCH  20  22
ATOM     21  C   UNL     1      11.504  13.428  16.619  0.00  0.00    +0.000 C 
ATOM     22  C   UNL     1      10.693  14.357  17.520  0.00  0.00    +0.000 C 
ENDBRANCH  20  22
ENDBRANCH   1  20
BRANCH   6  23
ATOM     23  O   UNL     1      10.357  13.439  20.623  0.00  0.00    +0.000 OA
BRANCH  23  24
ATOM     24  S   UNL     1       9.253  14.353  21.431  0.00  0.00    +0.000 S 
ATOM     25  O   UNL     1       9.972  15.226  22.342  0.00  0.00    +0.000 OA
ATOM     26  O   UNL     1       8.297  14.888  20.479  0.00  0.00    +0.000 OA
BRANCH  24  27
ATOM     27  C   UNL     1       8.310  13.272  22.466  0.00  0.00    +0.000 A 
ATOM     28  C   UNL     1       8.914  12.464  23.424  0.00  0.00    +0.000 A 
ATOM     29  C   UNL     1       8.100  11.748  24.306  0.00  0.00    +0.000 A 
ATOM     30  C   UNL     1       6.701  11.836  24.221  0.00  0.00    +0.000 A 
ATOM     31  C   UNL     1       5.818  11.150  25.222  0.00  0.00    +0.000 C 
ATOM     32  C   UNL     1       6.114  12.606  23.211  0.00  0.00    +0.000 A 
ATOM     33  C   UNL     1       6.917  13.319  22.329  0.00  0.00    +0.000 A 
ENDBRANCH  24  27
ENDBRANCH  23  24
ENDBRANCH   6  23
TORSDOF 9
ENDMDL
MODEL 2
REMARK VINA RESULT:      -8.3      6.899      8.150
REMARK  Name = 
REMARK  11 active torsions:
REMARK  status: ('A' for Active; 'I' for Inactive)
REMARK    1  A    between atoms: C_1  and  C_2
REMARK    2  A    between atoms: C_2  and  O_3
REMARK    3  A    between atoms: O_3  and  C_4
REMARK    4  A    between atoms: C_6  and  C_7
REMARK    5  A    between atoms: N_8  and  N_9
REMARK    6  A    between atoms: N_9  and  S_10
REMARK    7  A    between atoms: S_10  and  C_13
REMARK    8  A    between atoms: C_21  and  O_22
REMARK    9  A    between atoms: O_22  and  S_23
REMARK   10  A    between atoms: S_23  and  C_26
REMARK   11  A    between atoms: C_29  and  C_30
REMARK                            x       y       z     vdW  Elec       q    Type
REMARK                         _______ _______ _______ _____ _____    ______ ____
ROOT
ATOM      1  C   UNL     1       0.774   9.520  18.928  0.00  0.00    +0.000 A 
ATOM      2  C   UNL     1       1.671   8.963  17.989  0.00  0.00    +0.000 A 
ATOM      3  C   UNL     1       2.464   7.863  18.322  0.00  0.00    +0.000 A 
ATOM      4  C   UNL     1       2.403   7.338  19.606  0.00  0.00    +0.000 A 
ATOM      5  C   UNL     1       1.532   7.887  20.539  0.00  0.00    +0.000 A 
ATOM      6  C   UNL     1       0.664   8.943  20.204  0.00  0.00    +0.000 A 
ENDROOT
BRANCH   3   7
ATOM      7  C   UNL     1       3.328   7.211  17.319  0.00  0.00    +0.000 C 
ATOM      8  N   UNL     1       4.497   6.768  17.658  0.00  0.00    +0.000 NA
BRANCH   8   9
ATOM      9  N   UNL     1       5.232   6.080  16.645  0.00  0.00    +0.000 N 
ATOM     10  H   UNL     1       5.141   6.298  15.652  0.00  0.00    +0.000 HD
BRANCH   9  11
ATOM     11  S   UNL     1       5.724   4.473  16.937  0.00  0.00    +0.000 S 
ATOM     12  O   UNL     1       5.800   3.739  15.690  0.00  0.00    +0.000 OA
ATOM     13  O   UNL     1       6.867   4.557  17.825  0.00  0.00    +0.000 OA
BRANCH  11  14
ATOM     14  C   UNL     1       4.356   3.849  17.876  0.00  0.00    +0.000 A 
ATOM     15  C   UNL     1       3.176   3.473  17.210  0.00  0.00    +0.000 A 
ATOM     16  C   UNL     1       2.113   2.952  17.947  0.00  0.00    +0.000 A 
ATOM     17  C   UNL     1       2.222   2.802  19.332  0.00  0.00    +0.000 A 
ATOM     18  C   UNL     1       3.401   3.165  19.986  0.00  0.00    +0.000 A 
ATOM     19  C   UNL     1       4.473   3.684  19.259  0.00  0.00    +0.000 A 
ENDBRANCH  11  14
ENDBRANCH   9  11
ENDBRANCH   8   9
ENDBRANCH   3   7
BRANCH   1  20
ATOM     20  O   UNL     1       0.045  10.545  18.396  0.00  0.00    +0.000 OA
BRANCH  20  22
ATOM     21  C   UNL     1      -1.969  11.593  17.669  0.00  0.00    +0.000 C 
ATOM     22  C   UNL     1      -1.248  10.262  17.869  0.00  0.00    +0.000 C 
ENDBRANCH  20  22
ENDBRANCH   1  20
BRANCH   6  23
ATOM     23  O   UNL     1      -0.310   9.357  21.094  0.00  0.00    +0.000 OA
BRANCH  23  24
ATOM     24  S   UNL     1       0.040  10.575  22.144  0.00  0.00    +0.000 S 
ATOM     25  O   UNL     1       0.149  10.004  23.475  0.00  0.00    +0.000 OA
ATOM     26  O   UNL     1       1.108  11.385  21.587  0.00  0.00    +0.000 OA
BRANCH  24  27
ATOM     27  C   UNL     1      -1.361  11.652  22.211  0.00  0.00    +0.000 A 
ATOM     28  C   UNL     1      -2.235  11.651  23.293  0.00  0.00    +0.000 A 
ATOM     29  C   UNL     1      -3.232  12.628  23.350  0.00  0.00    +0.000 A 
ATOM     30  C   UNL     1      -3.357  13.586  22.330  0.00  0.00    +0.000 A 
ATOM     31  C   UNL     1      -4.360  14.697  22.426  0.00  0.00    +0.000 C 
ATOM     32  C   UNL     1      -2.507  13.530  21.219  0.00  0.00    +0.000 A 
ATOM     33  C   UNL     1      -1.514  12.560  21.156  0.00  0.00    +0.000 A 
ENDBRANCH  24  27
ENDBRANCH  23  24
ENDBRANCH   6  23
TORSDOF 9
ENDMDL
MODEL 3
REMARK VINA RESULT:      -8.2      2.904      9.253
REMARK  Name = 
REMARK  11 active torsions:
REMARK  status: ('A' for Active; 'I' for Inactive)
REMARK    1  A    between atoms: C_1  and  C_2
REMARK    2  A    between atoms: C_2  and  O_3
REMARK    3  A    between atoms: O_3  and  C_4
REMARK    4  A    between atoms: C_6  and  C_7
REMARK    5  A    between atoms: N_8  and  N_9
REMARK    6  A    between atoms: N_9  and  S_10
REMARK    7  A    between atoms: S_10  and  C_13
REMARK    8  A    between atoms: C_21  and  O_22
REMARK    9  A    between atoms: O_22  and  S_23
REMARK   10  A    between atoms: S_23  and  C_26
REMARK   11  A    between atoms: C_29  and  C_30
REMARK                            x       y       z     vdW  Elec       q    Type
REMARK                         _______ _______ _______ _____ _____    ______ ____
ROOT
ATOM      1  C   UNL     1       6.128   5.543  16.500  0.00  0.00    +0.000 A 
ATOM      2  C   UNL     1       7.026   6.553  16.911  0.00  0.00    +0.000 A 
ATOM      3  C   UNL     1       7.441   6.644  18.241  0.00  0.00    +0.000 A 
ATOM      4  C   UNL     1       6.930   5.759  19.180  0.00  0.00    +0.000 A 
ATOM      5  C   UNL     1       6.037   4.769  18.786  0.00  0.00    +0.000 A 
ATOM      6  C   UNL     1       5.667   4.605  17.438  0.00  0.00    +0.000 A 
ENDROOT
BRANCH   3   7
ATOM      7  C   UNL     1       8.455   7.630  18.660  0.00  0.00    +0.000 C 
ATOM      8  N   UNL     1       8.263   8.893  18.444  0.00  0.00    +0.000 NA
BRANCH   8   9
ATOM      9  N   UNL     1       9.256   9.783  18.955  0.00  0.00    +0.000 N 
ATOM     10  H   UNL     1       9.571   9.760  19.926  0.00  0.00    +0.000 HD
BRANCH   9  11
ATOM     11  S   UNL     1       9.440  11.313  18.225  0.00  0.00    +0.000 S 
ATOM     12  O   UNL     1      10.719  11.396  17.551  0.00  0.00    +0.000 OA
ATOM     13  O   UNL     1       8.203  11.571  17.513  0.00  0.00    +0.000 OA
BRANCH  11  14
ATOM     14  C   UNL     1       9.479  12.379  19.642  0.00  0.00    +0.000 A 
ATOM     15  C   UNL     1       9.432  11.816  20.929  0.00  0.00    +0.000 A 
ATOM     16  C   UNL     1       9.496  12.654  22.042  0.00  0.00    +0.000 A 
ATOM     17  C   UNL     1       9.608  14.037  21.877  0.00  0.00    +0.000 A 
ATOM     18  C   UNL     1       9.667  14.589  20.597  0.00  0.00    +0.000 A 
ATOM     19  C   UNL     1       9.608  13.761  19.475  0.00  0.00    +0.000 A 
ENDBRANCH  11  14
ENDBRANCH   9  11
ENDBRANCH   8   9
ENDBRANCH   3   7
BRANCH   1  20
ATOM     20  O   UNL     1       5.894   5.581  15.154  0.00  0.00    +0.000 OA
BRANCH  20  22
ATOM     21  C   UNL     1       6.010   3.788  13.587  0.00  0.00    +0.000 C 
ATOM     22  C   UNL     1       6.793   4.899  14.285  0.00  0.00    +0.000 C 
ENDBRANCH  20  22
ENDBRANCH   1  20
BRANCH   6  23
ATOM     23  O   UNL     1       4.915   3.512  17.047  0.00  0.00    +0.000 OA
BRANCH  23  24
ATOM     24  S   UNL     1       3.418   3.305  17.697  0.00  0.00    +0.000 S 
ATOM     25  O   UNL     1       2.462   3.220  16.607  0.00  0.00    +0.000 OA
ATOM     26  O   UNL     1       3.486   2.272  18.716  0.00  0.00    +0.000 OA
BRANCH  24  27
ATOM     27  C   UNL     1       2.998   4.782  18.573  0.00  0.00    +0.000 A 
ATOM     28  C   UNL     1       2.928   6.017  17.936  0.00  0.00    +0.000 A 
ATOM     29  C   UNL     1       2.446   7.115  18.653  0.00  0.00    +0.000 A 
ATOM     30  C   UNL     1       2.050   6.978  19.993  0.00  0.00    +0.000 A 
ATOM     31  C   UNL     1       1.441   8.125  20.744  0.00  0.00    +0.000 C 
ATOM     32  C   UNL     1       2.188   5.741  20.634  0.00  0.00    +0.000 A 
ATOM     33  C   UNL     1       2.667   4.645  19.927  0.00  0.00    +0.000 A 
ENDBRANCH  24  27
ENDBRANCH  23  24
ENDBRANCH   6  23
TORSDOF 9
ENDMDL
MODEL 4
REMARK VINA RESULT:      -8.2      7.336     10.849
REMARK  Name = 
REMARK  11 active torsions:
REMARK  status: ('A' for Active; 'I' for Inactive)
REMARK    1  A    between atoms: C_1  and  C_2
REMARK    2  A    between atoms: C_2  and  O_3
REMARK    3  A    between atoms: O_3  and  C_4
REMARK    4  A    between atoms: C_6  and  C_7
REMARK    5  A    between atoms: N_8  and  N_9
REMARK    6  A    between atoms: N_9  and  S_10
REMARK    7  A    between atoms: S_10  and  C_13
REMARK    8  A    between atoms: C_21  and  O_22
REMARK    9  A    between atoms: O_22  and  S_23
REMARK   10  A    between atoms: S_23  and  C_26
REMARK   11  A    between atoms: C_29  and  C_30
REMARK                            x       y       z     vdW  Elec       q    Type
REMARK                         _______ _______ _______ _____ _____    ______ ____
ROOT
ATOM      1  C   UNL     1       2.549   6.382  19.810  0.00  0.00    +0.000 A 
ATOM      2  C   UNL     1       1.719   7.508  19.606  0.00  0.00    +0.000 A 
ATOM      3  C   UNL     1       1.945   8.380  18.539  0.00  0.00    +0.000 A 
ATOM      4  C   UNL     1       3.027   8.164  17.695  0.00  0.00    +0.000 A 
ATOM      5  C   UNL     1       3.854   7.066  17.895  0.00  0.00    +0.000 A 
ATOM      6  C   UNL     1       3.600   6.127  18.912  0.00  0.00    +0.000 A 
ENDROOT
BRANCH   3   7
ATOM      7  C   UNL     1       1.026   9.499  18.258  0.00  0.00    +0.000 C 
ATOM      8  N   UNL     1       1.310  10.693  18.670  0.00  0.00    +0.000 NA
BRANCH   8   9
ATOM      9  N   UNL     1       0.406  11.730  18.284  0.00  0.00    +0.000 N 
ATOM     10  H   UNL     1       0.697  12.539  17.733  0.00  0.00    +0.000 HD
BRANCH   9  11
ATOM     11  S   UNL     1      -0.954  12.039  19.266  0.00  0.00    +0.000 S 
ATOM     12  O   UNL     1      -0.982  11.121  20.385  0.00  0.00    +0.000 OA
ATOM     13  O   UNL     1      -0.981  13.474  19.475  0.00  0.00    +0.000 OA
BRANCH  11  14
ATOM     14  C   UNL     1      -2.284  11.630  18.167  0.00  0.00    +0.000 A 
ATOM     15  C   UNL     1      -3.611  11.786  18.602  0.00  0.00    +0.000 A 
ATOM     16  C   UNL     1      -4.656  11.495  17.725  0.00  0.00    +0.000 A 
ATOM     17  C   UNL     1      -4.383  11.055  16.427  0.00  0.00    +0.000 A 
ATOM     18  C   UNL     1      -3.063  10.913  15.996  0.00  0.00    +0.000 A 
ATOM     19  C   UNL     1      -2.010  11.205  16.863  0.00  0.00    +0.000 A 
ENDBRANCH  11  14
ENDBRANCH   9  11
ENDBRANCH   8   9
ENDBRANCH   3   7
BRANCH   1  20
ATOM     20  O   UNL     1       2.129   5.619  20.862  0.00  0.00    +0.000 OA
BRANCH  20  22
ATOM     21  C   UNL     1       1.831   3.312  21.386  0.00  0.00    +0.000 C 
ATOM     22  C   UNL     1       1.282   4.503  20.602  0.00  0.00    +0.000 C 
ENDBRANCH  20  22
ENDBRANCH   1  20
BRANCH   6  23
ATOM     23  O   UNL     1       4.333   4.957  18.984  0.00  0.00    +0.000 OA
BRANCH  23  24
ATOM     24  S   UNL     1       4.049   3.773  17.878  0.00  0.00    +0.000 S 
ATOM     25  O   UNL     1       4.455   2.506  18.461  0.00  0.00    +0.000 OA
ATOM     26  O   UNL     1       2.718   3.952  17.327  0.00  0.00    +0.000 OA
BRANCH  24  27
ATOM     27  C   UNL     1       5.146   4.032  16.514  0.00  0.00    +0.000 A 
ATOM     28  C   UNL     1       4.732   3.857  15.198  0.00  0.00    +0.000 A 
ATOM     29  C   UNL     1       5.601   4.222  14.167  0.00  0.00    +0.000 A 
ATOM     30  C   UNL     1       6.872   4.747  14.454  0.00  0.00    +0.000 A 
ATOM     31  C   UNL     1       7.777   5.232  13.361  0.00  0.00    +0.000 C 
ATOM     32  C   UNL     1       7.293   4.855  15.785  0.00  0.00    +0.000 A 
ATOM     33  C   UNL     1       6.433   4.493  16.815  0.00  0.00    +0.000 A 
ENDBRANCH  24  27
ENDBRANCH  23  24
ENDBRANCH   6  23
TORSDOF 9
ENDMDL
MODEL 5
REMARK VINA RESULT:      -8.1      7.061     11.156
REMARK  Name = 
REMARK  11 active torsions:
REMARK  status: ('A' for Active; 'I' for Inactive)
REMARK    1  A    between atoms: C_1  and  C_2
REMARK    2  A    between atoms: C_2  and  O_3
REMARK    3  A    between atoms: O_3  and  C_4
REMARK    4  A    between atoms: C_6  and  C_7
REMARK    5  A    between atoms: N_8  and  N_9
REMARK    6  A    between atoms: N_9  and  S_10
REMARK    7  A    between atoms: S_10  and  C_13
REMARK    8  A    between atoms: C_21  and  O_22
REMARK    9  A    between atoms: O_22  and  S_23
REMARK   10  A    between atoms: S_23  and  C_26
REMARK   11  A    between atoms: C_29  and  C_30
REMARK                            x       y       z     vdW  Elec       q    Type
REMARK                         _______ _______ _______ _____ _____    ______ ____
ROOT
ATOM      1  C   UNL     1       2.340   6.341  19.793  0.00  0.00    +0.000 A 
ATOM      2  C   UNL     1       1.659   7.554  20.044  0.00  0.00    +0.000 A 
ATOM      3  C   UNL     1       1.710   8.606  19.128  0.00  0.00    +0.000 A 
ATOM      4  C   UNL     1       2.476   8.477  17.977  0.00  0.00    +0.000 A 
ATOM      5  C   UNL     1       3.157   7.292  17.728  0.00  0.00    +0.000 A 
ATOM      6  C   UNL     1       3.057   6.187  18.594  0.00  0.00    +0.000 A 
ENDROOT
BRANCH   3   7
ATOM      7  C   UNL     1       0.922   9.837  19.332  0.00  0.00    +0.000 C 
ATOM      8  N   UNL     1       0.173   9.963  20.382  0.00  0.00    +0.000 NA
BRANCH   8   9
ATOM      9  N   UNL     1      -0.491  11.217  20.541  0.00  0.00    +0.000 N 
ATOM     10  H   UNL     1      -0.570  11.900  19.785  0.00  0.00    +0.000 HD
BRANCH   9  11
ATOM     11  S   UNL     1      -0.551  11.923  22.092  0.00  0.00    +0.000 S 
ATOM     12  O   UNL     1      -0.294  10.922  23.107  0.00  0.00    +0.000 OA
ATOM     13  O   UNL     1       0.246  13.131  22.016  0.00  0.00    +0.000 OA
BRANCH  11  14
ATOM     14  C   UNL     1      -2.254  12.407  22.196  0.00  0.00    +0.000 A 
ATOM     15  C   UNL     1      -2.962  12.693  21.016  0.00  0.00    +0.000 A 
ATOM     16  C   UNL     1      -4.310  13.042  21.097  0.00  0.00    +0.000 A 
ATOM     17  C   UNL     1      -4.949  13.101  22.338  0.00  0.00    +0.000 A 
ATOM     18  C   UNL     1      -4.244  12.803  23.505  0.00  0.00    +0.000 A 
ATOM     19  C   UNL     1      -2.896  12.449  23.437  0.00  0.00    +0.000 A 
ENDBRANCH  11  14
ENDBRANCH   9  11
ENDBRANCH   8   9
ENDBRANCH   3   7
BRANCH   1  20
ATOM     20  O   UNL     1       2.117   5.415  20.772  0.00  0.00    +0.000 OA
BRANCH  20  22
ATOM     21  C   UNL     1       1.629   3.121  21.201  0.00  0.00    +0.000 C 
ATOM     22  C   UNL     1       1.131   4.411  20.550  0.00  0.00    +0.000 C 
ENDBRANCH  20  22
ENDBRANCH   1  20
BRANCH   6  23
ATOM     23  O   UNL     1       3.603   4.968  18.240  0.00  0.00    +0.000 OA
BRANCH  23  24
ATOM     24  S   UNL     1       5.235   4.775  18.321  0.00  0.00    +0.000 S 
ATOM     25  O   UNL     1       5.815   6.032  18.761  0.00  0.00    +0.000 OA
ATOM     26  O   UNL     1       5.529   3.532  19.011  0.00  0.00    +0.000 OA
BRANCH  24  27
ATOM     27  C   UNL     1       5.835   4.535  16.675  0.00  0.00    +0.000 A 
ATOM     28  C   UNL     1       5.068   3.904  15.700  0.00  0.00    +0.000 A 
ATOM     29  C   UNL     1       5.540   3.881  14.386  0.00  0.00    +0.000 A 
ATOM     30  C   UNL     1       6.770   4.474  14.056  0.00  0.00    +0.000 A 
ATOM     31  C   UNL     1       7.243   4.541  12.634  0.00  0.00    +0.000 C 
ATOM     32  C   UNL     1       7.555   5.048  15.062  0.00  0.00    +0.000 A 
ATOM     33  C   UNL     1       7.091   5.074  16.372  0.00  0.00    +0.000 A 
ENDBRANCH  24  27
ENDBRANCH  23  24
ENDBRANCH   6  23
TORSDOF 9
ENDMDL
MODEL 6
REMARK VINA RESULT:      -8.0      7.143      8.432
REMARK  Name = 
REMARK  11 active torsions:
REMARK  status: ('A' for Active; 'I' for Inactive)
REMARK    1  A    between atoms: C_1  and  C_2
REMARK    2  A    between atoms: C_2  and  O_3
REMARK    3  A    between atoms: O_3  and  C_4
REMARK    4  A    between atoms: C_6  and  C_7
REMARK    5  A    between atoms: N_8  and  N_9
REMARK    6  A    between atoms: N_9  and  S_10
REMARK    7  A    between atoms: S_10  and  C_13
REMARK    8  A    between atoms: C_21  and  O_22
REMARK    9  A    between atoms: O_22  and  S_23
REMARK   10  A    between atoms: S_23  and  C_26
REMARK   11  A    between atoms: C_29  and  C_30
REMARK                            x       y       z     vdW  Elec       q    Type
REMARK                         _______ _______ _______ _____ _____    ______ ____
ROOT
ATOM      1  C   UNL     1       1.252   8.958  20.415  0.00  0.00    +0.000 A 
ATOM      2  C   UNL     1       1.876   7.859  19.782  0.00  0.00    +0.000 A 
ATOM      3  C   UNL     1       2.320   7.951  18.462  0.00  0.00    +0.000 A 
ATOM      4  C   UNL     1       2.105   9.122  17.746  0.00  0.00    +0.000 A 
ATOM      5  C   UNL     1       1.482  10.203  18.358  0.00  0.00    +0.000 A 
ATOM      6  C   UNL     1       1.100  10.165  19.711  0.00  0.00    +0.000 A 
ENDROOT
BRANCH   3   7
ATOM      7  C   UNL     1       3.062   6.846  17.826  0.00  0.00    +0.000 C 
ATOM      8  N   UNL     1       3.596   5.917  18.554  0.00  0.00    +0.000 NA
BRANCH   8   9
ATOM      9  N   UNL     1       4.225   4.844  17.852  0.00  0.00    +0.000 N 
ATOM     10  H   UNL     1       4.951   4.994  17.149  0.00  0.00    +0.000 HD
BRANCH   9  11
ATOM     11  S   UNL     1       3.358   3.394  17.623  0.00  0.00    +0.000 S 
ATOM     12  O   UNL     1       2.311   3.587  16.642  0.00  0.00    +0.000 OA
ATOM     13  O   UNL     1       4.353   2.351  17.459  0.00  0.00    +0.000 OA
BRANCH  11  14
ATOM     14  C   UNL     1       2.607   3.175  19.215  0.00  0.00    +0.000 A 
ATOM     15  C   UNL     1       1.234   3.430  19.369  0.00  0.00    +0.000 A 
ATOM     16  C   UNL     1       0.637   3.226  20.614  0.00  0.00    +0.000 A 
ATOM     17  C   UNL     1       1.399   2.770  21.693  0.00  0.00    +0.000 A 
ATOM     18  C   UNL     1       2.760   2.506  21.530  0.00  0.00    +0.000 A 
ATOM     19  C   UNL     1       3.367   2.703  20.289  0.00  0.00    +0.000 A 
ENDBRANCH  11  14
ENDBRANCH   9  11
ENDBRANCH   8   9
ENDBRANCH   3   7
BRANCH   1  20
ATOM     20  O   UNL     1       0.949   8.694  21.720  0.00  0.00    +0.000 OA
BRANCH  20  22
ATOM     21  C   UNL     1      -0.530   9.839  23.199  0.00  0.00    +0.000 C 
ATOM     22  C   UNL     1      -0.415   8.753  22.130  0.00  0.00    +0.000 C 
ENDBRANCH  20  22
ENDBRANCH   1  20
BRANCH   6  23
ATOM     23  O   UNL     1       0.640  11.306  20.341  0.00  0.00    +0.000 OA
BRANCH  23  24
ATOM     24  S   UNL     1      -0.736  12.019  19.788  0.00  0.00    +0.000 S 
ATOM     25  O   UNL     1      -0.356  13.121  18.922  0.00  0.00    +0.000 OA
ATOM     26  O   UNL     1      -1.650  10.987  19.331  0.00  0.00    +0.000 OA
BRANCH  24  27
ATOM     27  C   UNL     1      -1.550  12.769  21.168  0.00  0.00    +0.000 A 
ATOM     28  C   UNL     1      -2.924  12.661  21.356  0.00  0.00    +0.000 A 
ATOM     29  C   UNL     1      -3.479  13.148  22.542  0.00  0.00    +0.000 A 
ATOM     30  C   UNL     1      -2.667  13.744  23.521  0.00  0.00    +0.000 A 
ATOM     31  C   UNL     1      -3.235  14.183  24.839  0.00  0.00    +0.000 C 
ATOM     32  C   UNL     1      -1.297  13.898  23.285  0.00  0.00    +0.000 A 
ATOM     33  C   UNL     1      -0.738  13.417  22.107  0.00  0.00    +0.000 A 
ENDBRANCH  24  27
ENDBRANCH  23  24
ENDBRANCH   6  23
TORSDOF 9
ENDMDL
MODEL 7
REMARK VINA RESULT:      -8.0      6.651     10.421
REMARK  Name = 
REMARK  11 active torsions:
REMARK  status: ('A' for Active; 'I' for Inactive)
REMARK    1  A    between atoms: C_1  and  C_2
REMARK    2  A    between atoms: C_2  and  O_3
REMARK    3  A    between atoms: O_3  and  C_4
REMARK    4  A    between atoms: C_6  and  C_7
REMARK    5  A    between atoms: N_8  and  N_9
REMARK    6  A    between atoms: N_9  and  S_10
REMARK    7  A    between atoms: S_10  and  C_13
REMARK    8  A    between atoms: C_21  and  O_22
REMARK    9  A    between atoms: O_22  and  S_23
REMARK   10  A    between atoms: S_23  and  C_26
REMARK   11  A    between atoms: C_29  and  C_30
REMARK                            x       y       z     vdW  Elec       q    Type
REMARK                         _______ _______ _______ _____ _____    ______ ____
ROOT
ATOM      1  C   UNL     1       2.348   6.507  19.657  0.00  0.00    +0.000 A 
ATOM      2  C   UNL     1       1.849   7.811  19.440  0.00  0.00    +0.000 A 
ATOM      3  C   UNL     1       2.250   8.556  18.330  0.00  0.00    +0.000 A 
ATOM      4  C   UNL     1       3.187   8.027  17.452  0.00  0.00    +0.000 A 
ATOM      5  C   UNL     1       3.691   6.749  17.664  0.00  0.00    +0.000 A 
ATOM      6  C   UNL     1       3.242   5.947  18.729  0.00  0.00    +0.000 A 
ENDROOT
BRANCH   3   7
ATOM      7  C   UNL     1       1.659   9.876  18.040  0.00  0.00    +0.000 C 
ATOM      8  N   UNL     1       0.527  10.214  18.573  0.00  0.00    +0.000 NA
BRANCH   8   9
ATOM      9  N   UNL     1       0.069  11.539  18.304  0.00  0.00    +0.000 N 
ATOM     10  H   UNL     1       0.028  11.927  17.360  0.00  0.00    +0.000 HD
BRANCH   9  11
ATOM     11  S   UNL     1       0.241  12.729  19.513  0.00  0.00    +0.000 S 
ATOM     12  O   UNL     1       1.638  13.070  19.683  0.00  0.00    +0.000 OA
ATOM     13  O   UNL     1      -0.746  13.749  19.218  0.00  0.00    +0.000 OA
BRANCH  11  14
ATOM     14  C   UNL     1      -0.305  11.851  20.954  0.00  0.00    +0.000 A 
ATOM     15  C   UNL     1       0.421  10.731  21.394  0.00  0.00    +0.000 A 
ATOM     16  C   UNL     1       0.009  10.061  22.546  0.00  0.00    +0.000 A 
ATOM     17  C   UNL     1      -1.111  10.503  23.255  0.00  0.00    +0.000 A 
ATOM     18  C   UNL     1      -1.820  11.624  22.820  0.00  0.00    +0.000 A 
ATOM     19  C   UNL     1      -1.416  12.305  21.671  0.00  0.00    +0.000 A 
ENDBRANCH  11  14
ENDBRANCH   9  11
ENDBRANCH   8   9
ENDBRANCH   3   7
BRANCH   1  20
ATOM     20  O   UNL     1       1.790   5.920  20.757  0.00  0.00    +0.000 OA
BRANCH  20  22
ATOM     21  C   UNL     1       1.915   3.653  21.485  0.00  0.00    +0.000 C 
ATOM     22  C   UNL     1       1.160   4.651  20.608  0.00  0.00    +0.000 C 
ENDBRANCH  20  22
ENDBRANCH   1  20
BRANCH   6  23
ATOM     23  O   UNL     1       3.630   4.623  18.820  0.00  0.00    +0.000 OA
BRANCH  23  24
ATOM     24  S   UNL     1       5.235   4.270  18.901  0.00  0.00    +0.000 S 
ATOM     25  O   UNL     1       5.903   5.363  19.586  0.00  0.00    +0.000 OA
ATOM     26  O   UNL     1       5.393   2.897  19.348  0.00  0.00    +0.000 OA
BRANCH  24  27
ATOM     27  C   UNL     1       5.877   4.288  17.253  0.00  0.00    +0.000 A 
ATOM     28  C   UNL     1       5.176   3.733  16.187  0.00  0.00    +0.000 A 
ATOM     29  C   UNL     1       5.670   3.915  14.893  0.00  0.00    +0.000 A 
ATOM     30  C   UNL     1       6.856   4.635  14.673  0.00  0.00    +0.000 A 
ATOM     31  C   UNL     1       7.344   4.920  13.283  0.00  0.00    +0.000 C 
ATOM     32  C   UNL     1       7.578   5.131  15.764  0.00  0.00    +0.000 A 
ATOM     33  C   UNL     1       7.093   4.954  17.054  0.00  0.00    +0.000 A 
ENDBRANCH  24  27
ENDBRANCH  23  24
ENDBRANCH   6  23
TORSDOF 9
ENDMDL
MODEL 8
REMARK VINA RESULT:      -7.9      7.279      8.993
REMARK  Name = 
REMARK  11 active torsions:
REMARK  status: ('A' for Active; 'I' for Inactive)
REMARK    1  A    between atoms: C_1  and  C_2
REMARK    2  A    between atoms: C_2  and  O_3
REMARK    3  A    between atoms: O_3  and  C_4
REMARK    4  A    between atoms: C_6  and  C_7
REMARK    5  A    between atoms: N_8  and  N_9
REMARK    6  A    between atoms: N_9  and  S_10
REMARK    7  A    between atoms: S_10  and  C_13
REMARK    8  A    between atoms: C_21  and  O_22
REMARK    9  A    between atoms: O_22  and  S_23
REMARK   10  A    between atoms: S_23  and  C_26
REMARK   11  A    between atoms: C_29  and  C_30
REMARK                            x       y       z     vdW  Elec       q    Type
REMARK                         _______ _______ _______ _____ _____    ______ ____
ROOT
ATOM      1  C   UNL     1      -0.175  10.408  18.896  0.00  0.00    +0.000 A 
ATOM      2  C   UNL     1       0.830   9.749  18.152  0.00  0.00    +0.000 A 
ATOM      3  C   UNL     1       1.681   8.825  18.761  0.00  0.00    +0.000 A 
ATOM      4  C   UNL     1       1.569   8.584  20.124  0.00  0.00    +0.000 A 
ATOM      5  C   UNL     1       0.590   9.237  20.864  0.00  0.00    +0.000 A 
ATOM      6  C   UNL     1      -0.332  10.110  20.260  0.00  0.00    +0.000 A 
ENDROOT
BRANCH   3   7
ATOM      7  C   UNL     1       2.665   8.057  17.974  0.00  0.00    +0.000 C 
ATOM      8  N   UNL     1       2.978   6.850  18.324  0.00  0.00    +0.000 NA
BRANCH   8   9
ATOM      9  N   UNL     1       3.877   6.152  17.461  0.00  0.00    +0.000 N 
ATOM     10  H   UNL     1       3.884   6.285  16.448  0.00  0.00    +0.000 HD
BRANCH   9  11
ATOM     11  S   UNL     1       4.454   4.621  17.942  0.00  0.00    +0.000 S 
ATOM     12  O   UNL     1       4.698   3.791  16.781  0.00  0.00    +0.000 OA
ATOM     13  O   UNL     1       5.500   4.872  18.914  0.00  0.00    +0.000 OA
BRANCH  11  14
ATOM     14  C   UNL     1       3.053   3.973  18.814  0.00  0.00    +0.000 A 
ATOM     15  C   UNL     1       2.030   3.331  18.095  0.00  0.00    +0.000 A 
ATOM     16  C   UNL     1       0.945   2.792  18.785  0.00  0.00    +0.000 A 
ATOM     17  C   UNL     1       0.879   2.888  20.178  0.00  0.00    +0.000 A 
ATOM     18  C   UNL     1       1.904   3.516  20.888  0.00  0.00    +0.000 A 
ATOM     19  C   UNL     1       2.996   4.055  20.208  0.00  0.00    +0.000 A 
ENDBRANCH  11  14
ENDBRANCH   9  11
ENDBRANCH   8   9
ENDBRANCH   3   7
BRANCH   1  20
ATOM     20  O   UNL     1      -0.942  11.223  18.112  0.00  0.00    +0.000 OA
BRANCH  20  22
ATOM     21  C   UNL     1      -2.360   9.988  16.646  0.00  0.00    +0.000 C 
ATOM     22  C   UNL     1      -2.305  10.871  17.891  0.00  0.00    +0.000 C 
ENDBRANCH  20  22
ENDBRANCH   1  20
BRANCH   6  23
ATOM     23  O   UNL     1      -1.398  10.613  20.983  0.00  0.00    +0.000 OA
BRANCH  23  24
ATOM     24  S   UNL     1      -1.190  11.998  21.845  0.00  0.00    +0.000 S 
ATOM     25  O   UNL     1      -0.451  11.670  23.052  0.00  0.00    +0.000 OA
ATOM     26  O   UNL     1      -0.735  13.047  20.950  0.00  0.00    +0.000 OA
BRANCH  24  27
ATOM     27  C   UNL     1      -2.781  12.533  22.402  0.00  0.00    +0.000 A 
ATOM     28  C   UNL     1      -3.256  12.222  23.672  0.00  0.00    +0.000 A 
ATOM     29  C   UNL     1      -4.453  12.801  24.101  0.00  0.00    +0.000 A 
ATOM     30  C   UNL     1      -5.168  13.672  23.263  0.00  0.00    +0.000 A 
ATOM     31  C   UNL     1      -6.403  14.375  23.745  0.00  0.00    +0.000 C 
ATOM     32  C   UNL     1      -4.705  13.922  21.966  0.00  0.00    +0.000 A 
ATOM     33  C   UNL     1      -3.516  13.350  21.533  0.00  0.00    +0.000 A 
ENDBRANCH  24  27
ENDBRANCH  23  24
ENDBRANCH   6  23
TORSDOF 9
ENDMDL
MODEL 9
REMARK VINA RESULT:      -7.9      7.054      8.371
REMARK  Name = 
REMARK  11 active torsions:
REMARK  status: ('A' for Active; 'I' for Inactive)
REMARK    1  A    between atoms: C_1  and  C_2
REMARK    2  A    between atoms: C_2  and  O_3
REMARK    3  A    between atoms: O_3  and  C_4
REMARK    4  A    between atoms: C_6  and  C_7
REMARK    5  A    between atoms: N_8  and  N_9
REMARK    6  A    between atoms: N_9  and  S_10
REMARK    7  A    between atoms: S_10  and  C_13
REMARK    8  A    between atoms: C_21  and  O_22
REMARK    9  A    between atoms: O_22  and  S_23
REMARK   10  A    between atoms: S_23  and  C_26
REMARK   11  A    between atoms: C_29  and  C_30
REMARK                            x       y       z     vdW  Elec       q    Type
REMARK                         _______ _______ _______ _____ _____    ______ ____
ROOT
ATOM      1  C   UNL     1       0.375  10.759  18.966  0.00  0.00    +0.000 A 
ATOM      2  C   UNL     1       1.306  10.015  18.207  0.00  0.00    +0.000 A 
ATOM      3  C   UNL     1       1.836   8.820  18.698  0.00  0.00    +0.000 A 
ATOM      4  C   UNL     1       1.480   8.382  19.966  0.00  0.00    +0.000 A 
ATOM      5  C   UNL     1       0.573   9.114  20.723  0.00  0.00    +0.000 A 
ATOM      6  C   UNL     1      -0.038  10.277  20.219  0.00  0.00    +0.000 A 
ENDROOT
BRANCH   3   7
ATOM      7  C   UNL     1       2.730   7.985  17.873  0.00  0.00    +0.000 C 
ATOM      8  N   UNL     1       3.150   6.844  18.320  0.00  0.00    +0.000 NA
BRANCH   8   9
ATOM      9  N   UNL     1       3.945   6.065  17.425  0.00  0.00    +0.000 N 
ATOM     10  H   UNL     1       3.863   6.138  16.409  0.00  0.00    +0.000 HD
BRANCH   9  11
ATOM     11  S   UNL     1       4.517   4.546  17.946  0.00  0.00    +0.000 S 
ATOM     12  O   UNL     1       4.786   3.695  16.806  0.00  0.00    +0.000 OA
ATOM     13  O   UNL     1       5.544   4.820  18.932  0.00  0.00    +0.000 OA
BRANCH  11  14
ATOM     14  C   UNL     1       3.102   3.909  18.804  0.00  0.00    +0.000 A 
ATOM     15  C   UNL     1       3.030   4.033  20.202  0.00  0.00    +0.000 A 
ATOM     16  C   UNL     1       1.901   3.560  20.871  0.00  0.00    +0.000 A 
ATOM     17  C   UNL     1       0.853   2.974  20.157  0.00  0.00    +0.000 A 
ATOM     18  C   UNL     1       0.924   2.866  18.767  0.00  0.00    +0.000 A 
ATOM     19  C   UNL     1       2.047   3.338  18.086  0.00  0.00    +0.000 A 
ENDBRANCH  11  14
ENDBRANCH   9  11
ENDBRANCH   8   9
ENDBRANCH   3   7
BRANCH   1  20
ATOM     20  O   UNL     1      -0.075  11.859  18.291  0.00  0.00    +0.000 OA
BRANCH  20  22
ATOM     21  C   UNL     1      -0.576  14.016  19.176  0.00  0.00    +0.000 C 
ATOM     22  C   UNL     1       0.513  13.125  18.580  0.00  0.00    +0.000 C 
ENDBRANCH  20  22
ENDBRANCH   1  20
BRANCH   6  23
ATOM     23  O   UNL     1      -1.060  10.890  20.921  0.00  0.00    +0.000 OA
BRANCH  23  24
ATOM     24  S   UNL     1      -0.699  11.695  22.310  0.00  0.00    +0.000 S 
ATOM     25  O   UNL     1      -0.759  10.746  23.408  0.00  0.00    +0.000 OA
ATOM     26  O   UNL     1       0.482  12.510  22.088  0.00  0.00    +0.000 OA
BRANCH  24  27
ATOM     27  C   UNL     1      -1.999  12.852  22.619  0.00  0.00    +0.000 A 
ATOM     28  C   UNL     1      -3.303  12.621  22.192  0.00  0.00    +0.000 A 
ATOM     29  C   UNL     1      -4.308  13.501  22.598  0.00  0.00    +0.000 A 
ATOM     30  C   UNL     1      -4.007  14.604  23.415  0.00  0.00    +0.000 A 
ATOM     31  C   UNL     1      -5.090  15.502  23.937  0.00  0.00    +0.000 C 
ATOM     32  C   UNL     1      -2.680  14.854  23.781  0.00  0.00    +0.000 A 
ATOM     33  C   UNL     1      -1.675  13.983  23.380  0.00  0.00    +0.000 A 
ENDBRANCH  24  27
ENDBRANCH  23  24
ENDBRANCH   6  23
TORSDOF 9
ENDMDL
