MODEL 1
REMARK VINA RESULT:      -7.6      0.000      0.000
REMARK  Name = 
REMARK  6 active torsions:
REMARK  status: ('A' for Active; 'I' for Inactive)
REMARK    1  A    between atoms: C_1  and  C_2
REMARK    2  A    between atoms: C_8  and  C_9
REMARK    3  A    between atoms: C_9  and  C_10
REMARK    4  A    between atoms: C_9  and  N_11
REMARK    5  A    between atoms: N_11  and  C_12
REMARK    6  A    between atoms: N_21  and  C_22
REMARK                            x       y       z     vdW  Elec       q    Type
REMARK                         _______ _______ _______ _____ _____    ______ ____
ROOT
ATOM      1  C   UNL     1       3.365   3.451  20.075  0.00  0.00    +0.000 C 
ATOM      2  C   UNL     1       3.649   4.458  18.999  0.00  0.00    +0.000 A 
ATOM      3  C   UNL     1       4.462   4.063  17.916  0.00  0.00    +0.000 A 
ATOM      4  C   UNL     1       4.725   4.930  16.854  0.00  0.00    +0.000 A 
ATOM      5  C   UNL     1       4.172   6.200  16.866  0.00  0.00    +0.000 A 
ATOM      6  C   UNL     1       3.379   6.619  17.936  0.00  0.00    +0.000 A 
ATOM      7  N   UNL     1       2.807   7.884  17.828  0.00  0.00    +0.000 NA
ATOM      8  C   UNL     1       2.054   8.357  18.770  0.00  0.00    +0.000 A 
ATOM      9  N   UNL     1       1.753   7.625  19.909  0.00  0.00    +0.000 N 
ATOM     10  C   UNL     1       2.267   6.324  20.093  0.00  0.00    +0.000 A 
ATOM     11  O   UNL     1       2.032   5.630  21.081  0.00  0.00    +0.000 OA
ATOM     12  C   UNL     1       3.119   5.768  19.005  0.00  0.00    +0.000 A 
ENDROOT
BRANCH   9  13
ATOM     13  C   UNL     1       1.051   8.206  21.010  0.00  0.00    +0.000 A 
ATOM     14  C   UNL     1       1.773   8.881  22.006  0.00  0.00    +0.000 A 
ATOM     15  C   UNL     1       1.110   9.532  23.049  0.00  0.00    +0.000 A 
ATOM     16  C   UNL     1      -0.279   9.496  23.119  0.00  0.00    +0.000 A 
ATOM     17  C   UNL     1      -1.005   8.786  22.164  0.00  0.00    +0.000 A 
ATOM     18  C   UNL     1      -0.343   8.136  21.118  0.00  0.00    +0.000 A 
ENDBRANCH   9  13
BRANCH   8  19
ATOM     19  C   UNL     1       1.535   9.799  18.555  0.00  0.00    +0.000 C 
ATOM     20  C   UNL     1       2.592  10.680  17.882  0.00  0.00    +0.000 C 
BRANCH  19  21
ATOM     21  N   UNL     1       0.246   9.881  17.849  0.00  0.00    +0.000 N 
ATOM     22  H   UNL     1      -0.117   8.949  17.645  0.00  0.00    +0.000 HD
BRANCH  21  23
ATOM     23  C   UNL     1      -0.882  10.621  18.153  0.00  0.00    +0.000 A 
ATOM     24  N   UNL     1      -0.873  11.164  19.392  0.00  0.00    +0.000 NA
ATOM     25  C   UNL     1      -1.953  11.845  19.831  0.00  0.00    +0.000 A 
ATOM     26  N   UNL     1      -3.091  12.092  19.181  0.00  0.00    +0.000 NA
ATOM     27  C   UNL     1      -3.108  11.535  17.957  0.00  0.00    +0.000 A 
ATOM     28  N   UNL     1      -4.161  11.614  17.081  0.00  0.00    +0.000 NA
ATOM     29  C   UNL     1      -3.781  10.909  16.041  0.00  0.00    +0.000 A 
ATOM     30  N   UNL     1      -2.549  10.363  16.244  0.00  0.00    +0.000 N 
ATOM     31  C   UNL     1      -2.055  10.795  17.438  0.00  0.00    +0.000 A 
ATOM     32  H   UNL     1      -2.068   9.779  15.587  0.00  0.00    +0.000 HD
ENDBRANCH  21  23
ENDBRANCH  19  21
ENDBRANCH   8  19
TORSDOF 4
ENDMDL
MODEL 2
REMARK VINA RESULT:      -7.3      0.624      1.788
REMARK  Name = 
REMARK  6 active torsions:
REMARK  status: ('A' for Active; 'I' for Inactive)
REMARK    1  A    between atoms: C_1  and  C_2
REMARK    2  A    between atoms: C_8  and  C_9
REMARK    3  A    between atoms: C_9  and  C_10
REMARK    4  A    between atoms: C_9  and  N_11
REMARK    5  A    between atoms: N_11  and  C_12
REMARK    6  A    between atoms: N_21  and  C_22
REMARK                            x       y       z     vdW  Elec       q    Type
REMARK                         _______ _______ _______ _____ _____    ______ ____
ROOT
ATOM      1  C   UNL     1       3.454   3.587  19.992  0.00  0.00    +0.000 C 
ATOM      2  C   UNL     1       3.711   4.613  18.928  0.00  0.00    +0.000 A 
ATOM      3  C   UNL     1       4.527   4.250  17.835  0.00  0.00    +0.000 A 
ATOM      4  C   UNL     1       4.766   5.136  16.783  0.00  0.00    +0.000 A 
ATOM      5  C   UNL     1       4.185   6.393  16.814  0.00  0.00    +0.000 A 
ATOM      6  C   UNL     1       3.390   6.781  17.894  0.00  0.00    +0.000 A 
ATOM      7  N   UNL     1       2.791   8.035  17.806  0.00  0.00    +0.000 NA
ATOM      8  C   UNL     1       2.034   8.480  18.758  0.00  0.00    +0.000 A 
ATOM      9  N   UNL     1       1.755   7.727  19.889  0.00  0.00    +0.000 N 
ATOM     10  C   UNL     1       2.296   6.435  20.054  0.00  0.00    +0.000 A 
ATOM     11  O   UNL     1       2.082   5.724  21.033  0.00  0.00    +0.000 OA
ATOM     12  C   UNL     1       3.154   5.912  18.954  0.00  0.00    +0.000 A 
ENDROOT
BRANCH   9  13
ATOM     13  C   UNL     1       1.046   8.279  21.002  0.00  0.00    +0.000 A 
ATOM     14  C   UNL     1       1.763   8.927  22.019  0.00  0.00    +0.000 A 
ATOM     15  C   UNL     1       1.095   9.550  23.075  0.00  0.00    +0.000 A 
ATOM     16  C   UNL     1      -0.295   9.513  23.136  0.00  0.00    +0.000 A 
ATOM     17  C   UNL     1      -1.016   8.829  22.159  0.00  0.00    +0.000 A 
ATOM     18  C   UNL     1      -0.348   8.207  21.100  0.00  0.00    +0.000 A 
ENDBRANCH   9  13
BRANCH   8  19
ATOM     19  C   UNL     1       1.484   9.914  18.564  0.00  0.00    +0.000 C 
ATOM     20  C   UNL     1       2.522  10.829  17.911  0.00  0.00    +0.000 C 
BRANCH  19  21
ATOM     21  N   UNL     1       0.196   9.979  17.855  0.00  0.00    +0.000 N 
ATOM     22  H   UNL     1      -0.090   9.053  17.534  0.00  0.00    +0.000 HD
BRANCH  21  23
ATOM     23  C   UNL     1      -0.990  10.584  18.229  0.00  0.00    +0.000 A 
ATOM     24  N   UNL     1      -1.989  10.452  17.325  0.00  0.00    +0.000 NA
ATOM     25  C   UNL     1      -3.173  11.063  17.545  0.00  0.00    +0.000 A 
ATOM     26  N   UNL     1      -3.533  11.812  18.588  0.00  0.00    +0.000 NA
ATOM     27  C   UNL     1      -2.533  11.959  19.476  0.00  0.00    +0.000 A 
ATOM     28  N   UNL     1      -2.621  12.693  20.632  0.00  0.00    +0.000 NA
ATOM     29  C   UNL     1      -1.428  12.608  21.171  0.00  0.00    +0.000 A 
ATOM     30  N   UNL     1      -0.587  11.880  20.384  0.00  0.00    +0.000 N 
ATOM     31  C   UNL     1      -1.277  11.391  19.317  0.00  0.00    +0.000 A 
ATOM     32  H   UNL     1       0.375  11.694  20.595  0.00  0.00    +0.000 HD
ENDBRANCH  21  23
ENDBRANCH  19  21
ENDBRANCH   8  19
TORSDOF 4
ENDMDL
MODEL 3
REMARK VINA RESULT:      -7.2      2.735      4.760
REMARK  Name = 
REMARK  6 active torsions:
REMARK  status: ('A' for Active; 'I' for Inactive)
REMARK    1  A    between atoms: C_1  and  C_2
REMARK    2  A    between atoms: C_8  and  C_9
REMARK    3  A    between atoms: C_9  and  C_10
REMARK    4  A    between atoms: C_9  and  N_11
REMARK    5  A    between atoms: N_11  and  C_12
REMARK    6  A    between atoms: N_21  and  C_22
REMARK                            x       y       z     vdW  Elec       q    Type
REMARK                         _______ _______ _______ _____ _____    ______ ____
ROOT
ATOM      1  C   UNL     1       3.806   7.000  17.014  0.00  0.00    +0.000 C 
ATOM      2  C   UNL     1       3.158   6.615  18.311  0.00  0.00    +0.000 A 
ATOM      3  C   UNL     1       3.443   5.341  18.845  0.00  0.00    +0.000 A 
ATOM      4  C   UNL     1       2.918   4.936  20.074  0.00  0.00    +0.000 A 
ATOM      5  C   UNL     1       2.105   5.806  20.781  0.00  0.00    +0.000 A 
ATOM      6  C   UNL     1       1.794   7.065  20.263  0.00  0.00    +0.000 A 
ATOM      7  N   UNL     1       1.029   7.899  21.075  0.00  0.00    +0.000 NA
ATOM      8  C   UNL     1       0.692   9.086  20.680  0.00  0.00    +0.000 A 
ATOM      9  N   UNL     1       1.099   9.598  19.457  0.00  0.00    +0.000 N 
ATOM     10  C   UNL     1       1.897   8.835  18.579  0.00  0.00    +0.000 A 
ATOM     11  O   UNL     1       2.287   9.238  17.485  0.00  0.00    +0.000 OA
ATOM     12  C   UNL     1       2.301   7.475  19.035  0.00  0.00    +0.000 A 
ENDROOT
BRANCH   9  13
ATOM     13  C   UNL     1       0.601  10.844  18.962  0.00  0.00    +0.000 A 
ATOM     14  C   UNL     1      -0.725  10.923  18.511  0.00  0.00    +0.000 A 
ATOM     15  C   UNL     1      -1.267  12.143  18.102  0.00  0.00    +0.000 A 
ATOM     16  C   UNL     1      -0.482  13.292  18.119  0.00  0.00    +0.000 A 
ATOM     17  C   UNL     1       0.852  13.217  18.518  0.00  0.00    +0.000 A 
ATOM     18  C   UNL     1       1.394  11.997  18.929  0.00  0.00    +0.000 A 
ENDBRANCH   9  13
BRANCH   8  19
ATOM     19  C   UNL     1      -0.213   9.884  21.649  0.00  0.00    +0.000 C 
ATOM     20  C   UNL     1      -0.554   9.068  22.898  0.00  0.00    +0.000 C 
BRANCH  19  21
ATOM     21  N   UNL     1       0.306  11.214  22.008  0.00  0.00    +0.000 N 
ATOM     22  H   UNL     1       1.045  11.502  21.365  0.00  0.00    +0.000 HD
BRANCH  21  23
ATOM     23  C   UNL     1      -0.376  12.385  22.280  0.00  0.00    +0.000 A 
ATOM     24  N   UNL     1       0.339  13.511  22.048  0.00  0.00    +0.000 NA
ATOM     25  C   UNL     1      -0.194  14.714  22.347  0.00  0.00    +0.000 A 
ATOM     26  N   UNL     1      -1.399  14.979  22.854  0.00  0.00    +0.000 NA
ATOM     27  C   UNL     1      -2.102  13.860  23.104  0.00  0.00    +0.000 A 
ATOM     28  N   UNL     1      -3.362  13.837  23.643  0.00  0.00    +0.000 NA
ATOM     29  C   UNL     1      -3.652  12.562  23.756  0.00  0.00    +0.000 A 
ATOM     30  N   UNL     1      -2.612  11.786  23.342  0.00  0.00    +0.000 N 
ATOM     31  C   UNL     1      -1.621  12.582  22.855  0.00  0.00    +0.000 A 
ATOM     32  H   UNL     1      -2.608  10.783  23.349  0.00  0.00    +0.000 HD
ENDBRANCH  21  23
ENDBRANCH  19  21
ENDBRANCH   8  19
TORSDOF 4
ENDMDL
MODEL 4
REMARK VINA RESULT:      -7.1      3.618      7.899
REMARK  Name = 
REMARK  6 active torsions:
REMARK  status: ('A' for Active; 'I' for Inactive)
REMARK    1  A    between atoms: C_1  and  C_2
REMARK    2  A    between atoms: C_8  and  C_9
REMARK    3  A    between atoms: C_9  and  C_10
REMARK    4  A    between atoms: C_9  and  N_11
REMARK    5  A    between atoms: N_11  and  C_12
REMARK    6  A    between atoms: N_21  and  C_22
REMARK                            x       y       z     vdW  Elec       q    Type
REMARK                         _______ _______ _______ _____ _____    ______ ____
ROOT
ATOM      1  C   UNL     1       0.841   8.010  21.292  0.00  0.00    +0.000 C 
ATOM      2  C   UNL     1       1.433   8.466  19.991  0.00  0.00    +0.000 A 
ATOM      3  C   UNL     1       1.262   9.816  19.618  0.00  0.00    +0.000 A 
ATOM      4  C   UNL     1       1.830  10.322  18.448  0.00  0.00    +0.000 A 
ATOM      5  C   UNL     1       2.578   9.480  17.642  0.00  0.00    +0.000 A 
ATOM      6  C   UNL     1       2.745   8.135  17.981  0.00  0.00    +0.000 A 
ATOM      7  N   UNL     1       3.572   7.383  17.150  0.00  0.00    +0.000 NA
ATOM      8  C   UNL     1       3.788   6.128  17.386  0.00  0.00    +0.000 A 
ATOM      9  N   UNL     1       3.242   5.481  18.485  0.00  0.00    +0.000 N 
ATOM     10  C   UNL     1       2.413   6.169  19.395  0.00  0.00    +0.000 A 
ATOM     11  O   UNL     1       1.904   5.647  20.385  0.00  0.00    +0.000 OA
ATOM     12  C   UNL     1       2.175   7.617  19.138  0.00  0.00    +0.000 A 
ENDROOT
BRANCH   9  13
ATOM     13  C   UNL     1       3.358   4.066  18.657  0.00  0.00    +0.000 A 
ATOM     14  C   UNL     1       2.582   3.211  17.859  0.00  0.00    +0.000 A 
ATOM     15  C   UNL     1       2.735   1.826  17.943  0.00  0.00    +0.000 A 
ATOM     16  C   UNL     1       3.649   1.280  18.840  0.00  0.00    +0.000 A 
ATOM     17  C   UNL     1       4.389   2.118  19.673  0.00  0.00    +0.000 A 
ATOM     18  C   UNL     1       4.239   3.504  19.588  0.00  0.00    +0.000 A 
ENDBRANCH   9  13
BRANCH   8  19
ATOM     19  C   UNL     1       4.672   5.392  16.350  0.00  0.00    +0.000 C 
ATOM     20  C   UNL     1       4.915   6.254  15.109  0.00  0.00    +0.000 C 
BRANCH  19  21
ATOM     21  N   UNL     1       5.937   4.872  16.893  0.00  0.00    +0.000 N 
ATOM     22  H   UNL     1       6.512   4.467  16.152  0.00  0.00    +0.000 HD
BRANCH  21  23
ATOM     23  C   UNL     1       6.853   5.475  17.735  0.00  0.00    +0.000 A 
ATOM     24  N   UNL     1       7.288   4.682  18.742  0.00  0.00    +0.000 NA
ATOM     25  C   UNL     1       8.128   5.184  19.672  0.00  0.00    +0.000 A 
ATOM     26  N   UNL     1       8.636   6.415  19.745  0.00  0.00    +0.000 NA
ATOM     27  C   UNL     1       8.188   7.209  18.755  0.00  0.00    +0.000 A 
ATOM     28  N   UNL     1       8.534   8.527  18.599  0.00  0.00    +0.000 NA
ATOM     29  C   UNL     1       7.851   8.927  17.552  0.00  0.00    +0.000 A 
ATOM     30  N   UNL     1       7.066   7.924  17.068  0.00  0.00    +0.000 N 
ATOM     31  C   UNL     1       7.303   6.784  17.775  0.00  0.00    +0.000 A 
ATOM     32  H   UNL     1       6.452   8.008  16.280  0.00  0.00    +0.000 HD
ENDBRANCH  21  23
ENDBRANCH  19  21
ENDBRANCH   8  19
TORSDOF 4
ENDMDL
MODEL 5
REMARK VINA RESULT:      -7.1      4.883      7.259
REMARK  Name = 
REMARK  6 active torsions:
REMARK  status: ('A' for Active; 'I' for Inactive)
REMARK    1  A    between atoms: C_1  and  C_2
REMARK    2  A    between atoms: C_8  and  C_9
REMARK    3  A    between atoms: C_9  and  C_10
REMARK    4  A    between atoms: C_9  and  N_11
REMARK    5  A    between atoms: N_11  and  C_12
REMARK    6  A    between atoms: N_21  and  C_22
REMARK                            x       y       z     vdW  Elec       q    Type
REMARK                         _______ _______ _______ _____ _____    ______ ____
ROOT
ATOM      1  C   UNL     1      -5.590  12.221  17.287  0.00  0.00    +0.000 C 
ATOM      2  C   UNL     1      -4.283  11.488  17.352  0.00  0.00    +0.000 A 
ATOM      3  C   UNL     1      -3.919  10.675  16.258  0.00  0.00    +0.000 A 
ATOM      4  C   UNL     1      -2.695  10.006  16.228  0.00  0.00    +0.000 A 
ATOM      5  C   UNL     1      -1.821  10.148  17.293  0.00  0.00    +0.000 A 
ATOM      6  C   UNL     1      -2.167  10.932  18.395  0.00  0.00    +0.000 A 
ATOM      7  N   UNL     1      -1.198  11.075  19.385  0.00  0.00    +0.000 NA
ATOM      8  C   UNL     1      -1.428  11.785  20.444  0.00  0.00    +0.000 A 
ATOM      9  N   UNL     1      -2.624  12.462  20.631  0.00  0.00    +0.000 N 
ATOM     10  C   UNL     1      -3.654  12.396  19.669  0.00  0.00    +0.000 A 
ATOM     11  O   UNL     1      -4.732  12.976  19.783  0.00  0.00    +0.000 OA
ATOM     12  C   UNL     1      -3.389  11.595  18.442  0.00  0.00    +0.000 A 
ENDROOT
BRANCH   9  13
ATOM     13  C   UNL     1      -2.931  13.117  21.865  0.00  0.00    +0.000 A 
ATOM     14  C   UNL     1      -3.508  12.379  22.909  0.00  0.00    +0.000 A 
ATOM     15  C   UNL     1      -3.740  12.968  24.154  0.00  0.00    +0.000 A 
ATOM     16  C   UNL     1      -3.418  14.306  24.360  0.00  0.00    +0.000 A 
ATOM     17  C   UNL     1      -2.891  15.063  23.315  0.00  0.00    +0.000 A 
ATOM     18  C   UNL     1      -2.656  14.474  22.070  0.00  0.00    +0.000 A 
ENDBRANCH   9  13
BRANCH   8  19
ATOM     19  C   UNL     1      -0.293  11.809  21.496  0.00  0.00    +0.000 C 
ATOM     20  C   UNL     1      -0.281  10.528  22.335  0.00  0.00    +0.000 C 
BRANCH  19  21
ATOM     21  N   UNL     1       1.041  12.096  20.944  0.00  0.00    +0.000 N 
ATOM     22  H   UNL     1       1.216  11.538  20.107  0.00  0.00    +0.000 HD
BRANCH  21  23
ATOM     23  C   UNL     1       1.641  13.311  20.668  0.00  0.00    +0.000 A 
ATOM     24  N   UNL     1       2.833  13.494  21.283  0.00  0.00    +0.000 NA
ATOM     25  C   UNL     1       3.479  14.671  21.149  0.00  0.00    +0.000 A 
ATOM     26  N   UNL     1       3.105  15.742  20.448  0.00  0.00    +0.000 NA
ATOM     27  C   UNL     1       1.910  15.567  19.854  0.00  0.00    +0.000 A 
ATOM     28  N   UNL     1       1.277  16.513  19.088  0.00  0.00    +0.000 NA
ATOM     29  C   UNL     1       0.140  15.955  18.746  0.00  0.00    +0.000 A 
ATOM     30  N   UNL     1       0.019  14.714  19.294  0.00  0.00    +0.000 N 
ATOM     31  C   UNL     1       1.165  14.402  19.961  0.00  0.00    +0.000 A 
ATOM     32  H   UNL     1      -0.772  14.110  19.175  0.00  0.00    +0.000 HD
ENDBRANCH  21  23
ENDBRANCH  19  21
ENDBRANCH   8  19
TORSDOF 4
ENDMDL
MODEL 6
REMARK VINA RESULT:      -7.1      4.580      7.090
REMARK  Name = 
REMARK  6 active torsions:
REMARK  status: ('A' for Active; 'I' for Inactive)
REMARK    1  A    between atoms: C_1  and  C_2
REMARK    2  A    between atoms: C_8  and  C_9
REMARK    3  A    between atoms: C_9  and  C_10
REMARK    4  A    between atoms: C_9  and  N_11
REMARK    5  A    between atoms: N_11  and  C_12
REMARK    6  A    between atoms: N_21  and  C_22
REMARK                            x       y       z     vdW  Elec       q    Type
REMARK                         _______ _______ _______ _____ _____    ______ ____
ROOT
ATOM      1  C   UNL     1      -5.616  12.256  17.369  0.00  0.00    +0.000 C 
ATOM      2  C   UNL     1      -4.339  11.470  17.325  0.00  0.00    +0.000 A 
ATOM      3  C   UNL     1      -4.087  10.671  16.190  0.00  0.00    +0.000 A 
ATOM      4  C   UNL     1      -2.896   9.955  16.058  0.00  0.00    +0.000 A 
ATOM      5  C   UNL     1      -1.945  10.036  17.061  0.00  0.00    +0.000 A 
ATOM      6  C   UNL     1      -2.180  10.805  18.202  0.00  0.00    +0.000 A 
ATOM      7  N   UNL     1      -1.139  10.884  19.123  0.00  0.00    +0.000 NA
ATOM      8  C   UNL     1      -1.264  11.576  20.211  0.00  0.00    +0.000 A 
ATOM      9  N   UNL     1      -2.415  12.295  20.498  0.00  0.00    +0.000 N 
ATOM     10  C   UNL     1      -3.511  12.294  19.611  0.00  0.00    +0.000 A 
ATOM     11  O   UNL     1      -4.554  12.913  19.814  0.00  0.00    +0.000 OA
ATOM     12  C   UNL     1      -3.367  11.514  18.351  0.00  0.00    +0.000 A 
ENDROOT
BRANCH   9  13
ATOM     13  C   UNL     1      -2.606  12.930  21.765  0.00  0.00    +0.000 A 
ATOM     14  C   UNL     1      -2.234  14.274  21.922  0.00  0.00    +0.000 A 
ATOM     15  C   UNL     1      -2.486  14.947  23.119  0.00  0.00    +0.000 A 
ATOM     16  C   UNL     1      -3.093  14.279  24.178  0.00  0.00    +0.000 A 
ATOM     17  C   UNL     1      -3.422  12.930  24.051  0.00  0.00    +0.000 A 
ATOM     18  C   UNL     1      -3.172  12.256  22.853  0.00  0.00    +0.000 A 
ENDBRANCH   9  13
BRANCH   8  19
ATOM     19  C   UNL     1      -0.057  11.528  21.180  0.00  0.00    +0.000 C 
ATOM     20  C   UNL     1       0.254  10.094  21.616  0.00  0.00    +0.000 C 
BRANCH  19  21
ATOM     21  N   UNL     1       1.150  12.206  20.681  0.00  0.00    +0.000 N 
ATOM     22  H   UNL     1       1.389  11.879  19.743  0.00  0.00    +0.000 HD
BRANCH  21  23
ATOM     23  C   UNL     1       1.460  13.553  20.655  0.00  0.00    +0.000 A 
ATOM     24  N   UNL     1       2.377  13.930  21.577  0.00  0.00    +0.000 NA
ATOM     25  C   UNL     1       2.707  15.233  21.698  0.00  0.00    +0.000 A 
ATOM     26  N   UNL     1       2.247  16.268  20.993  0.00  0.00    +0.000 NA
ATOM     27  C   UNL     1       1.321  15.897  20.091  0.00  0.00    +0.000 A 
ATOM     28  N   UNL     1       0.669  16.758  19.245  0.00  0.00    +0.000 NA
ATOM     29  C   UNL     1      -0.165  15.998  18.576  0.00  0.00    +0.000 A 
ATOM     30  N   UNL     1      -0.087  14.703  18.990  0.00  0.00    +0.000 N 
ATOM     31  C   UNL     1       0.903  14.585  19.918  0.00  0.00    +0.000 A 
ATOM     32  H   UNL     1      -0.640  13.952  18.624  0.00  0.00    +0.000 HD
ENDBRANCH  21  23
ENDBRANCH  19  21
ENDBRANCH   8  19
TORSDOF 4
ENDMDL
MODEL 7
REMARK VINA RESULT:      -7.0      3.952      6.454
REMARK  Name = 
REMARK  6 active torsions:
REMARK  status: ('A' for Active; 'I' for Inactive)
REMARK    1  A    between atoms: C_1  and  C_2
REMARK    2  A    between atoms: C_8  and  C_9
REMARK    3  A    between atoms: C_9  and  C_10
REMARK    4  A    between atoms: C_9  and  N_11
REMARK    5  A    between atoms: N_11  and  C_12
REMARK    6  A    between atoms: N_21  and  C_22
REMARK                            x       y       z     vdW  Elec       q    Type
REMARK                         _______ _______ _______ _____ _____    ______ ____
ROOT
ATOM      1  C   UNL     1       0.883   9.174  22.082  0.00  0.00    +0.000 C 
ATOM      2  C   UNL     1       0.365   9.898  20.875  0.00  0.00    +0.000 A 
ATOM      3  C   UNL     1       0.718   9.406  19.600  0.00  0.00    +0.000 A 
ATOM      4  C   UNL     1       0.230   9.999  18.434  0.00  0.00    +0.000 A 
ATOM      5  C   UNL     1      -0.620  11.088  18.535  0.00  0.00    +0.000 A 
ATOM      6  C   UNL     1      -0.968  11.603  19.784  0.00  0.00    +0.000 A 
ATOM      7  N   UNL     1      -1.884  12.653  19.790  0.00  0.00    +0.000 NA
ATOM      8  C   UNL     1      -2.268  13.194  20.902  0.00  0.00    +0.000 A 
ATOM      9  N   UNL     1      -1.821  12.742  22.135  0.00  0.00    +0.000 N 
ATOM     10  C   UNL     1      -0.912  11.667  22.228  0.00  0.00    +0.000 A 
ATOM     11  O   UNL     1      -0.484  11.225  23.292  0.00  0.00    +0.000 OA
ATOM     12  C   UNL     1      -0.479  11.030  20.953  0.00  0.00    +0.000 A 
ENDROOT
BRANCH   9  13
ATOM     13  C   UNL     1      -2.127  13.437  23.346  0.00  0.00    +0.000 A 
ATOM     14  C   UNL     1      -1.223  14.391  23.839  0.00  0.00    +0.000 A 
ATOM     15  C   UNL     1      -1.532  15.147  24.971  0.00  0.00    +0.000 A 
ATOM     16  C   UNL     1      -2.738  14.943  25.635  0.00  0.00    +0.000 A 
ATOM     17  C   UNL     1      -3.622  13.964  25.185  0.00  0.00    +0.000 A 
ATOM     18  C   UNL     1      -3.315  13.208  24.050  0.00  0.00    +0.000 A 
ENDBRANCH   9  13
BRANCH   8  19
ATOM     19  C   UNL     1      -3.237  14.394  20.766  0.00  0.00    +0.000 C 
ATOM     20  C   UNL     1      -2.508  15.651  20.285  0.00  0.00    +0.000 C 
BRANCH  19  21
ATOM     21  N   UNL     1      -4.427  14.122  19.944  0.00  0.00    +0.000 N 
ATOM     22  H   UNL     1      -4.222  14.251  18.952  0.00  0.00    +0.000 HD
BRANCH  21  23
ATOM     23  C   UNL     1      -5.291  13.042  19.968  0.00  0.00    +0.000 A 
ATOM     24  N   UNL     1      -5.368  12.367  18.797  0.00  0.00    +0.000 NA
ATOM     25  C   UNL     1      -6.234  11.338  18.676  0.00  0.00    +0.000 A 
ATOM     26  N   UNL     1      -7.066  10.848  19.596  0.00  0.00    +0.000 NA
ATOM     27  C   UNL     1      -7.003  11.532  20.753  0.00  0.00    +0.000 A 
ATOM     28  N   UNL     1      -7.762  11.256  21.862  0.00  0.00    +0.000 NA
ATOM     29  C   UNL     1      -7.422  12.176  22.734  0.00  0.00    +0.000 A 
ATOM     30  N   UNL     1      -6.507  13.036  22.206  0.00  0.00    +0.000 N 
ATOM     31  C   UNL     1      -6.164  12.618  20.956  0.00  0.00    +0.000 A 
ATOM     32  H   UNL     1      -6.114  13.821  22.690  0.00  0.00    +0.000 HD
ENDBRANCH  21  23
ENDBRANCH  19  21
ENDBRANCH   8  19
TORSDOF 4
ENDMDL
MODEL 8
REMARK VINA RESULT:      -6.9      3.217      8.411
REMARK  Name = 
REMARK  6 active torsions:
REMARK  status: ('A' for Active; 'I' for Inactive)
REMARK    1  A    between atoms: C_1  and  C_2
REMARK    2  A    between atoms: C_8  and  C_9
REMARK    3  A    between atoms: C_9  and  C_10
REMARK    4  A    between atoms: C_9  and  N_11
REMARK    5  A    between atoms: N_11  and  C_12
REMARK    6  A    between atoms: N_21  and  C_22
REMARK                            x       y       z     vdW  Elec       q    Type
REMARK                         _______ _______ _______ _____ _____    ______ ____
ROOT
ATOM      1  C   UNL     1      -7.163  12.283  21.745  0.00  0.00    +0.000 C 
ATOM      2  C   UNL     1      -5.945  13.104  22.050  0.00  0.00    +0.000 A 
ATOM      3  C   UNL     1      -5.985  13.966  23.165  0.00  0.00    +0.000 A 
ATOM      4  C   UNL     1      -4.871  14.721  23.538  0.00  0.00    +0.000 A 
ATOM      5  C   UNL     1      -3.705  14.614  22.798  0.00  0.00    +0.000 A 
ATOM      6  C   UNL     1      -3.648  13.782  21.678  0.00  0.00    +0.000 A 
ATOM      7  N   UNL     1      -2.415  13.684  21.039  0.00  0.00    +0.000 NA
ATOM      8  C   UNL     1      -2.266  12.934  19.993  0.00  0.00    +0.000 A 
ATOM      9  N   UNL     1      -3.304  12.171  19.480  0.00  0.00    +0.000 N 
ATOM     10  C   UNL     1      -4.581  12.187  20.077  0.00  0.00    +0.000 A 
ATOM     11  O   UNL     1      -5.536  11.531  19.666  0.00  0.00    +0.000 OA
ATOM     12  C   UNL     1      -4.755  13.035  21.290  0.00  0.00    +0.000 A 
ENDROOT
BRANCH   9  13
ATOM     13  C   UNL     1      -3.177  11.467  18.242  0.00  0.00    +0.000 A 
ATOM     14  C   UNL     1      -2.215  10.451  18.125  0.00  0.00    +0.000 A 
ATOM     15  C   UNL     1      -2.124   9.688  16.959  0.00  0.00    +0.000 A 
ATOM     16  C   UNL     1      -2.977   9.946  15.891  0.00  0.00    +0.000 A 
ATOM     17  C   UNL     1      -3.903  10.985  15.976  0.00  0.00    +0.000 A 
ATOM     18  C   UNL     1      -3.997  11.748  17.143  0.00  0.00    +0.000 A 
ENDBRANCH   9  13
BRANCH   8  19
ATOM     19  C   UNL     1      -0.863  12.965  19.340  0.00  0.00    +0.000 C 
ATOM     20  C   UNL     1      -0.504  14.371  18.851  0.00  0.00    +0.000 C 
BRANCH  19  21
ATOM     21  N   UNL     1       0.209  12.403  20.176  0.00  0.00    +0.000 N 
ATOM     22  H   UNL     1       0.171  12.785  21.122  0.00  0.00    +0.000 HD
BRANCH  21  23
ATOM     23  C   UNL     1       0.586  11.085  20.363  0.00  0.00    +0.000 A 
ATOM     24  N   UNL     1       0.548  10.674  21.652  0.00  0.00    +0.000 NA
ATOM     25  C   UNL     1       0.965   9.430  21.968  0.00  0.00    +0.000 A 
ATOM     26  N   UNL     1       1.423   8.481  21.151  0.00  0.00    +0.000 NA
ATOM     27  C   UNL     1       1.480   8.897  19.873  0.00  0.00    +0.000 A 
ATOM     28  N   UNL     1       1.930   8.133  18.826  0.00  0.00    +0.000 NA
ATOM     29  C   UNL     1       1.859   8.926  17.782  0.00  0.00    +0.000 A 
ATOM     30  N   UNL     1       1.415  10.164  18.138  0.00  0.00    +0.000 N 
ATOM     31  C   UNL     1       1.100  10.167  19.462  0.00  0.00    +0.000 A 
ATOM     32  H   UNL     1       1.293  10.931  17.504  0.00  0.00    +0.000 HD
ENDBRANCH  21  23
ENDBRANCH  19  21
ENDBRANCH   8  19
TORSDOF 4
ENDMDL
MODEL 9
REMARK VINA RESULT:      -6.9      4.043      6.335
REMARK  Name = 
REMARK  6 active torsions:
REMARK  status: ('A' for Active; 'I' for Inactive)
REMARK    1  A    between atoms: C_1  and  C_2
REMARK    2  A    between atoms: C_8  and  C_9
REMARK    3  A    between atoms: C_9  and  C_10
REMARK    4  A    between atoms: C_9  and  N_11
REMARK    5  A    between atoms: N_11  and  C_12
REMARK    6  A    between atoms: N_21  and  C_22
REMARK                            x       y       z     vdW  Elec       q    Type
REMARK                         _______ _______ _______ _____ _____    ______ ____
ROOT
ATOM      1  C   UNL     1       0.294   9.154  22.174  0.00  0.00    +0.000 C 
ATOM      2  C   UNL     1       0.038  10.012  20.971  0.00  0.00    +0.000 A 
ATOM      3  C   UNL     1       0.423   9.519  19.706  0.00  0.00    +0.000 A 
ATOM      4  C   UNL     1       0.168  10.241  18.539  0.00  0.00    +0.000 A 
ATOM      5  C   UNL     1      -0.480  11.462  18.627  0.00  0.00    +0.000 A 
ATOM      6  C   UNL     1      -0.855  11.978  19.870  0.00  0.00    +0.000 A 
ATOM      7  N   UNL     1      -1.564  13.176  19.856  0.00  0.00    +0.000 NA
ATOM      8  C   UNL     1      -1.955  13.730  20.959  0.00  0.00    +0.000 A 
ATOM      9  N   UNL     1      -1.721  13.151  22.197  0.00  0.00    +0.000 N 
ATOM     10  C   UNL     1      -1.033  11.925  22.307  0.00  0.00    +0.000 A 
ATOM     11  O   UNL     1      -0.799  11.366  23.377  0.00  0.00    +0.000 OA
ATOM     12  C   UNL     1      -0.595  11.274  21.041  0.00  0.00    +0.000 A 
ENDROOT
BRANCH   9  13
ATOM     13  C   UNL     1      -2.019  13.838  23.416  0.00  0.00    +0.000 A 
ATOM     14  C   UNL     1      -3.249  13.607  24.052  0.00  0.00    +0.000 A 
ATOM     15  C   UNL     1      -3.534  14.196  25.285  0.00  0.00    +0.000 A 
ATOM     16  C   UNL     1      -2.602  15.038  25.885  0.00  0.00    +0.000 A 
ATOM     17  C   UNL     1      -1.398  15.315  25.239  0.00  0.00    +0.000 A 
ATOM     18  C   UNL     1      -1.111  14.724  24.006  0.00  0.00    +0.000 A 
ENDBRANCH   9  13
BRANCH   8  19
ATOM     19  C   UNL     1      -2.676  15.092  20.808  0.00  0.00    +0.000 C 
ATOM     20  C   UNL     1      -1.887  16.047  19.910  0.00  0.00    +0.000 C 
BRANCH  19  21
ATOM     21  N   UNL     1      -4.079  14.991  20.374  0.00  0.00    +0.000 N 
ATOM     22  H   UNL     1      -4.194  15.352  19.426  0.00  0.00    +0.000 HD
BRANCH  21  23
ATOM     23  C   UNL     1      -4.946  13.915  20.429  0.00  0.00    +0.000 A 
ATOM     24  N   UNL     1      -5.698  13.864  21.554  0.00  0.00    +0.000 NA
ATOM     25  C   UNL     1      -6.528  12.819  21.756  0.00  0.00    +0.000 A 
ATOM     26  N   UNL     1      -6.744  11.772  20.958  0.00  0.00    +0.000 NA
ATOM     27  C   UNL     1      -5.983  11.813  19.850  0.00  0.00    +0.000 A 
ATOM     28  N   UNL     1      -5.988  10.855  18.868  0.00  0.00    +0.000 NA
ATOM     29  C   UNL     1      -5.082  11.258  18.007  0.00  0.00    +0.000 A 
ATOM     30  N   UNL     1      -4.486  12.409  18.427  0.00  0.00    +0.000 N 
ATOM     31  C   UNL     1      -5.083  12.833  19.576  0.00  0.00    +0.000 A 
ATOM     32  H   UNL     1      -3.760  12.890  17.932  0.00  0.00    +0.000 HD
ENDBRANCH  21  23
ENDBRANCH  19  21
ENDBRANCH   8  19
TORSDOF 4
ENDMDL
