MODEL 1
REMARK VINA RESULT:      -8.4      0.000      0.000
REMARK  Name = 
REMARK  7 active torsions:
REMARK  status: ('A' for Active; 'I' for Inactive)
REMARK    1  A    between atoms: N_1  and  S_2
REMARK    2  A    between atoms: S_2  and  C_5
REMARK    3  A    between atoms: C_9  and  C_10
REMARK    4  A    between atoms: C_16  and  N_17
REMARK    5  A    between atoms: C_18  and  C_20
REMARK    6  A    between atoms: C_20  and  C_21
REMARK    7  A    between atoms: C_20  and  N_26
REMARK                            x       y       z     vdW  Elec       q    Type
REMARK                         _______ _______ _______ _____ _____    ______ ____
ROOT
ATOM      1  C   UNL     1      -1.227  10.736  19.326  0.00  0.00    +0.000 A 
ATOM      2  N   UNL     1      -1.424  11.542  20.390  0.00  0.00    +0.000 NA
ATOM      3  N   UNL     1      -0.554  11.174  21.303  0.00  0.00    +0.000 N 
ATOM      4  C   UNL     1       0.213  10.110  20.954  0.00  0.00    +0.000 A 
ATOM      5  C   UNL     1       1.140   9.435  21.751  0.00  0.00    +0.000 A 
ATOM      6  C   UNL     1       1.840   8.387  21.179  0.00  0.00    +0.000 A 
ATOM      7  C   UNL     1       1.679   8.051  19.832  0.00  0.00    +0.000 A 
ATOM      8  C   UNL     1       0.708   8.753  19.034  0.00  0.00    +0.000 A 
ATOM      9  C   UNL     1      -0.096   9.809  19.622  0.00  0.00    +0.000 A 
ATOM     10  H   UNL     1      -0.540  11.683  22.180  0.00  0.00    +0.000 HD
ENDROOT
BRANCH   1  15
ATOM     11  C   UNL     1      -4.504  11.800  17.647  0.00  0.00    +0.000 A 
ATOM     12  C   UNL     1      -4.285  11.497  16.310  0.00  0.00    +0.000 A 
ATOM     13  C   UNL     1      -3.063  10.928  15.934  0.00  0.00    +0.000 A 
ATOM     14  C   UNL     1      -2.041  10.667  16.880  0.00  0.00    +0.000 A 
ATOM     15  C   UNL     1      -2.219  10.987  18.223  0.00  0.00    +0.000 A 
ATOM     16  C   UNL     1      -3.485  11.570  18.581  0.00  0.00    +0.000 A 
BRANCH  11  17
ATOM     17  S   UNL     1      -6.052  12.529  18.137  0.00  0.00    +0.000 S 
ATOM     18  O   UNL     1      -5.873  13.232  19.387  0.00  0.00    +0.000 OA
ATOM     19  O   UNL     1      -7.109  11.563  17.950  0.00  0.00    +0.000 OA
BRANCH  17  20
ATOM     20  N   UNL     1      -6.318  13.692  16.941  0.00  0.00    +0.000 NA
ATOM     21  H   UNL     1      -6.902  13.279  16.210  0.00  0.00    +0.000 HD
ATOM     22  H   UNL     1      -5.443  14.030  16.541  0.00  0.00    +0.000 HD
ENDBRANCH  17  20
ENDBRANCH  11  17
ENDBRANCH   1  15
BRANCH   7  23
ATOM     23  N   UNL     1       2.426   6.888  19.424  0.00  0.00    +0.000 N 
ATOM     24  C   UNL     1       3.340   6.901  18.348  0.00  0.00    +0.000 C 
ATOM     25  O   UNL     1       3.280   7.734  17.442  0.00  0.00    +0.000 OA
ATOM     26  H   UNL     1       2.841   6.411  20.220  0.00  0.00    +0.000 HD
BRANCH  24  27
ATOM     27  C   UNL     1       4.445   5.747  18.413  0.00  0.00    +0.000 C 
BRANCH  27  28
ATOM     28  C   UNL     1       3.843   4.344  18.400  0.00  0.00    +0.000 A 
ATOM     29  C   UNL     1       3.020   3.825  17.333  0.00  0.00    +0.000 A 
ATOM     30  C   UNL     1       2.560   2.549  17.580  0.00  0.00    +0.000 A 
ATOM     31  S   UNL     1       3.092   1.962  19.091  0.00  0.00    +0.000 S 
ATOM     32  C   UNL     1       3.934   3.412  19.419  0.00  0.00    +0.000 A 
ENDBRANCH  27  28
BRANCH  27  33
ATOM     33  N   UNL     1       5.532   5.761  17.390  0.00  0.00    +0.000 NA
ATOM     34  C   UNL     1       6.561   4.734  17.515  0.00  0.00    +0.000 C 
ATOM     35  C   UNL     1       7.621   5.367  18.391  0.00  0.00    +0.000 C 
ATOM     36  C   UNL     1       7.571   6.842  18.015  0.00  0.00    +0.000 C 
ATOM     37  C   UNL     1       6.277   7.013  17.226  0.00  0.00    +0.000 C 
ENDBRANCH  27  33
ENDBRANCH  24  27
ENDBRANCH   7  23
TORSDOF 7
ENDMDL
MODEL 2
REMARK VINA RESULT:      -8.2      1.740      2.986
REMARK  Name = 
REMARK  7 active torsions:
REMARK  status: ('A' for Active; 'I' for Inactive)
REMARK    1  A    between atoms: N_1  and  S_2
REMARK    2  A    between atoms: S_2  and  C_5
REMARK    3  A    between atoms: C_9  and  C_10
REMARK    4  A    between atoms: C_16  and  N_17
REMARK    5  A    between atoms: C_18  and  C_20
REMARK    6  A    between atoms: C_20  and  C_21
REMARK    7  A    between atoms: C_20  and  N_26
REMARK                            x       y       z     vdW  Elec       q    Type
REMARK                         _______ _______ _______ _____ _____    ______ ____
ROOT
ATOM      1  C   UNL     1      -1.378  10.841  19.375  0.00  0.00    +0.000 A 
ATOM      2  N   UNL     1      -1.713  11.605  20.436  0.00  0.00    +0.000 NA
ATOM      3  N   UNL     1      -0.873  11.296  21.398  0.00  0.00    +0.000 N 
ATOM      4  C   UNL     1       0.006  10.311  21.084  0.00  0.00    +0.000 A 
ATOM      5  C   UNL     1       0.937   9.704  21.929  0.00  0.00    +0.000 A 
ATOM      6  C   UNL     1       1.762   8.734  21.388  0.00  0.00    +0.000 A 
ATOM      7  C   UNL     1       1.718   8.412  20.029  0.00  0.00    +0.000 A 
ATOM      8  C   UNL     1       0.740   9.042  19.180  0.00  0.00    +0.000 A 
ATOM      9  C   UNL     1      -0.190  10.012  19.730  0.00  0.00    +0.000 A 
ATOM     10  H   UNL     1      -0.960  11.787  22.282  0.00  0.00    +0.000 HD
ENDROOT
BRANCH   1  15
ATOM     11  C   UNL     1      -4.612  11.686  17.500  0.00  0.00    +0.000 A 
ATOM     12  C   UNL     1      -4.294  11.399  16.179  0.00  0.00    +0.000 A 
ATOM     13  C   UNL     1      -3.017  10.913  15.879  0.00  0.00    +0.000 A 
ATOM     14  C   UNL     1      -2.038  10.720  16.885  0.00  0.00    +0.000 A 
ATOM     15  C   UNL     1      -2.317  11.027  18.214  0.00  0.00    +0.000 A 
ATOM     16  C   UNL     1      -3.638  11.523  18.494  0.00  0.00    +0.000 A 
BRANCH  11  17
ATOM     17  S   UNL     1      -6.232  12.310  17.895  0.00  0.00    +0.000 S 
ATOM     18  O   UNL     1      -6.798  12.940  16.724  0.00  0.00    +0.000 OA
ATOM     19  O   UNL     1      -6.181  12.980  19.173  0.00  0.00    +0.000 OA
BRANCH  17  20
ATOM     20  N   UNL     1      -7.119  10.901  18.184  0.00  0.00    +0.000 NA
ATOM     21  H   UNL     1      -7.193  10.765  19.195  0.00  0.00    +0.000 HD
ATOM     22  H   UNL     1      -6.686  10.085  17.752  0.00  0.00    +0.000 HD
ENDBRANCH  17  20
ENDBRANCH  11  17
ENDBRANCH   1  15
BRANCH   7  23
ATOM     23  N   UNL     1       2.589   7.327  19.654  0.00  0.00    +0.000 N 
ATOM     24  C   UNL     1       2.277   5.972  19.902  0.00  0.00    +0.000 C 
ATOM     25  O   UNL     1       1.487   5.627  20.782  0.00  0.00    +0.000 OA
ATOM     26  H   UNL     1       2.929   7.431  18.703  0.00  0.00    +0.000 HD
BRANCH  24  27
ATOM     27  C   UNL     1       3.038   4.940  18.946  0.00  0.00    +0.000 C 
BRANCH  27  28
ATOM     28  C   UNL     1       4.449   5.397  18.580  0.00  0.00    +0.000 A 
ATOM     29  C   UNL     1       4.804   6.002  17.318  0.00  0.00    +0.000 A 
ATOM     30  C   UNL     1       6.149   6.281  17.214  0.00  0.00    +0.000 A 
ATOM     31  S   UNL     1       7.006   5.815  18.614  0.00  0.00    +0.000 S 
ATOM     32  C   UNL     1       5.582   5.234  19.358  0.00  0.00    +0.000 A 
ENDBRANCH  27  28
BRANCH  27  33
ATOM     33  N   UNL     1       3.146   3.521  19.394  0.00  0.00    +0.000 NA
ATOM     34  C   UNL     1       3.688   2.569  18.430  0.00  0.00    +0.000 C 
ATOM     35  C   UNL     1       2.474   2.056  17.684  0.00  0.00    +0.000 C 
ATOM     36  C   UNL     1       1.373   2.058  18.737  0.00  0.00    +0.000 C 
ATOM     37  C   UNL     1       1.923   2.885  19.893  0.00  0.00    +0.000 C 
ENDBRANCH  27  33
ENDBRANCH  24  27
ENDBRANCH   7  23
TORSDOF 7
ENDMDL
MODEL 3
REMARK VINA RESULT:      -8.2      0.746      1.058
REMARK  Name = 
REMARK  7 active torsions:
REMARK  status: ('A' for Active; 'I' for Inactive)
REMARK    1  A    between atoms: N_1  and  S_2
REMARK    2  A    between atoms: S_2  and  C_5
REMARK    3  A    between atoms: C_9  and  C_10
REMARK    4  A    between atoms: C_16  and  N_17
REMARK    5  A    between atoms: C_18  and  C_20
REMARK    6  A    between atoms: C_20  and  C_21
REMARK    7  A    between atoms: C_20  and  N_26
REMARK                            x       y       z     vdW  Elec       q    Type
REMARK                         _______ _______ _______ _____ _____    ______ ____
ROOT
ATOM      1  C   UNL     1      -1.187  10.569  19.129  0.00  0.00    +0.000 A 
ATOM      2  N   UNL     1      -1.420  11.405  20.164  0.00  0.00    +0.000 NA
ATOM      3  N   UNL     1      -0.557  11.087  21.102  0.00  0.00    +0.000 N 
ATOM      4  C   UNL     1       0.241  10.032  20.799  0.00  0.00    +0.000 A 
ATOM      5  C   UNL     1       1.170   9.405  21.632  0.00  0.00    +0.000 A 
ATOM      6  C   UNL     1       1.904   8.357  21.105  0.00  0.00    +0.000 A 
ATOM      7  C   UNL     1       1.773   7.973  19.767  0.00  0.00    +0.000 A 
ATOM      8  C   UNL     1       0.798   8.626  18.932  0.00  0.00    +0.000 A 
ATOM      9  C   UNL     1      -0.040   9.681  19.473  0.00  0.00    +0.000 A 
ATOM     10  H   UNL     1      -0.569  11.625  21.962  0.00  0.00    +0.000 HD
ENDROOT
BRANCH   1  15
ATOM     11  C   UNL     1      -4.409  11.628  17.343  0.00  0.00    +0.000 A 
ATOM     12  C   UNL     1      -4.207  11.184  16.043  0.00  0.00    +0.000 A 
ATOM     13  C   UNL     1      -3.017  10.521  15.728  0.00  0.00    +0.000 A 
ATOM     14  C   UNL     1      -2.007  10.303  16.699  0.00  0.00    +0.000 A 
ATOM     15  C   UNL     1      -2.167  10.761  18.004  0.00  0.00    +0.000 A 
ATOM     16  C   UNL     1      -3.402  11.439  18.298  0.00  0.00    +0.000 A 
BRANCH  11  17
ATOM     17  S   UNL     1      -5.918  12.478  17.754  0.00  0.00    +0.000 S 
ATOM     18  O   UNL     1      -6.883  11.523  18.250  0.00  0.00    +0.000 OA
ATOM     19  O   UNL     1      -6.238  13.409  16.698  0.00  0.00    +0.000 OA
BRANCH  17  20
ATOM     20  N   UNL     1      -5.460  13.450  19.058  0.00  0.00    +0.000 NA
ATOM     21  H   UNL     1      -5.120  12.846  19.811  0.00  0.00    +0.000 HD
ATOM     22  H   UNL     1      -6.233  14.024  19.393  0.00  0.00    +0.000 HD
ENDBRANCH  17  20
ENDBRANCH  11  17
ENDBRANCH   1  15
BRANCH   7  23
ATOM     23  N   UNL     1       2.553   6.816  19.410  0.00  0.00    +0.000 N 
ATOM     24  C   UNL     1       3.544   6.840  18.404  0.00  0.00    +0.000 C 
ATOM     25  O   UNL     1       3.547   7.678  17.500  0.00  0.00    +0.000 OA
ATOM     26  H   UNL     1       2.911   6.337  20.231  0.00  0.00    +0.000 HD
BRANCH  24  27
ATOM     27  C   UNL     1       4.647   5.691  18.544  0.00  0.00    +0.000 C 
BRANCH  27  28
ATOM     28  C   UNL     1       4.046   4.287  18.565  0.00  0.00    +0.000 A 
ATOM     29  C   UNL     1       4.317   3.303  19.586  0.00  0.00    +0.000 A 
ATOM     30  C   UNL     1       3.690   2.098  19.353  0.00  0.00    +0.000 A 
ATOM     31  S   UNL     1       2.781   2.122  17.909  0.00  0.00    +0.000 S 
ATOM     32  C   UNL     1       3.228   3.740  17.591  0.00  0.00    +0.000 A 
ENDBRANCH  27  28
BRANCH  27  33
ATOM     33  N   UNL     1       5.764   5.668  17.554  0.00  0.00    +0.000 NA
ATOM     34  C   UNL     1       7.016   5.060  17.992  0.00  0.00    +0.000 C 
ATOM     35  C   UNL     1       7.803   6.208  18.588  0.00  0.00    +0.000 C 
ATOM     36  C   UNL     1       7.393   7.407  17.744  0.00  0.00    +0.000 C 
ATOM     37  C   UNL     1       6.162   6.952  16.969  0.00  0.00    +0.000 C 
ENDBRANCH  27  33
ENDBRANCH  24  27
ENDBRANCH   7  23
TORSDOF 7
ENDMDL
MODEL 4
REMARK VINA RESULT:      -8.0      2.736      4.198
REMARK  Name = 
REMARK  7 active torsions:
REMARK  status: ('A' for Active; 'I' for Inactive)
REMARK    1  A    between atoms: N_1  and  S_2
REMARK    2  A    between atoms: S_2  and  C_5
REMARK    3  A    between atoms: C_9  and  C_10
REMARK    4  A    between atoms: C_16  and  N_17
REMARK    5  A    between atoms: C_18  and  C_20
REMARK    6  A    between atoms: C_20  and  C_21
REMARK    7  A    between atoms: C_20  and  N_26
REMARK                            x       y       z     vdW  Elec       q    Type
REMARK                         _______ _______ _______ _____ _____    ______ ____
ROOT
ATOM      1  C   UNL     1      -0.237  11.257  19.974  0.00  0.00    +0.000 A 
ATOM      2  N   UNL     1      -0.122  12.314  19.142  0.00  0.00    +0.000 NA
ATOM      3  N   UNL     1       0.744  11.968  18.216  0.00  0.00    +0.000 N 
ATOM      4  C   UNL     1       1.287  10.735  18.385  0.00  0.00    +0.000 A 
ATOM      5  C   UNL     1       2.302  10.145  17.629  0.00  0.00    +0.000 A 
ATOM      6  C   UNL     1       2.685   8.857  17.959  0.00  0.00    +0.000 A 
ATOM      7  C   UNL     1       2.039   8.138  18.969  0.00  0.00    +0.000 A 
ATOM      8  C   UNL     1       1.004   8.773  19.743  0.00  0.00    +0.000 A 
ATOM      9  C   UNL     1       0.627  10.149  19.472  0.00  0.00    +0.000 A 
ATOM     10  H   UNL     1       0.950  12.637  17.483  0.00  0.00    +0.000 HD
ENDROOT
BRANCH   1  15
ATOM     11  C   UNL     1      -3.201  12.703  21.926  0.00  0.00    +0.000 A 
ATOM     12  C   UNL     1      -2.967  12.265  23.223  0.00  0.00    +0.000 A 
ATOM     13  C   UNL     1      -1.828  11.496  23.484  0.00  0.00    +0.000 A 
ATOM     14  C   UNL     1      -0.917  11.143  22.458  0.00  0.00    +0.000 A 
ATOM     15  C   UNL     1      -1.139  11.542  21.144  0.00  0.00    +0.000 A 
ATOM     16  C   UNL     1      -2.318  12.332  20.904  0.00  0.00    +0.000 A 
BRANCH  11  17
ATOM     17  S   UNL     1      -4.650  13.678  21.579  0.00  0.00    +0.000 S 
ATOM     18  O   UNL     1      -4.451  15.020  22.075  0.00  0.00    +0.000 OA
ATOM     19  O   UNL     1      -5.826  12.909  21.909  0.00  0.00    +0.000 OA
BRANCH  17  20
ATOM     20  N   UNL     1      -4.652  13.762  19.891  0.00  0.00    +0.000 NA
ATOM     21  H   UNL     1      -3.804  13.309  19.542  0.00  0.00    +0.000 HD
ATOM     22  H   UNL     1      -4.697  14.726  19.560  0.00  0.00    +0.000 HD
ENDBRANCH  17  20
ENDBRANCH  11  17
ENDBRANCH   1  15
BRANCH   7  23
ATOM     23  N   UNL     1       2.617   6.845  19.231  0.00  0.00    +0.000 N 
ATOM     24  C   UNL     1       2.374   5.718  18.416  0.00  0.00    +0.000 C 
ATOM     25  O   UNL     1       1.377   5.624  17.698  0.00  0.00    +0.000 OA
ATOM     26  H   UNL     1       3.610   6.912  19.435  0.00  0.00    +0.000 HD
BRANCH  24  27
ATOM     27  C   UNL     1       3.499   4.585  18.513  0.00  0.00    +0.000 C 
BRANCH  27  28
ATOM     28  C   UNL     1       4.914   5.137  18.357  0.00  0.00    +0.000 A 
ATOM     29  C   UNL     1       5.917   5.105  19.396  0.00  0.00    +0.000 A 
ATOM     30  C   UNL     1       7.098   5.709  19.023  0.00  0.00    +0.000 A 
ATOM     31  S   UNL     1       7.022   6.330  17.436  0.00  0.00    +0.000 S 
ATOM     32  C   UNL     1       5.411   5.799  17.247  0.00  0.00    +0.000 A 
ENDBRANCH  27  28
BRANCH  27  33
ATOM     33  N   UNL     1       3.508   3.709  19.721  0.00  0.00    +0.000 NA
ATOM     34  C   UNL     1       3.385   2.273  19.490  0.00  0.00    +0.000 C 
ATOM     35  C   UNL     1       1.894   2.012  19.529  0.00  0.00    +0.000 C 
ATOM     36  C   UNL     1       1.375   3.015  20.550  0.00  0.00    +0.000 C 
ATOM     37  C   UNL     1       2.518   4.001  20.763  0.00  0.00    +0.000 C 
ENDBRANCH  27  33
ENDBRANCH  24  27
ENDBRANCH   7  23
TORSDOF 7
ENDMDL
MODEL 5
REMARK VINA RESULT:      -8.0      2.787      4.205
REMARK  Name = 
REMARK  7 active torsions:
REMARK  status: ('A' for Active; 'I' for Inactive)
REMARK    1  A    between atoms: N_1  and  S_2
REMARK    2  A    between atoms: S_2  and  C_5
REMARK    3  A    between atoms: C_9  and  C_10
REMARK    4  A    between atoms: C_16  and  N_17
REMARK    5  A    between atoms: C_18  and  C_20
REMARK    6  A    between atoms: C_20  and  C_21
REMARK    7  A    between atoms: C_20  and  N_26
REMARK                            x       y       z     vdW  Elec       q    Type
REMARK                         _______ _______ _______ _____ _____    ______ ____
ROOT
ATOM      1  C   UNL     1      -0.237  11.252  19.970  0.00  0.00    +0.000 A 
ATOM      2  N   UNL     1      -0.145  12.302  19.127  0.00  0.00    +0.000 NA
ATOM      3  N   UNL     1       0.708  11.955  18.190  0.00  0.00    +0.000 N 
ATOM      4  C   UNL     1       1.263  10.728  18.361  0.00  0.00    +0.000 A 
ATOM      5  C   UNL     1       2.270  10.139  17.593  0.00  0.00    +0.000 A 
ATOM      6  C   UNL     1       2.669   8.857  17.928  0.00  0.00    +0.000 A 
ATOM      7  C   UNL     1       2.046   8.143  18.956  0.00  0.00    +0.000 A 
ATOM      8  C   UNL     1       1.019   8.776  19.741  0.00  0.00    +0.000 A 
ATOM      9  C   UNL     1       0.626  10.146  19.464  0.00  0.00    +0.000 A 
ATOM     10  H   UNL     1       0.896  12.619  17.448  0.00  0.00    +0.000 HD
ENDROOT
BRANCH   1  15
ATOM     11  C   UNL     1      -3.294  12.490  21.923  0.00  0.00    +0.000 A 
ATOM     12  C   UNL     1      -2.948  12.236  23.243  0.00  0.00    +0.000 A 
ATOM     13  C   UNL     1      -1.702  11.663  23.520  0.00  0.00    +0.000 A 
ATOM     14  C   UNL     1      -0.792  11.324  22.487  0.00  0.00    +0.000 A 
ATOM     15  C   UNL     1      -1.123  11.540  21.152  0.00  0.00    +0.000 A 
ATOM     16  C   UNL     1      -2.410  12.131  20.898  0.00  0.00    +0.000 A 
BRANCH  11  17
ATOM     17  S   UNL     1      -4.879  13.213  21.557  0.00  0.00    +0.000 S 
ATOM     18  O   UNL     1      -5.886  12.177  21.552  0.00  0.00    +0.000 OA
ATOM     19  O   UNL     1      -4.733  14.141  20.460  0.00  0.00    +0.000 OA
BRANCH  17  20
ATOM     20  N   UNL     1      -5.170  14.188  22.906  0.00  0.00    +0.000 NA
ATOM     21  H   UNL     1      -4.373  14.108  23.543  0.00  0.00    +0.000 HD
ATOM     22  H   UNL     1      -6.030  13.923  23.387  0.00  0.00    +0.000 HD
ENDBRANCH  17  20
ENDBRANCH  11  17
ENDBRANCH   1  15
BRANCH   7  23
ATOM     23  N   UNL     1       2.639   6.856  19.219  0.00  0.00    +0.000 N 
ATOM     24  C   UNL     1       2.402   5.723  18.411  0.00  0.00    +0.000 C 
ATOM     25  O   UNL     1       1.400   5.616  17.701  0.00  0.00    +0.000 OA
ATOM     26  H   UNL     1       3.633   6.935  19.415  0.00  0.00    +0.000 HD
BRANCH  24  27
ATOM     27  C   UNL     1       3.539   4.602  18.505  0.00  0.00    +0.000 C 
BRANCH  27  28
ATOM     28  C   UNL     1       4.950   5.175  18.399  0.00  0.00    +0.000 A 
ATOM     29  C   UNL     1       5.464   5.854  17.233  0.00  0.00    +0.000 A 
ATOM     30  C   UNL     1       6.782   6.236  17.369  0.00  0.00    +0.000 A 
ATOM     31  S   UNL     1       7.423   5.778  18.882  0.00  0.00    +0.000 S 
ATOM     32  C   UNL     1       5.945   5.066  19.355  0.00  0.00    +0.000 A 
ENDBRANCH  27  28
BRANCH  27  33
ATOM     33  N   UNL     1       3.529   3.694  19.689  0.00  0.00    +0.000 NA
ATOM     34  C   UNL     1       3.408   2.265  19.418  0.00  0.00    +0.000 C 
ATOM     35  C   UNL     1       1.916   2.005  19.429  0.00  0.00    +0.000 C 
ATOM     36  C   UNL     1       1.384   2.981  20.470  0.00  0.00    +0.000 C 
ATOM     37  C   UNL     1       2.526   3.959  20.725  0.00  0.00    +0.000 C 
ENDBRANCH  27  33
ENDBRANCH  24  27
ENDBRANCH   7  23
TORSDOF 7
ENDMDL
MODEL 6
REMARK VINA RESULT:      -8.0      4.217     10.881
REMARK  Name = 
REMARK  7 active torsions:
REMARK  status: ('A' for Active; 'I' for Inactive)
REMARK    1  A    between atoms: N_1  and  S_2
REMARK    2  A    between atoms: S_2  and  C_5
REMARK    3  A    between atoms: C_9  and  C_10
REMARK    4  A    between atoms: C_16  and  N_17
REMARK    5  A    between atoms: C_18  and  C_20
REMARK    6  A    between atoms: C_20  and  C_21
REMARK    7  A    between atoms: C_20  and  N_26
REMARK                            x       y       z     vdW  Elec       q    Type
REMARK                         _______ _______ _______ _____ _____    ______ ____
ROOT
ATOM      1  C   UNL     1       1.799   8.292  19.295  0.00  0.00    +0.000 A 
ATOM      2  N   UNL     1       2.110   8.495  17.997  0.00  0.00    +0.000 NA
ATOM      3  N   UNL     1       1.693   9.704  17.698  0.00  0.00    +0.000 N 
ATOM      4  C   UNL     1       1.054  10.346  18.709  0.00  0.00    +0.000 A 
ATOM      5  C   UNL     1       0.415  11.586  18.657  0.00  0.00    +0.000 A 
ATOM      6  C   UNL     1      -0.151  12.070  19.823  0.00  0.00    +0.000 A 
ATOM      7  C   UNL     1      -0.036  11.379  21.032  0.00  0.00    +0.000 A 
ATOM      8  C   UNL     1       0.617  10.095  21.059  0.00  0.00    +0.000 A 
ATOM      9  C   UNL     1       1.158   9.524  19.839  0.00  0.00    +0.000 A 
ATOM     10  H   UNL     1       1.856  10.045  16.757  0.00  0.00    +0.000 HD
ENDROOT
BRANCH   1  15
ATOM     11  C   UNL     1       3.700   4.971  19.515  0.00  0.00    +0.000 A 
ATOM     12  C   UNL     1       2.958   4.245  20.436  0.00  0.00    +0.000 A 
ATOM     13  C   UNL     1       1.815   4.825  20.996  0.00  0.00    +0.000 A 
ATOM     14  C   UNL     1       1.404   6.138  20.656  0.00  0.00    +0.000 A 
ATOM     15  C   UNL     1       2.143   6.902  19.758  0.00  0.00    +0.000 A 
ATOM     16  C   UNL     1       3.314   6.280  19.198  0.00  0.00    +0.000 A 
BRANCH  11  17
ATOM     17  S   UNL     1       5.161   4.247  18.800  0.00  0.00    +0.000 S 
ATOM     18  O   UNL     1       6.331   4.883  19.359  0.00  0.00    +0.000 OA
ATOM     19  O   UNL     1       4.972   4.114  17.374  0.00  0.00    +0.000 OA
BRANCH  17  20
ATOM     20  N   UNL     1       5.123   2.663  19.386  0.00  0.00    +0.000 NA
ATOM     21  H   UNL     1       5.828   2.114  18.887  0.00  0.00    +0.000 HD
ATOM     22  H   UNL     1       4.203   2.238  19.271  0.00  0.00    +0.000 HD
ENDBRANCH  17  20
ENDBRANCH  11  17
ENDBRANCH   1  15
BRANCH   7  23
ATOM     23  N   UNL     1      -0.750  11.986  22.126  0.00  0.00    +0.000 N 
ATOM     24  C   UNL     1      -0.528  13.317  22.541  0.00  0.00    +0.000 C 
ATOM     25  O   UNL     1       0.524  13.916  22.307  0.00  0.00    +0.000 OA
ATOM     26  H   UNL     1      -1.748  11.808  22.067  0.00  0.00    +0.000 HD
BRANCH  24  27
ATOM     27  C   UNL     1      -1.753  13.968  23.337  0.00  0.00    +0.000 C 
BRANCH  27  28
ATOM     28  C   UNL     1      -1.320  15.076  24.295  0.00  0.00    +0.000 A 
ATOM     29  C   UNL     1      -1.746  15.170  25.671  0.00  0.00    +0.000 A 
ATOM     30  C   UNL     1      -1.255  16.288  26.312  0.00  0.00    +0.000 A 
ATOM     31  S   UNL     1      -0.290  17.241  25.277  0.00  0.00    +0.000 S 
ATOM     32  C   UNL     1      -0.532  16.167  23.972  0.00  0.00    +0.000 A 
ENDBRANCH  27  28
BRANCH  27  33
ATOM     33  N   UNL     1      -2.897  14.506  22.543  0.00  0.00    +0.000 NA
ATOM     34  C   UNL     1      -4.222  13.990  22.871  0.00  0.00    +0.000 C 
ATOM     35  C   UNL     1      -4.392  12.786  21.969  0.00  0.00    +0.000 C 
ATOM     36  C   UNL     1      -3.638  13.171  20.703  0.00  0.00    +0.000 C 
ATOM     37  C   UNL     1      -2.807  14.391  21.084  0.00  0.00    +0.000 C 
ENDBRANCH  27  33
ENDBRANCH  24  27
ENDBRANCH   7  23
TORSDOF 7
ENDMDL
MODEL 7
REMARK VINA RESULT:      -7.8      4.305      5.315
REMARK  Name = 
REMARK  7 active torsions:
REMARK  status: ('A' for Active; 'I' for Inactive)
REMARK    1  A    between atoms: N_1  and  S_2
REMARK    2  A    between atoms: S_2  and  C_5
REMARK    3  A    between atoms: C_9  and  C_10
REMARK    4  A    between atoms: C_16  and  N_17
REMARK    5  A    between atoms: C_18  and  C_20
REMARK    6  A    between atoms: C_20  and  C_21
REMARK    7  A    between atoms: C_20  and  N_26
REMARK                            x       y       z     vdW  Elec       q    Type
REMARK                         _______ _______ _______ _____ _____    ______ ____
ROOT
ATOM      1  C   UNL     1       0.937  10.844  20.505  0.00  0.00    +0.000 A 
ATOM      2  N   UNL     1       0.510  10.883  21.786  0.00  0.00    +0.000 NA
ATOM      3  N   UNL     1       0.580   9.651  22.239  0.00  0.00    +0.000 N 
ATOM      4  C   UNL     1       0.985   8.735  21.323  0.00  0.00    +0.000 A 
ATOM      5  C   UNL     1       1.053   7.350  21.481  0.00  0.00    +0.000 A 
ATOM      6  C   UNL     1       1.529   6.602  20.418  0.00  0.00    +0.000 A 
ATOM      7  C   UNL     1       1.989   7.209  19.246  0.00  0.00    +0.000 A 
ATOM      8  C   UNL     1       1.897   8.639  19.101  0.00  0.00    +0.000 A 
ATOM      9  C   UNL     1       1.336   9.448  20.169  0.00  0.00    +0.000 A 
ATOM     10  H   UNL     1       0.311   9.482  23.202  0.00  0.00    +0.000 HD
ENDROOT
BRANCH   1  15
ATOM     11  C   UNL     1       2.037  14.250  19.131  0.00  0.00    +0.000 A 
ATOM     12  C   UNL     1       0.857  14.780  18.627  0.00  0.00    +0.000 A 
ATOM     13  C   UNL     1      -0.323  14.038  18.736  0.00  0.00    +0.000 A 
ATOM     14  C   UNL     1      -0.342  12.754  19.336  0.00  0.00    +0.000 A 
ATOM     15  C   UNL     1       0.829  12.182  19.824  0.00  0.00    +0.000 A 
ATOM     16  C   UNL     1       2.028  12.969  19.699  0.00  0.00    +0.000 A 
BRANCH  11  17
ATOM     17  S   UNL     1       3.547  15.182  18.994  0.00  0.00    +0.000 S 
ATOM     18  O   UNL     1       4.313  15.031  20.210  0.00  0.00    +0.000 OA
ATOM     19  O   UNL     1       3.250  16.481  18.436  0.00  0.00    +0.000 OA
BRANCH  17  20
ATOM     20  N   UNL     1       4.382  14.370  17.771  0.00  0.00    +0.000 NA
ATOM     21  H   UNL     1       4.244  14.875  16.891  0.00  0.00    +0.000 HD
ATOM     22  H   UNL     1       4.067  13.405  17.673  0.00  0.00    +0.000 HD
ENDBRANCH  17  20
ENDBRANCH  11  17
ENDBRANCH   1  15
BRANCH   7  23
ATOM     23  N   UNL     1       2.374   6.278  18.216  0.00  0.00    +0.000 N 
ATOM     24  C   UNL     1       3.709   5.861  18.019  0.00  0.00    +0.000 C 
ATOM     25  O   UNL     1       4.672   6.528  18.402  0.00  0.00    +0.000 OA
ATOM     26  H   UNL     1       1.757   5.472  18.189  0.00  0.00    +0.000 HD
BRANCH  24  27
ATOM     27  C   UNL     1       3.852   4.461  17.259  0.00  0.00    +0.000 C 
BRANCH  27  28
ATOM     28  C   UNL     1       5.062   4.410  16.329  0.00  0.00    +0.000 A 
ATOM     29  C   UNL     1       6.432   4.364  16.782  0.00  0.00    +0.000 A 
ATOM     30  C   UNL     1       7.342   4.371  15.747  0.00  0.00    +0.000 A 
ATOM     31  S   UNL     1       6.574   4.444  14.225  0.00  0.00    +0.000 S 
ATOM     32  C   UNL     1       5.027   4.472  14.946  0.00  0.00    +0.000 A 
ENDBRANCH  27  28
BRANCH  27  33
ATOM     33  N   UNL     1       3.888   3.218  18.084  0.00  0.00    +0.000 NA
ATOM     34  C   UNL     1       2.938   2.169  17.729  0.00  0.00    +0.000 C 
ATOM     35  C   UNL     1       1.711   2.474  18.562  0.00  0.00    +0.000 C 
ATOM     36  C   UNL     1       2.281   3.061  19.847  0.00  0.00    +0.000 C 
ATOM     37  C   UNL     1       3.739   3.376  19.534  0.00  0.00    +0.000 C 
ENDBRANCH  27  33
ENDBRANCH  24  27
ENDBRANCH   7  23
TORSDOF 7
ENDMDL
MODEL 8
REMARK VINA RESULT:      -7.8      3.701      5.156
REMARK  Name = 
REMARK  7 active torsions:
REMARK  status: ('A' for Active; 'I' for Inactive)
REMARK    1  A    between atoms: N_1  and  S_2
REMARK    2  A    between atoms: S_2  and  C_5
REMARK    3  A    between atoms: C_9  and  C_10
REMARK    4  A    between atoms: C_16  and  N_17
REMARK    5  A    between atoms: C_18  and  C_20
REMARK    6  A    between atoms: C_20  and  C_21
REMARK    7  A    between atoms: C_20  and  N_26
REMARK                            x       y       z     vdW  Elec       q    Type
REMARK                         _______ _______ _______ _____ _____    ______ ____
ROOT
ATOM      1  C   UNL     1       0.084  11.516  20.103  0.00  0.00    +0.000 A 
ATOM      2  N   UNL     1       0.116  12.494  19.174  0.00  0.00    +0.000 NA
ATOM      3  N   UNL     1       0.814  12.026  18.164  0.00  0.00    +0.000 N 
ATOM      4  C   UNL     1       1.322  10.782  18.358  0.00  0.00    +0.000 A 
ATOM      5  C   UNL     1       2.182  10.076  17.515  0.00  0.00    +0.000 A 
ATOM      6  C   UNL     1       2.554   8.799  17.897  0.00  0.00    +0.000 A 
ATOM      7  C   UNL     1       2.040   8.202  19.052  0.00  0.00    +0.000 A 
ATOM      8  C   UNL     1       1.164   8.955  19.912  0.00  0.00    +0.000 A 
ATOM      9  C   UNL     1       0.811  10.324  19.579  0.00  0.00    +0.000 A 
ATOM     10  H   UNL     1       0.935  12.621  17.352  0.00  0.00    +0.000 HD
ENDROOT
BRANCH   1  15
ATOM     11  C   UNL     1      -0.980  13.792  22.998  0.00  0.00    +0.000 A 
ATOM     12  C   UNL     1      -1.791  12.967  23.765  0.00  0.00    +0.000 A 
ATOM     13  C   UNL     1      -1.998  11.646  23.354  0.00  0.00    +0.000 A 
ATOM     14  C   UNL     1      -1.411  11.134  22.170  0.00  0.00    +0.000 A 
ATOM     15  C   UNL     1      -0.616  11.945  21.364  0.00  0.00    +0.000 A 
ATOM     16  C   UNL     1      -0.421  13.299  21.812  0.00  0.00    +0.000 A 
BRANCH  11  17
ATOM     17  S   UNL     1      -0.714  15.477  23.507  0.00  0.00    +0.000 S 
ATOM     18  O   UNL     1      -1.811  16.294  23.041  0.00  0.00    +0.000 OA
ATOM     19  O   UNL     1       0.663  15.834  23.257  0.00  0.00    +0.000 OA
BRANCH  17  20
ATOM     20  N   UNL     1      -0.835  15.387  25.190  0.00  0.00    +0.000 NA
ATOM     21  H   UNL     1       0.061  15.064  25.563  0.00  0.00    +0.000 HD
ATOM     22  H   UNL     1      -1.583  14.759  25.483  0.00  0.00    +0.000 HD
ENDBRANCH  17  20
ENDBRANCH  11  17
ENDBRANCH   1  15
BRANCH   7  23
ATOM     23  N   UNL     1       2.594   6.904  19.338  0.00  0.00    +0.000 N 
ATOM     24  C   UNL     1       2.368   5.776  18.518  0.00  0.00    +0.000 C 
ATOM     25  O   UNL     1       1.397   5.692  17.764  0.00  0.00    +0.000 OA
ATOM     26  H   UNL     1       3.579   6.961  19.577  0.00  0.00    +0.000 HD
BRANCH  24  27
ATOM     27  C   UNL     1       3.477   4.632  18.659  0.00  0.00    +0.000 C 
BRANCH  27  28
ATOM     28  C   UNL     1       4.901   5.161  18.510  0.00  0.00    +0.000 A 
ATOM     29  C   UNL     1       5.416   5.778  17.310  0.00  0.00    +0.000 A 
ATOM     30  C   UNL     1       6.745   6.128  17.413  0.00  0.00    +0.000 A 
ATOM     31  S   UNL     1       7.397   5.714  18.934  0.00  0.00    +0.000 S 
ATOM     32  C   UNL     1       5.907   5.063  19.456  0.00  0.00    +0.000 A 
ENDBRANCH  27  28
BRANCH  27  33
ATOM     33  N   UNL     1       3.456   3.786  19.888  0.00  0.00    +0.000 NA
ATOM     34  C   UNL     1       3.311   2.347  19.691  0.00  0.00    +0.000 C 
ATOM     35  C   UNL     1       1.815   2.113  19.719  0.00  0.00    +0.000 C 
ATOM     36  C   UNL     1       1.302   3.150  20.709  0.00  0.00    +0.000 C 
ATOM     37  C   UNL     1       2.461   4.121  20.911  0.00  0.00    +0.000 C 
ENDBRANCH  27  33
ENDBRANCH  24  27
ENDBRANCH   7  23
TORSDOF 7
ENDMDL
MODEL 9
REMARK VINA RESULT:      -7.7      3.972      9.993
REMARK  Name = 
REMARK  7 active torsions:
REMARK  status: ('A' for Active; 'I' for Inactive)
REMARK    1  A    between atoms: N_1  and  S_2
REMARK    2  A    between atoms: S_2  and  C_5
REMARK    3  A    between atoms: C_9  and  C_10
REMARK    4  A    between atoms: C_16  and  N_17
REMARK    5  A    between atoms: C_18  and  C_20
REMARK    6  A    between atoms: C_20  and  C_21
REMARK    7  A    between atoms: C_20  and  N_26
REMARK                            x       y       z     vdW  Elec       q    Type
REMARK                         _______ _______ _______ _____ _____    ______ ____
ROOT
ATOM      1  C   UNL     1       2.404   6.471  19.295  0.00  0.00    +0.000 A 
ATOM      2  N   UNL     1       2.011   5.807  20.403  0.00  0.00    +0.000 NA
ATOM      3  N   UNL     1       1.425   6.690  21.179  0.00  0.00    +0.000 N 
ATOM      4  C   UNL     1       1.432   7.959  20.696  0.00  0.00    +0.000 A 
ATOM      5  C   UNL     1       0.984   9.114  21.339  0.00  0.00    +0.000 A 
ATOM      6  C   UNL     1       1.056  10.308  20.643  0.00  0.00    +0.000 A 
ATOM      7  C   UNL     1       1.501  10.357  19.319  0.00  0.00    +0.000 A 
ATOM      8  C   UNL     1       1.971   9.154  18.682  0.00  0.00    +0.000 A 
ATOM      9  C   UNL     1       1.976   7.896  19.406  0.00  0.00    +0.000 A 
ATOM     10  H   UNL     1       1.045   6.369  22.063  0.00  0.00    +0.000 HD
ENDROOT
BRANCH   1  15
ATOM     11  C   UNL     1       5.328   5.250  17.139  0.00  0.00    +0.000 A 
ATOM     12  C   UNL     1       4.810   4.122  16.517  0.00  0.00    +0.000 A 
ATOM     13  C   UNL     1       3.489   3.746  16.784  0.00  0.00    +0.000 A 
ATOM     14  C   UNL     1       2.673   4.478  17.682  0.00  0.00    +0.000 A 
ATOM     15  C   UNL     1       3.173   5.596  18.343  0.00  0.00    +0.000 A 
ATOM     16  C   UNL     1       4.534   5.960  18.049  0.00  0.00    +0.000 A 
BRANCH  11  17
ATOM     17  S   UNL     1       7.009   5.736  16.813  0.00  0.00    +0.000 S 
ATOM     18  O   UNL     1       7.908   4.819  17.476  0.00  0.00    +0.000 OA
ATOM     19  O   UNL     1       7.125   7.167  16.970  0.00  0.00    +0.000 OA
BRANCH  17  20
ATOM     20  N   UNL     1       7.162   5.473  15.151  0.00  0.00    +0.000 NA
ATOM     21  H   UNL     1       7.858   6.126  14.781  0.00  0.00    +0.000 HD
ATOM     22  H   UNL     1       6.274   5.596  14.664  0.00  0.00    +0.000 HD
ENDBRANCH  17  20
ENDBRANCH  11  17
ENDBRANCH   1  15
BRANCH   7  23
ATOM     23  N   UNL     1       1.586  11.689  18.777  0.00  0.00    +0.000 N 
ATOM     24  C   UNL     1       0.483  12.569  18.729  0.00  0.00    +0.000 C 
ATOM     25  O   UNL     1      -0.682  12.169  18.750  0.00  0.00    +0.000 OA
ATOM     26  H   UNL     1       2.404  12.183  19.124  0.00  0.00    +0.000 HD
BRANCH  24  27
ATOM     27  C   UNL     1       0.883  14.115  18.643  0.00  0.00    +0.000 C 
BRANCH  27  28
ATOM     28  C   UNL     1      -0.080  15.022  19.406  0.00  0.00    +0.000 A 
ATOM     29  C   UNL     1      -0.694  16.205  18.849  0.00  0.00    +0.000 A 
ATOM     30  C   UNL     1      -1.486  16.878  19.755  0.00  0.00    +0.000 A 
ATOM     31  S   UNL     1      -1.497  16.114  21.281  0.00  0.00    +0.000 S 
ATOM     32  C   UNL     1      -0.440  14.888  20.736  0.00  0.00    +0.000 A 
ENDBRANCH  27  28
BRANCH  27  33
ATOM     33  N   UNL     1       2.263  14.506  19.055  0.00  0.00    +0.000 NA
ATOM     34  C   UNL     1       2.474  15.911  19.389  0.00  0.00    +0.000 C 
ATOM     35  C   UNL     1       2.875  16.553  18.078  0.00  0.00    +0.000 C 
ATOM     36  C   UNL     1       3.653  15.460  17.359  0.00  0.00    +0.000 C 
ATOM     37  C   UNL     1       3.352  14.179  18.130  0.00  0.00    +0.000 C 
ENDBRANCH  27  33
ENDBRANCH  24  27
ENDBRANCH   7  23
TORSDOF 7
ENDMDL
