MODEL 1
REMARK VINA RESULT:      -6.0      0.000      0.000
REMARK  Name = 
REMARK  10 active torsions:
REMARK  status: ('A' for Active; 'I' for Inactive)
REMARK    1  A    between atoms: C_1  and  C_2
REMARK    2  A    between atoms: C_2  and  C_3
REMARK    3  A    between atoms: C_3  and  C_4
REMARK    4  A    between atoms: C_4  and  C_5
REMARK    5  A    between atoms: C_5  and  C_6
REMARK    6  A    between atoms: C_6  and  C_7
REMARK    7  A    between atoms: C_7  and  C_8
REMARK    8  A    between atoms: C_10  and  O_11
REMARK    9  A    between atoms: C_13  and  O_14
REMARK   10  A    between atoms: O_14  and  C_15
REMARK                            x       y       z     vdW  Elec       q    Type
REMARK                         _______ _______ _______ _____ _____    ______ ____
ROOT
ATOM      1  C   UNL     1       5.062   5.346  17.633  0.00  0.00    +0.000 C 
ATOM      2  C   UNL     1       5.964   4.563  18.254  0.00  0.00    +0.000 C 
ATOM      3  C   UNL     1       7.407   4.937  18.440  0.00  0.00    +0.000 C 
ATOM      4  C   UNL     1       7.722   6.341  18.037  0.00  0.00    +0.000 C 
ATOM      5  C   UNL     1       6.849   7.154  17.421  0.00  0.00    +0.000 C 
ATOM      6  C   UNL     1       5.451   6.701  17.057  0.00  0.00    +0.000 C 
ENDROOT
BRANCH   3   7
ATOM      7  O   UNL     1       8.184   4.062  17.639  0.00  0.00    +0.000 OA
ATOM      8  H   UNL     1       7.552   3.561  17.097  0.00  0.00    +0.000 HD
ENDBRANCH   3   7
BRANCH   5   9
ATOM      9  O   UNL     1       7.231   8.466  17.188  0.00  0.00    +0.000 OA
ATOM     10  C   UNL     1       8.235   8.986  18.052  0.00  0.00    +0.000 C 
ENDBRANCH   5   9
BRANCH   1  11
ATOM     11  C   UNL     1       3.613   4.934  17.488  0.00  0.00    +0.000 C 
BRANCH  11  12
ATOM     12  C   UNL     1       2.664   5.916  18.178  0.00  0.00    +0.000 C 
BRANCH  12  13
ATOM     13  C   UNL     1       2.909   6.006  19.685  0.00  0.00    +0.000 C 
BRANCH  13  14
ATOM     14  C   UNL     1       2.637   4.650  20.339  0.00  0.00    +0.000 C 
BRANCH  14  15
ATOM     15  C   UNL     1       1.144   4.332  20.398  0.00  0.00    +0.000 C 
BRANCH  15  17
ATOM     16  C   UNL     1       2.103   2.193  19.481  0.00  0.00    +0.000 C 
ATOM     17  C   UNL     1       0.840   3.010  19.694  0.00  0.00    +0.000 C 
ENDBRANCH  15  17
ENDBRANCH  14  15
ENDBRANCH  13  14
ENDBRANCH  12  13
ENDBRANCH  11  12
ENDBRANCH   1  11
TORSDOF 8
ENDMDL
MODEL 2
REMARK VINA RESULT:      -6.0      2.257      2.754
REMARK  Name = 
REMARK  10 active torsions:
REMARK  status: ('A' for Active; 'I' for Inactive)
REMARK    1  A    between atoms: C_1  and  C_2
REMARK    2  A    between atoms: C_2  and  C_3
REMARK    3  A    between atoms: C_3  and  C_4
REMARK    4  A    between atoms: C_4  and  C_5
REMARK    5  A    between atoms: C_5  and  C_6
REMARK    6  A    between atoms: C_6  and  C_7
REMARK    7  A    between atoms: C_7  and  C_8
REMARK    8  A    between atoms: C_10  and  O_11
REMARK    9  A    between atoms: C_13  and  O_14
REMARK   10  A    between atoms: O_14  and  C_15
REMARK                            x       y       z     vdW  Elec       q    Type
REMARK                         _______ _______ _______ _____ _____    ______ ____
ROOT
ATOM      1  C   UNL     1       3.600   5.717  18.862  0.00  0.00    +0.000 C 
ATOM      2  C   UNL     1       4.525   5.070  19.594  0.00  0.00    +0.000 C 
ATOM      3  C   UNL     1       5.698   4.341  19.004  0.00  0.00    +0.000 C 
ATOM      4  C   UNL     1       5.857   4.550  17.533  0.00  0.00    +0.000 C 
ATOM      5  C   UNL     1       4.961   5.193  16.768  0.00  0.00    +0.000 C 
ATOM      6  C   UNL     1       3.677   5.756  17.341  0.00  0.00    +0.000 C 
ENDROOT
BRANCH   3   7
ATOM      7  O   UNL     1       5.504   2.956  19.237  0.00  0.00    +0.000 OA
ATOM      8  H   UNL     1       4.810   2.891  19.913  0.00  0.00    +0.000 HD
ENDBRANCH   3   7
BRANCH   5   9
ATOM      9  O   UNL     1       5.272   5.406  15.435  0.00  0.00    +0.000 OA
ATOM     10  C   UNL     1       6.565   4.979  15.020  0.00  0.00    +0.000 C 
ENDBRANCH   5   9
BRANCH   1  11
ATOM     11  C   UNL     1       2.445   6.455  19.504  0.00  0.00    +0.000 C 
BRANCH  11  12
ATOM     12  C   UNL     1       1.900   5.718  20.728  0.00  0.00    +0.000 C 
BRANCH  12  13
ATOM     13  C   UNL     1       0.894   4.628  20.355  0.00  0.00    +0.000 C 
BRANCH  13  14
ATOM     14  C   UNL     1       1.299   3.302  21.002  0.00  0.00    +0.000 C 
BRANCH  14  15
ATOM     15  C   UNL     1       2.073   2.407  20.036  0.00  0.00    +0.000 C 
BRANCH  15  17
ATOM     16  C   UNL     1       2.543   2.258  17.567  0.00  0.00    +0.000 C 
ATOM     17  C   UNL     1       1.479   2.481  18.629  0.00  0.00    +0.000 C 
ENDBRANCH  15  17
ENDBRANCH  14  15
ENDBRANCH  13  14
ENDBRANCH  12  13
ENDBRANCH  11  12
ENDBRANCH   1  11
TORSDOF 8
ENDMDL
MODEL 3
REMARK VINA RESULT:      -6.0      1.968      2.820
REMARK  Name = 
REMARK  10 active torsions:
REMARK  status: ('A' for Active; 'I' for Inactive)
REMARK    1  A    between atoms: C_1  and  C_2
REMARK    2  A    between atoms: C_2  and  C_3
REMARK    3  A    between atoms: C_3  and  C_4
REMARK    4  A    between atoms: C_4  and  C_5
REMARK    5  A    between atoms: C_5  and  C_6
REMARK    6  A    between atoms: C_6  and  C_7
REMARK    7  A    between atoms: C_7  and  C_8
REMARK    8  A    between atoms: C_10  and  O_11
REMARK    9  A    between atoms: C_13  and  O_14
REMARK   10  A    between atoms: O_14  and  C_15
REMARK                            x       y       z     vdW  Elec       q    Type
REMARK                         _______ _______ _______ _____ _____    ______ ____
ROOT
ATOM      1  C   UNL     1       4.429   5.035  17.853  0.00  0.00    +0.000 C 
ATOM      2  C   UNL     1       5.088   5.655  18.848  0.00  0.00    +0.000 C 
ATOM      3  C   UNL     1       6.576   5.859  18.866  0.00  0.00    +0.000 C 
ATOM      4  C   UNL     1       7.251   5.473  17.590  0.00  0.00    +0.000 C 
ATOM      5  C   UNL     1       6.629   4.857  16.573  0.00  0.00    +0.000 C 
ATOM      6  C   UNL     1       5.165   4.475  16.643  0.00  0.00    +0.000 C 
ENDROOT
BRANCH   3   7
ATOM      7  O   UNL     1       7.106   5.057  19.908  0.00  0.00    +0.000 OA
ATOM      8  H   UNL     1       7.085   5.607  20.709  0.00  0.00    +0.000 HD
ENDBRANCH   3   7
BRANCH   5   9
ATOM      9  O   UNL     1       7.342   4.640  15.405  0.00  0.00    +0.000 OA
ATOM     10  C   UNL     1       6.584   4.204  14.282  0.00  0.00    +0.000 C 
ENDBRANCH   5   9
BRANCH   1  11
ATOM     11  C   UNL     1       2.924   4.872  17.870  0.00  0.00    +0.000 C 
BRANCH  11  12
ATOM     12  C   UNL     1       2.479   3.564  17.215  0.00  0.00    +0.000 C 
BRANCH  12  13
ATOM     13  C   UNL     1       2.483   2.388  18.193  0.00  0.00    +0.000 C 
BRANCH  13  14
ATOM     14  C   UNL     1       1.077   2.177  18.760  0.00  0.00    +0.000 C 
BRANCH  14  15
ATOM     15  C   UNL     1       0.723   3.222  19.815  0.00  0.00    +0.000 C 
BRANCH  15  17
ATOM     16  C   UNL     1       2.323   3.830  21.660  0.00  0.00    +0.000 C 
ATOM     17  C   UNL     1       1.284   2.831  21.182  0.00  0.00    +0.000 C 
ENDBRANCH  15  17
ENDBRANCH  14  15
ENDBRANCH  13  14
ENDBRANCH  12  13
ENDBRANCH  11  12
ENDBRANCH   1  11
TORSDOF 8
ENDMDL
MODEL 4
REMARK VINA RESULT:      -5.9      1.910      2.933
REMARK  Name = 
REMARK  10 active torsions:
REMARK  status: ('A' for Active; 'I' for Inactive)
REMARK    1  A    between atoms: C_1  and  C_2
REMARK    2  A    between atoms: C_2  and  C_3
REMARK    3  A    between atoms: C_3  and  C_4
REMARK    4  A    between atoms: C_4  and  C_5
REMARK    5  A    between atoms: C_5  and  C_6
REMARK    6  A    between atoms: C_6  and  C_7
REMARK    7  A    between atoms: C_7  and  C_8
REMARK    8  A    between atoms: C_10  and  O_11
REMARK    9  A    between atoms: C_13  and  O_14
REMARK   10  A    between atoms: O_14  and  C_15
REMARK                            x       y       z     vdW  Elec       q    Type
REMARK                         _______ _______ _______ _____ _____    ______ ____
ROOT
ATOM      1  C   UNL     1       4.550   3.957  17.338  0.00  0.00    +0.000 C 
ATOM      2  C   UNL     1       4.701   4.673  18.468  0.00  0.00    +0.000 C 
ATOM      3  C   UNL     1       5.874   5.571  18.738  0.00  0.00    +0.000 C 
ATOM      4  C   UNL     1       6.779   5.748  17.561  0.00  0.00    +0.000 C 
ATOM      5  C   UNL     1       6.658   5.058  16.416  0.00  0.00    +0.000 C 
ATOM      6  C   UNL     1       5.587   4.006  16.224  0.00  0.00    +0.000 C 
ENDROOT
BRANCH   3   7
ATOM      7  O   UNL     1       6.625   4.991  19.791  0.00  0.00    +0.000 OA
ATOM      8  H   UNL     1       7.104   5.722  20.215  0.00  0.00    +0.000 HD
ENDBRANCH   3   7
BRANCH   5   9
ATOM      9  O   UNL     1       7.499   5.385  15.364  0.00  0.00    +0.000 OA
ATOM     10  C   UNL     1       7.114   4.898  14.084  0.00  0.00    +0.000 C 
ENDBRANCH   5   9
BRANCH   1  11
ATOM     11  C   UNL     1       3.338   3.081  17.104  0.00  0.00    +0.000 C 
BRANCH  11  12
ATOM     12  C   UNL     1       2.898   2.354  18.375  0.00  0.00    +0.000 C 
BRANCH  12  13
ATOM     13  C   UNL     1       1.378   2.321  18.536  0.00  0.00    +0.000 C 
BRANCH  13  14
ATOM     14  C   UNL     1       0.985   2.899  19.897  0.00  0.00    +0.000 C 
BRANCH  14  15
ATOM     15  C   UNL     1       2.158   2.908  20.875  0.00  0.00    +0.000 C 
BRANCH  15  17
ATOM     16  C   UNL     1       1.718   5.367  20.563  0.00  0.00    +0.000 C 
ATOM     17  C   UNL     1       2.405   4.316  21.418  0.00  0.00    +0.000 C 
ENDBRANCH  15  17
ENDBRANCH  14  15
ENDBRANCH  13  14
ENDBRANCH  12  13
ENDBRANCH  11  12
ENDBRANCH   1  11
TORSDOF 8
ENDMDL
MODEL 5
REMARK VINA RESULT:      -5.8      1.777      2.855
REMARK  Name = 
REMARK  10 active torsions:
REMARK  status: ('A' for Active; 'I' for Inactive)
REMARK    1  A    between atoms: C_1  and  C_2
REMARK    2  A    between atoms: C_2  and  C_3
REMARK    3  A    between atoms: C_3  and  C_4
REMARK    4  A    between atoms: C_4  and  C_5
REMARK    5  A    between atoms: C_5  and  C_6
REMARK    6  A    between atoms: C_6  and  C_7
REMARK    7  A    between atoms: C_7  and  C_8
REMARK    8  A    between atoms: C_10  and  O_11
REMARK    9  A    between atoms: C_13  and  O_14
REMARK   10  A    between atoms: O_14  and  C_15
REMARK                            x       y       z     vdW  Elec       q    Type
REMARK                         _______ _______ _______ _____ _____    ______ ____
ROOT
ATOM      1  C   UNL     1       4.968   3.942  17.984  0.00  0.00    +0.000 C 
ATOM      2  C   UNL     1       5.283   4.646  19.086  0.00  0.00    +0.000 C 
ATOM      3  C   UNL     1       6.404   5.644  19.149  0.00  0.00    +0.000 C 
ATOM      4  C   UNL     1       7.032   5.927  17.823  0.00  0.00    +0.000 C 
ATOM      5  C   UNL     1       6.742   5.251  16.700  0.00  0.00    +0.000 C 
ATOM      6  C   UNL     1       5.749   4.108  16.687  0.00  0.00    +0.000 C 
ENDROOT
BRANCH   3   7
ATOM      7  O   UNL     1       7.401   5.116  20.008  0.00  0.00    +0.000 OA
ATOM      8  H   UNL     1       7.589   5.809  20.662  0.00  0.00    +0.000 HD
ENDBRANCH   3   7
BRANCH   5   9
ATOM      9  O   UNL     1       7.321   5.674  15.514  0.00  0.00    +0.000 OA
ATOM     10  C   UNL     1       7.105   4.840  14.382  0.00  0.00    +0.000 C 
ENDBRANCH   5   9
BRANCH   1  11
ATOM     11  C   UNL     1       3.815   2.962  17.964  0.00  0.00    +0.000 C 
BRANCH  11  12
ATOM     12  C   UNL     1       3.087   2.902  19.308  0.00  0.00    +0.000 C 
BRANCH  12  13
ATOM     13  C   UNL     1       1.566   2.931  19.153  0.00  0.00    +0.000 C 
BRANCH  13  14
ATOM     14  C   UNL     1       0.957   3.898  20.171  0.00  0.00    +0.000 C 
BRANCH  14  15
ATOM     15  C   UNL     1       2.021   4.752  20.856  0.00  0.00    +0.000 C 
BRANCH  15  17
ATOM     16  C   UNL     1       2.447   6.709  19.332  0.00  0.00    +0.000 C 
ATOM     17  C   UNL     1       1.771   6.240  20.609  0.00  0.00    +0.000 C 
ENDBRANCH  15  17
ENDBRANCH  14  15
ENDBRANCH  13  14
ENDBRANCH  12  13
ENDBRANCH  11  12
ENDBRANCH   1  11
TORSDOF 8
ENDMDL
MODEL 6
REMARK VINA RESULT:      -5.8      1.864      2.973
REMARK  Name = 
REMARK  10 active torsions:
REMARK  status: ('A' for Active; 'I' for Inactive)
REMARK    1  A    between atoms: C_1  and  C_2
REMARK    2  A    between atoms: C_2  and  C_3
REMARK    3  A    between atoms: C_3  and  C_4
REMARK    4  A    between atoms: C_4  and  C_5
REMARK    5  A    between atoms: C_5  and  C_6
REMARK    6  A    between atoms: C_6  and  C_7
REMARK    7  A    between atoms: C_7  and  C_8
REMARK    8  A    between atoms: C_10  and  O_11
REMARK    9  A    between atoms: C_13  and  O_14
REMARK   10  A    between atoms: O_14  and  C_15
REMARK                            x       y       z     vdW  Elec       q    Type
REMARK                         _______ _______ _______ _____ _____    ______ ____
ROOT
ATOM      1  C   UNL     1       4.163   4.119  17.089  0.00  0.00    +0.000 C 
ATOM      2  C   UNL     1       4.852   4.400  15.968  0.00  0.00    +0.000 C 
ATOM      3  C   UNL     1       6.181   5.099  15.957  0.00  0.00    +0.000 C 
ATOM      4  C   UNL     1       6.767   5.298  17.317  0.00  0.00    +0.000 C 
ATOM      5  C   UNL     1       6.115   5.026  18.458  0.00  0.00    +0.000 C 
ATOM      6  C   UNL     1       4.694   4.504  18.463  0.00  0.00    +0.000 C 
ENDROOT
BRANCH   3   7
ATOM      7  O   UNL     1       5.989   6.374  15.366  0.00  0.00    +0.000 OA
ATOM      8  H   UNL     1       5.542   6.214  14.518  0.00  0.00    +0.000 HD
ENDBRANCH   3   7
BRANCH   5   9
ATOM      9  O   UNL     1       6.804   5.162  19.653  0.00  0.00    +0.000 OA
ATOM     10  C   UNL     1       8.090   5.766  19.566  0.00  0.00    +0.000 C 
ENDBRANCH   5   9
BRANCH   1  11
ATOM     11  C   UNL     1       2.836   3.392  17.051  0.00  0.00    +0.000 C 
BRANCH  11  12
ATOM     12  C   UNL     1       2.822   2.169  17.969  0.00  0.00    +0.000 C 
BRANCH  12  13
ATOM     13  C   UNL     1       1.445   1.912  18.583  0.00  0.00    +0.000 C 
BRANCH  13  14
ATOM     14  C   UNL     1       0.873   3.216  19.143  0.00  0.00    +0.000 C 
BRANCH  14  15
ATOM     15  C   UNL     1       0.965   3.273  20.666  0.00  0.00    +0.000 C 
BRANCH  15  17
ATOM     16  C   UNL     1       1.686   5.672  20.415  0.00  0.00    +0.000 C 
ATOM     17  C   UNL     1       1.954   4.350  21.114  0.00  0.00    +0.000 C 
ENDBRANCH  15  17
ENDBRANCH  14  15
ENDBRANCH  13  14
ENDBRANCH  12  13
ENDBRANCH  11  12
ENDBRANCH   1  11
TORSDOF 8
ENDMDL
MODEL 7
REMARK VINA RESULT:      -5.8      1.749      2.649
REMARK  Name = 
REMARK  10 active torsions:
REMARK  status: ('A' for Active; 'I' for Inactive)
REMARK    1  A    between atoms: C_1  and  C_2
REMARK    2  A    between atoms: C_2  and  C_3
REMARK    3  A    between atoms: C_3  and  C_4
REMARK    4  A    between atoms: C_4  and  C_5
REMARK    5  A    between atoms: C_5  and  C_6
REMARK    6  A    between atoms: C_6  and  C_7
REMARK    7  A    between atoms: C_7  and  C_8
REMARK    8  A    between atoms: C_10  and  O_11
REMARK    9  A    between atoms: C_13  and  O_14
REMARK   10  A    between atoms: O_14  and  C_15
REMARK                            x       y       z     vdW  Elec       q    Type
REMARK                         _______ _______ _______ _____ _____    ______ ____
ROOT
ATOM      1  C   UNL     1       4.332   5.290  17.798  0.00  0.00    +0.000 C 
ATOM      2  C   UNL     1       5.386   5.838  18.429  0.00  0.00    +0.000 C 
ATOM      3  C   UNL     1       6.817   5.524  18.096  0.00  0.00    +0.000 C 
ATOM      4  C   UNL     1       6.978   4.682  16.872  0.00  0.00    +0.000 C 
ATOM      5  C   UNL     1       5.953   4.122  16.211  0.00  0.00    +0.000 C 
ATOM      6  C   UNL     1       4.519   4.282  16.672  0.00  0.00    +0.000 C 
ENDROOT
BRANCH   3   7
ATOM      7  O   UNL     1       7.367   4.818  19.195  0.00  0.00    +0.000 OA
ATOM      8  H   UNL     1       7.870   4.078  18.816  0.00  0.00    +0.000 HD
ENDBRANCH   3   7
BRANCH   5   9
ATOM      9  O   UNL     1       6.226   3.444  15.033  0.00  0.00    +0.000 OA
ATOM     10  C   UNL     1       6.380   4.251  13.871  0.00  0.00    +0.000 C 
ENDBRANCH   5   9
BRANCH   1  11
ATOM     11  C   UNL     1       2.907   5.655  18.156  0.00  0.00    +0.000 C 
BRANCH  11  12
ATOM     12  C   UNL     1       2.813   6.330  19.525  0.00  0.00    +0.000 C 
BRANCH  12  13
ATOM     13  C   UNL     1       1.800   5.648  20.446  0.00  0.00    +0.000 C 
BRANCH  13  14
ATOM     14  C   UNL     1       2.298   4.252  20.825  0.00  0.00    +0.000 C 
BRANCH  14  15
ATOM     15  C   UNL     1       1.174   3.218  20.802  0.00  0.00    +0.000 C 
BRANCH  15  17
ATOM     16  C   UNL     1       2.090   2.123  18.729  0.00  0.00    +0.000 C 
ATOM     17  C   UNL     1       0.874   2.769  19.372  0.00  0.00    +0.000 C 
ENDBRANCH  15  17
ENDBRANCH  14  15
ENDBRANCH  13  14
ENDBRANCH  12  13
ENDBRANCH  11  12
ENDBRANCH   1  11
TORSDOF 8
ENDMDL
MODEL 8
REMARK VINA RESULT:      -5.8      2.174      3.168
REMARK  Name = 
REMARK  10 active torsions:
REMARK  status: ('A' for Active; 'I' for Inactive)
REMARK    1  A    between atoms: C_1  and  C_2
REMARK    2  A    between atoms: C_2  and  C_3
REMARK    3  A    between atoms: C_3  and  C_4
REMARK    4  A    between atoms: C_4  and  C_5
REMARK    5  A    between atoms: C_5  and  C_6
REMARK    6  A    between atoms: C_6  and  C_7
REMARK    7  A    between atoms: C_7  and  C_8
REMARK    8  A    between atoms: C_10  and  O_11
REMARK    9  A    between atoms: C_13  and  O_14
REMARK   10  A    between atoms: O_14  and  C_15
REMARK                            x       y       z     vdW  Elec       q    Type
REMARK                         _______ _______ _______ _____ _____    ______ ____
ROOT
ATOM      1  C   UNL     1       4.849   4.717  17.130  0.00  0.00    +0.000 C 
ATOM      2  C   UNL     1       5.917   4.996  17.901  0.00  0.00    +0.000 C 
ATOM      3  C   UNL     1       7.328   5.043  17.389  0.00  0.00    +0.000 C 
ATOM      4  C   UNL     1       7.432   4.932  15.902  0.00  0.00    +0.000 C 
ATOM      5  C   UNL     1       6.392   4.660  15.099  0.00  0.00    +0.000 C 
ATOM      6  C   UNL     1       5.001   4.417  15.645  0.00  0.00    +0.000 C 
ENDROOT
BRANCH   3   7
ATOM      7  O   UNL     1       8.029   3.954  17.965  0.00  0.00    +0.000 OA
ATOM      8  H   UNL     1       8.224   3.342  17.235  0.00  0.00    +0.000 HD
ENDBRANCH   3   7
BRANCH   5   9
ATOM      9  O   UNL     1       6.601   4.680  13.729  0.00  0.00    +0.000 OA
ATOM     10  C   UNL     1       6.123   3.550  13.008  0.00  0.00    +0.000 C 
ENDBRANCH   5   9
BRANCH   1  11
ATOM     11  C   UNL     1       3.443   4.702  17.689  0.00  0.00    +0.000 C 
BRANCH  11  12
ATOM     12  C   UNL     1       2.632   3.511  17.175  0.00  0.00    +0.000 C 
BRANCH  12  13
ATOM     13  C   UNL     1       2.624   2.340  18.158  0.00  0.00    +0.000 C 
BRANCH  13  14
ATOM     14  C   UNL     1       1.203   2.102  18.672  0.00  0.00    +0.000 C 
BRANCH  14  15
ATOM     15  C   UNL     1       0.743   3.210  19.617  0.00  0.00    +0.000 C 
BRANCH  15  17
ATOM     16  C   UNL     1       2.241   4.475  21.195  0.00  0.00    +0.000 C 
ATOM     17  C   UNL     1       1.521   3.164  20.933  0.00  0.00    +0.000 C 
ENDBRANCH  15  17
ENDBRANCH  14  15
ENDBRANCH  13  14
ENDBRANCH  12  13
ENDBRANCH  11  12
ENDBRANCH   1  11
TORSDOF 8
ENDMDL
MODEL 9
REMARK VINA RESULT:      -5.8      0.898      1.631
REMARK  Name = 
REMARK  10 active torsions:
REMARK  status: ('A' for Active; 'I' for Inactive)
REMARK    1  A    between atoms: C_1  and  C_2
REMARK    2  A    between atoms: C_2  and  C_3
REMARK    3  A    between atoms: C_3  and  C_4
REMARK    4  A    between atoms: C_4  and  C_5
REMARK    5  A    between atoms: C_5  and  C_6
REMARK    6  A    between atoms: C_6  and  C_7
REMARK    7  A    between atoms: C_7  and  C_8
REMARK    8  A    between atoms: C_10  and  O_11
REMARK    9  A    between atoms: C_13  and  O_14
REMARK   10  A    between atoms: O_14  and  C_15
REMARK                            x       y       z     vdW  Elec       q    Type
REMARK                         _______ _______ _______ _____ _____    ______ ____
ROOT
ATOM      1  C   UNL     1       5.076   5.226  17.722  0.00  0.00    +0.000 C 
ATOM      2  C   UNL     1       6.019   4.477  18.322  0.00  0.00    +0.000 C 
ATOM      3  C   UNL     1       7.451   4.902  18.476  0.00  0.00    +0.000 C 
ATOM      4  C   UNL     1       7.705   6.317  18.068  0.00  0.00    +0.000 C 
ATOM      5  C   UNL     1       6.791   7.098  17.472  0.00  0.00    +0.000 C 
ATOM      6  C   UNL     1       5.402   6.594  17.139  0.00  0.00    +0.000 C 
ENDROOT
BRANCH   3   7
ATOM      7  O   UNL     1       8.241   4.056  17.657  0.00  0.00    +0.000 OA
ATOM      8  H   UNL     1       8.760   4.644  17.084  0.00  0.00    +0.000 HD
ENDBRANCH   3   7
BRANCH   5   9
ATOM      9  O   UNL     1       7.119   8.423  17.232  0.00  0.00    +0.000 OA
ATOM     10  C   UNL     1       8.214   8.940  17.980  0.00  0.00    +0.000 C 
ENDBRANCH   5   9
BRANCH   1  11
ATOM     11  C   UNL     1       3.639   4.762  17.609  0.00  0.00    +0.000 C 
BRANCH  11  12
ATOM     12  C   UNL     1       3.522   3.426  16.874  0.00  0.00    +0.000 C 
BRANCH  12  13
ATOM     13  C   UNL     1       2.461   2.511  17.487  0.00  0.00    +0.000 C 
BRANCH  13  14
ATOM     14  C   UNL     1       2.408   2.717  19.003  0.00  0.00    +0.000 C 
BRANCH  14  15
ATOM     15  C   UNL     1       1.023   3.156  19.472  0.00  0.00    +0.000 C 
BRANCH  15  17
ATOM     16  C   UNL     1       2.228   3.534  21.650  0.00  0.00    +0.000 C 
ATOM     17  C   UNL     1       1.121   4.020  20.730  0.00  0.00    +0.000 C 
ENDBRANCH  15  17
ENDBRANCH  14  15
ENDBRANCH  13  14
ENDBRANCH  12  13
ENDBRANCH  11  12
ENDBRANCH   1  11
TORSDOF 8
ENDMDL
