MODEL 1
REMARK VINA RESULT:      -8.5      0.000      0.000
REMARK  Name = 
REMARK  7 active torsions:
REMARK  status: ('A' for Active; 'I' for Inactive)
REMARK    1  A    between atoms: C_1  and  O_2
REMARK    2  A    between atoms: O_2  and  C_3
REMARK    3  A    between atoms: C_7  and  C_8
REMARK    4  A    between atoms: N_11  and  C_12
REMARK    5  A    between atoms: C_12  and  C_13
REMARK    6  A    between atoms: C_13  and  N_14
REMARK    7  A    between atoms: C_15  and  C_16
REMARK                            x       y       z     vdW  Elec       q    Type
REMARK                         _______ _______ _______ _____ _____    ______ ____
ROOT
ATOM      1  C   UNL     1       3.768   6.418  18.067  0.00  0.00    +0.000 A 
ATOM      2  N   UNL     1       3.218   5.822  19.128  0.00  0.00    +0.000 NA
ATOM      3  C   UNL     1       2.303   6.508  19.816  0.00  0.00    +0.000 A 
ATOM      4  N   UNL     1       1.657   5.861  20.891  0.00  0.00    +0.000 N 
ATOM      5  C   UNL     1       1.937   7.814  19.477  0.00  0.00    +0.000 A 
ATOM      6  C   UNL     1       1.090   8.633  20.270  0.00  0.00    +0.000 A 
ATOM      7  C   UNL     1       0.734   9.905  19.843  0.00  0.00    +0.000 A 
ATOM      8  C   UNL     1       1.197  10.354  18.611  0.00  0.00    +0.000 A 
ATOM      9  C   UNL     1       2.068   9.558  17.856  0.00  0.00    +0.000 A 
ATOM     10  C   UNL     1       2.487   8.303  18.289  0.00  0.00    +0.000 A 
ATOM     11  N   UNL     1       3.407   7.623  17.591  0.00  0.00    +0.000 NA
ATOM     12  H   UNL     1       0.706   5.669  20.572  0.00  0.00    +0.000 HD
ENDROOT
BRANCH   1  17
ATOM     13  C   UNL     1       6.370   5.210  15.594  0.00  0.00    +0.000 A 
ATOM     14  C   UNL     1       7.344   4.692  16.449  0.00  0.00    +0.000 A 
ATOM     15  C   UNL     1       7.126   4.666  17.824  0.00  0.00    +0.000 A 
ATOM     16  C   UNL     1       5.943   5.190  18.347  0.00  0.00    +0.000 A 
ATOM     17  C   UNL     1       4.955   5.749  17.510  0.00  0.00    +0.000 A 
ATOM     18  C   UNL     1       5.191   5.737  16.126  0.00  0.00    +0.000 A 
BRANCH  13  20
ATOM     19  C   UNL     1       6.358   3.987  13.577  0.00  0.00    +0.000 C 
ATOM     20  O   UNL     1       6.687   5.191  14.263  0.00  0.00    +0.000 OA
ENDBRANCH  13  20
ENDBRANCH   1  17
BRANCH   4  21
ATOM     21  C   UNL     1       2.330   4.630  21.307  0.00  0.00    +0.000 C 
BRANCH  21  22
ATOM     22  C   UNL     1       1.556   3.422  20.773  0.00  0.00    +0.000 C 
BRANCH  22  23
ATOM     23  N   UNL     1       2.321   2.673  19.796  0.00  0.00    +0.000 N 
ATOM     24  C   UNL     1       2.031   2.758  18.455  0.00  0.00    +0.000 C 
ATOM     25  C   UNL     1       2.991   2.009  17.569  0.00  0.00    +0.000 C 
ATOM     26  O   UNL     1       1.081   3.382  18.004  0.00  0.00    +0.000 OA
ATOM     27  H   UNL     1       3.211   2.290  20.088  0.00  0.00    +0.000 HD
ENDBRANCH  22  23
ENDBRANCH  21  22
ENDBRANCH   4  21
TORSDOF 5
ENDMDL
MODEL 2
REMARK VINA RESULT:      -8.0      1.030      1.850
REMARK  Name = 
REMARK  7 active torsions:
REMARK  status: ('A' for Active; 'I' for Inactive)
REMARK    1  A    between atoms: C_1  and  O_2
REMARK    2  A    between atoms: O_2  and  C_3
REMARK    3  A    between atoms: C_7  and  C_8
REMARK    4  A    between atoms: N_11  and  C_12
REMARK    5  A    between atoms: C_12  and  C_13
REMARK    6  A    between atoms: C_13  and  N_14
REMARK    7  A    between atoms: C_15  and  C_16
REMARK                            x       y       z     vdW  Elec       q    Type
REMARK                         _______ _______ _______ _____ _____    ______ ____
ROOT
ATOM      1  C   UNL     1       3.663   6.565  18.025  0.00  0.00    +0.000 A 
ATOM      2  N   UNL     1       3.132   5.950  19.085  0.00  0.00    +0.000 NA
ATOM      3  C   UNL     1       2.226   6.620  19.798  0.00  0.00    +0.000 A 
ATOM      4  N   UNL     1       1.599   5.953  20.873  0.00  0.00    +0.000 N 
ATOM      5  C   UNL     1       1.849   7.930  19.487  0.00  0.00    +0.000 A 
ATOM      6  C   UNL     1       1.012   8.732  20.307  0.00  0.00    +0.000 A 
ATOM      7  C   UNL     1       0.644  10.009  19.908  0.00  0.00    +0.000 A 
ATOM      8  C   UNL     1       1.086  10.481  18.676  0.00  0.00    +0.000 A 
ATOM      9  C   UNL     1       1.948   9.701  17.894  0.00  0.00    +0.000 A 
ATOM     10  C   UNL     1       2.379   8.441  18.300  0.00  0.00    +0.000 A 
ATOM     11  N   UNL     1       3.289   7.776  17.575  0.00  0.00    +0.000 NA
ATOM     12  H   UNL     1       0.644   5.762  20.566  0.00  0.00    +0.000 HD
ENDROOT
BRANCH   1  17
ATOM     13  C   UNL     1       7.054   4.908  17.706  0.00  0.00    +0.000 A 
ATOM     14  C   UNL     1       7.009   4.440  16.392  0.00  0.00    +0.000 A 
ATOM     15  C   UNL     1       5.912   4.725  15.584  0.00  0.00    +0.000 A 
ATOM     16  C   UNL     1       4.842   5.453  16.104  0.00  0.00    +0.000 A 
ATOM     17  C   UNL     1       4.844   5.911  17.438  0.00  0.00    +0.000 A 
ATOM     18  C   UNL     1       5.975   5.632  18.220  0.00  0.00    +0.000 A 
BRANCH  13  20
ATOM     19  C   UNL     1       8.369   5.288  19.627  0.00  0.00    +0.000 C 
ATOM     20  O   UNL     1       8.175   4.568  18.414  0.00  0.00    +0.000 OA
ENDBRANCH  13  20
ENDBRANCH   1  17
BRANCH   4  21
ATOM     21  C   UNL     1       2.284   4.718  21.257  0.00  0.00    +0.000 C 
BRANCH  21  22
ATOM     22  C   UNL     1       1.501   3.515  20.724  0.00  0.00    +0.000 C 
BRANCH  22  23
ATOM     23  N   UNL     1       2.265   2.750  19.760  0.00  0.00    +0.000 N 
ATOM     24  C   UNL     1       1.996   2.836  18.415  0.00  0.00    +0.000 C 
ATOM     25  C   UNL     1       2.954   2.069  17.544  0.00  0.00    +0.000 C 
ATOM     26  O   UNL     1       1.064   3.477  17.949  0.00  0.00    +0.000 OA
ATOM     27  H   UNL     1       3.143   2.351  20.066  0.00  0.00    +0.000 HD
ENDBRANCH  22  23
ENDBRANCH  21  22
ENDBRANCH   4  21
TORSDOF 5
ENDMDL
MODEL 3
REMARK VINA RESULT:      -8.0      3.433      5.677
REMARK  Name = 
REMARK  7 active torsions:
REMARK  status: ('A' for Active; 'I' for Inactive)
REMARK    1  A    between atoms: C_1  and  O_2
REMARK    2  A    between atoms: O_2  and  C_3
REMARK    3  A    between atoms: C_7  and  C_8
REMARK    4  A    between atoms: N_11  and  C_12
REMARK    5  A    between atoms: C_12  and  C_13
REMARK    6  A    between atoms: C_13  and  N_14
REMARK    7  A    between atoms: C_15  and  C_16
REMARK                            x       y       z     vdW  Elec       q    Type
REMARK                         _______ _______ _______ _____ _____    ______ ____
ROOT
ATOM      1  C   UNL     1       5.469   4.219  16.204  0.00  0.00    +0.000 A 
ATOM      2  N   UNL     1       6.275   4.675  17.167  0.00  0.00    +0.000 NA
ATOM      3  C   UNL     1       5.724   4.969  18.346  0.00  0.00    +0.000 A 
ATOM      4  N   UNL     1       6.575   5.376  19.395  0.00  0.00    +0.000 N 
ATOM      5  C   UNL     1       4.352   4.843  18.582  0.00  0.00    +0.000 A 
ATOM      6  C   UNL     1       3.703   5.294  19.763  0.00  0.00    +0.000 A 
ATOM      7  C   UNL     1       2.343   5.090  19.944  0.00  0.00    +0.000 A 
ATOM      8  C   UNL     1       1.628   4.412  18.963  0.00  0.00    +0.000 A 
ATOM      9  C   UNL     1       2.265   4.012  17.781  0.00  0.00    +0.000 A 
ATOM     10  C   UNL     1       3.616   4.256  17.549  0.00  0.00    +0.000 A 
ATOM     11  N   UNL     1       4.159   3.955  16.361  0.00  0.00    +0.000 NA
ATOM     12  H   UNL     1       6.610   4.592  20.048  0.00  0.00    +0.000 HD
ENDROOT
BRANCH   1  17
ATOM     13  C   UNL     1       5.942   3.446  12.527  0.00  0.00    +0.000 A 
ATOM     14  C   UNL     1       7.025   4.267  12.210  0.00  0.00    +0.000 A 
ATOM     15  C   UNL     1       7.651   5.016  13.203  0.00  0.00    +0.000 A 
ATOM     16  C   UNL     1       7.170   4.967  14.511  0.00  0.00    +0.000 A 
ATOM     17  C   UNL     1       6.057   4.172  14.855  0.00  0.00    +0.000 A 
ATOM     18  C   UNL     1       5.464   3.407  13.839  0.00  0.00    +0.000 A 
BRANCH  13  20
ATOM     19  C   UNL     1       4.042   3.071  11.180  0.00  0.00    +0.000 C 
ATOM     20  O   UNL     1       5.399   2.757  11.476  0.00  0.00    +0.000 OA
ENDBRANCH  13  20
ENDBRANCH   1  17
BRANCH   4  21
ATOM     21  C   UNL     1       7.917   5.737  18.936  0.00  0.00    +0.000 C 
BRANCH  21  22
ATOM     22  C   UNL     1       7.869   7.104  18.249  0.00  0.00    +0.000 C 
BRANCH  22  23
ATOM     23  N   UNL     1       8.679   8.089  18.936  0.00  0.00    +0.000 N 
ATOM     24  C   UNL     1       8.622   9.418  18.590  0.00  0.00    +0.000 C 
ATOM     25  C   UNL     1       9.436  10.322  19.477  0.00  0.00    +0.000 C 
ATOM     26  O   UNL     1       7.971   9.846  17.648  0.00  0.00    +0.000 OA
ATOM     27  H   UNL     1       9.091   7.825  19.822  0.00  0.00    +0.000 HD
ENDBRANCH  22  23
ENDBRANCH  21  22
ENDBRANCH   4  21
TORSDOF 5
ENDMDL
MODEL 4
REMARK VINA RESULT:      -7.8      2.317      5.184
REMARK  Name = 
REMARK  7 active torsions:
REMARK  status: ('A' for Active; 'I' for Inactive)
REMARK    1  A    between atoms: C_1  and  O_2
REMARK    2  A    between atoms: O_2  and  C_3
REMARK    3  A    between atoms: C_7  and  C_8
REMARK    4  A    between atoms: N_11  and  C_12
REMARK    5  A    between atoms: C_12  and  C_13
REMARK    6  A    between atoms: C_13  and  N_14
REMARK    7  A    between atoms: C_15  and  C_16
REMARK                            x       y       z     vdW  Elec       q    Type
REMARK                         _______ _______ _______ _____ _____    ______ ____
ROOT
ATOM      1  C   UNL     1       4.731   4.778  17.824  0.00  0.00    +0.000 A 
ATOM      2  N   UNL     1       4.025   5.904  17.957  0.00  0.00    +0.000 NA
ATOM      3  C   UNL     1       3.079   5.934  18.897  0.00  0.00    +0.000 A 
ATOM      4  N   UNL     1       2.380   7.143  19.100  0.00  0.00    +0.000 N 
ATOM      5  C   UNL     1       2.795   4.830  19.707  0.00  0.00    +0.000 A 
ATOM      6  C   UNL     1       1.697   4.765  20.605  0.00  0.00    +0.000 A 
ATOM      7  C   UNL     1       1.508   3.651  21.412  0.00  0.00    +0.000 A 
ATOM      8  C   UNL     1       2.429   2.611  21.347  0.00  0.00    +0.000 A 
ATOM      9  C   UNL     1       3.484   2.663  20.425  0.00  0.00    +0.000 A 
ATOM     10  C   UNL     1       3.661   3.743  19.564  0.00  0.00    +0.000 A 
ATOM     11  N   UNL     1       4.615   3.702  18.624  0.00  0.00    +0.000 NA
ATOM     12  H   UNL     1       2.723   7.519  19.985  0.00  0.00    +0.000 HD
ENDROOT
BRANCH   1  17
ATOM     13  C   UNL     1       5.777   4.176  14.235  0.00  0.00    +0.000 A 
ATOM     14  C   UNL     1       7.054   4.739  14.222  0.00  0.00    +0.000 A 
ATOM     15  C   UNL     1       7.608   5.247  15.394  0.00  0.00    +0.000 A 
ATOM     16  C   UNL     1       6.867   5.221  16.576  0.00  0.00    +0.000 A 
ATOM     17  C   UNL     1       5.561   4.689  16.612  0.00  0.00    +0.000 A 
ATOM     18  C   UNL     1       5.040   4.159  15.421  0.00  0.00    +0.000 A 
BRANCH  13  20
ATOM     19  C   UNL     1       6.343   3.281  12.127  0.00  0.00    +0.000 C 
ATOM     20  O   UNL     1       5.328   3.711  13.029  0.00  0.00    +0.000 OA
ENDBRANCH  13  20
ENDBRANCH   1  17
BRANCH   4  21
ATOM     21  C   UNL     1       2.571   8.104  18.013  0.00  0.00    +0.000 C 
BRANCH  21  22
ATOM     22  C   UNL     1       1.482   9.176  18.084  0.00  0.00    +0.000 C 
BRANCH  22  23
ATOM     23  N   UNL     1       2.004  10.503  17.826  0.00  0.00    +0.000 N 
ATOM     24  C   UNL     1       1.689  11.560  18.646  0.00  0.00    +0.000 C 
ATOM     25  C   UNL     1       2.405  12.839  18.306  0.00  0.00    +0.000 C 
ATOM     26  O   UNL     1       0.897  11.484  19.576  0.00  0.00    +0.000 OA
ATOM     27  H   UNL     1       2.788  10.585  17.191  0.00  0.00    +0.000 HD
ENDBRANCH  22  23
ENDBRANCH  21  22
ENDBRANCH   4  21
TORSDOF 5
ENDMDL
MODEL 5
REMARK VINA RESULT:      -7.8      2.054      6.029
REMARK  Name = 
REMARK  7 active torsions:
REMARK  status: ('A' for Active; 'I' for Inactive)
REMARK    1  A    between atoms: C_1  and  O_2
REMARK    2  A    between atoms: O_2  and  C_3
REMARK    3  A    between atoms: C_7  and  C_8
REMARK    4  A    between atoms: N_11  and  C_12
REMARK    5  A    between atoms: C_12  and  C_13
REMARK    6  A    between atoms: C_13  and  N_14
REMARK    7  A    between atoms: C_15  and  C_16
REMARK                            x       y       z     vdW  Elec       q    Type
REMARK                         _______ _______ _______ _____ _____    ______ ____
ROOT
ATOM      1  C   UNL     1       3.238   6.611  18.172  0.00  0.00    +0.000 A 
ATOM      2  N   UNL     1       2.676   5.407  18.032  0.00  0.00    +0.000 NA
ATOM      3  C   UNL     1       3.355   4.483  17.350  0.00  0.00    +0.000 A 
ATOM      4  N   UNL     1       2.808   3.185  17.263  0.00  0.00    +0.000 N 
ATOM      5  C   UNL     1       4.598   4.748  16.767  0.00  0.00    +0.000 A 
ATOM      6  C   UNL     1       5.278   3.849  15.903  0.00  0.00    +0.000 A 
ATOM      7  C   UNL     1       6.532   4.164  15.400  0.00  0.00    +0.000 A 
ATOM      8  C   UNL     1       7.126   5.363  15.778  0.00  0.00    +0.000 A 
ATOM      9  C   UNL     1       6.430   6.265  16.594  0.00  0.00    +0.000 A 
ATOM     10  C   UNL     1       5.146   5.998  17.064  0.00  0.00    +0.000 A 
ATOM     11  N   UNL     1       4.474   6.933  17.749  0.00  0.00    +0.000 NA
ATOM     12  H   UNL     1       3.382   2.598  17.870  0.00  0.00    +0.000 HD
ENDROOT
BRANCH   1  17
ATOM     13  C   UNL     1       1.259   8.787  20.557  0.00  0.00    +0.000 A 
ATOM     14  C   UNL     1       0.861   9.827  19.715  0.00  0.00    +0.000 A 
ATOM     15  C   UNL     1       1.169   9.787  18.358  0.00  0.00    +0.000 A 
ATOM     16  C   UNL     1       1.907   8.718  17.849  0.00  0.00    +0.000 A 
ATOM     17  C   UNL     1       2.351   7.670  18.681  0.00  0.00    +0.000 A 
ATOM     18  C   UNL     1       2.002   7.724  20.039  0.00  0.00    +0.000 A 
BRANCH  13  20
ATOM     19  C   UNL     1      -0.492   8.990  22.124  0.00  0.00    +0.000 C 
ATOM     20  O   UNL     1       0.908   8.929  21.872  0.00  0.00    +0.000 OA
ENDBRANCH  13  20
ENDBRANCH   1  17
BRANCH   4  21
ATOM     21  C   UNL     1       1.400   3.129  17.659  0.00  0.00    +0.000 C 
BRANCH  21  22
ATOM     22  C   UNL     1       1.209   2.030  18.707  0.00  0.00    +0.000 C 
BRANCH  22  23
ATOM     23  N   UNL     1       1.229   2.555  20.057  0.00  0.00    +0.000 N 
ATOM     24  C   UNL     1       2.416   2.766  20.717  0.00  0.00    +0.000 C 
ATOM     25  C   UNL     1       2.264   3.421  22.064  0.00  0.00    +0.000 C 
ATOM     26  O   UNL     1       3.508   2.455  20.264  0.00  0.00    +0.000 OA
ATOM     27  H   UNL     1       0.383   2.988  20.406  0.00  0.00    +0.000 HD
ENDBRANCH  22  23
ENDBRANCH  21  22
ENDBRANCH   4  21
TORSDOF 5
ENDMDL
MODEL 6
REMARK VINA RESULT:      -7.7      2.671      6.946
REMARK  Name = 
REMARK  7 active torsions:
REMARK  status: ('A' for Active; 'I' for Inactive)
REMARK    1  A    between atoms: C_1  and  O_2
REMARK    2  A    between atoms: O_2  and  C_3
REMARK    3  A    between atoms: C_7  and  C_8
REMARK    4  A    between atoms: N_11  and  C_12
REMARK    5  A    between atoms: C_12  and  C_13
REMARK    6  A    between atoms: C_13  and  N_14
REMARK    7  A    between atoms: C_15  and  C_16
REMARK                            x       y       z     vdW  Elec       q    Type
REMARK                         _______ _______ _______ _____ _____    ______ ____
ROOT
ATOM      1  C   UNL     1       2.324   6.667  19.064  0.00  0.00    +0.000 A 
ATOM      2  N   UNL     1       3.255   6.320  18.171  0.00  0.00    +0.000 NA
ATOM      3  C   UNL     1       3.853   5.138  18.330  0.00  0.00    +0.000 A 
ATOM      4  N   UNL     1       4.781   4.725  17.350  0.00  0.00    +0.000 N 
ATOM      5  C   UNL     1       3.556   4.288  19.399  0.00  0.00    +0.000 A 
ATOM      6  C   UNL     1       4.276   3.100  19.694  0.00  0.00    +0.000 A 
ATOM      7  C   UNL     1       3.891   2.282  20.746  0.00  0.00    +0.000 A 
ATOM      8  C   UNL     1       2.769   2.629  21.492  0.00  0.00    +0.000 A 
ATOM      9  C   UNL     1       2.091   3.826  21.223  0.00  0.00    +0.000 A 
ATOM     10  C   UNL     1       2.493   4.693  20.210  0.00  0.00    +0.000 A 
ATOM     11  N   UNL     1       1.885   5.877  20.060  0.00  0.00    +0.000 NA
ATOM     12  H   UNL     1       4.319   3.982  16.822  0.00  0.00    +0.000 HD
ENDROOT
BRANCH   1  17
ATOM     13  C   UNL     1       0.948  10.031  20.130  0.00  0.00    +0.000 A 
ATOM     14  C   UNL     1       1.290  10.828  19.037  0.00  0.00    +0.000 A 
ATOM     15  C   UNL     1       1.900  10.261  17.921  0.00  0.00    +0.000 A 
ATOM     16  C   UNL     1       2.199   8.899  17.913  0.00  0.00    +0.000 A 
ATOM     17  C   UNL     1       1.894   8.075  19.017  0.00  0.00    +0.000 A 
ATOM     18  C   UNL     1       1.255   8.668  20.116  0.00  0.00    +0.000 A 
BRANCH  13  20
ATOM     19  C   UNL     1       0.098   9.891  22.326  0.00  0.00    +0.000 C 
ATOM     20  O   UNL     1       0.357  10.688  21.175  0.00  0.00    +0.000 OA
ENDBRANCH  13  20
ENDBRANCH   1  17
BRANCH   4  21
ATOM     21  C   UNL     1       5.202   5.813  16.466  0.00  0.00    +0.000 C 
BRANCH  21  22
ATOM     22  C   UNL     1       6.720   5.981  16.553  0.00  0.00    +0.000 C 
BRANCH  22  23
ATOM     23  N   UNL     1       7.102   7.349  16.840  0.00  0.00    +0.000 N 
ATOM     24  C   UNL     1       7.867   7.654  17.941  0.00  0.00    +0.000 C 
ATOM     25  C   UNL     1       8.271   9.101  18.029  0.00  0.00    +0.000 C 
ATOM     26  O   UNL     1       8.199   6.833  18.784  0.00  0.00    +0.000 OA
ATOM     27  H   UNL     1       7.010   8.029  16.096  0.00  0.00    +0.000 HD
ENDBRANCH  22  23
ENDBRANCH  21  22
ENDBRANCH   4  21
TORSDOF 5
ENDMDL
MODEL 7
REMARK VINA RESULT:      -7.7      2.098      4.876
REMARK  Name = 
REMARK  7 active torsions:
REMARK  status: ('A' for Active; 'I' for Inactive)
REMARK    1  A    between atoms: C_1  and  O_2
REMARK    2  A    between atoms: O_2  and  C_3
REMARK    3  A    between atoms: C_7  and  C_8
REMARK    4  A    between atoms: N_11  and  C_12
REMARK    5  A    between atoms: C_12  and  C_13
REMARK    6  A    between atoms: C_13  and  N_14
REMARK    7  A    between atoms: C_15  and  C_16
REMARK                            x       y       z     vdW  Elec       q    Type
REMARK                         _______ _______ _______ _____ _____    ______ ____
ROOT
ATOM      1  C   UNL     1       4.675   4.832  17.684  0.00  0.00    +0.000 A 
ATOM      2  N   UNL     1       3.946   5.948  17.757  0.00  0.00    +0.000 NA
ATOM      3  C   UNL     1       2.978   5.995  18.674  0.00  0.00    +0.000 A 
ATOM      4  N   UNL     1       2.253   7.198  18.816  0.00  0.00    +0.000 N 
ATOM      5  C   UNL     1       2.697   4.918  19.520  0.00  0.00    +0.000 A 
ATOM      6  C   UNL     1       1.580   4.865  20.396  0.00  0.00    +0.000 A 
ATOM      7  C   UNL     1       1.393   3.779  21.240  0.00  0.00    +0.000 A 
ATOM      8  C   UNL     1       2.334   2.755  21.235  0.00  0.00    +0.000 A 
ATOM      9  C   UNL     1       3.408   2.793  20.336  0.00  0.00    +0.000 A 
ATOM     10  C   UNL     1       3.585   3.842  19.438  0.00  0.00    +0.000 A 
ATOM     11  N   UNL     1       4.561   3.785  18.522  0.00  0.00    +0.000 NA
ATOM     12  H   UNL     1       2.568   7.614  19.693  0.00  0.00    +0.000 HD
ENDROOT
BRANCH   1  17
ATOM     13  C   UNL     1       5.804   4.157  14.132  0.00  0.00    +0.000 A 
ATOM     14  C   UNL     1       7.087   4.706  14.142  0.00  0.00    +0.000 A 
ATOM     15  C   UNL     1       7.617   5.228  15.319  0.00  0.00    +0.000 A 
ATOM     16  C   UNL     1       6.846   5.231  16.482  0.00  0.00    +0.000 A 
ATOM     17  C   UNL     1       5.534   4.713  16.494  0.00  0.00    +0.000 A 
ATOM     18  C   UNL     1       5.038   4.168  15.300  0.00  0.00    +0.000 A 
BRANCH  13  20
ATOM     19  C   UNL     1       6.414   3.247  12.043  0.00  0.00    +0.000 C 
ATOM     20  O   UNL     1       5.380   3.676  12.923  0.00  0.00    +0.000 OA
ENDBRANCH  13  20
ENDBRANCH   1  17
BRANCH   4  21
ATOM     21  C   UNL     1       2.451   8.120  17.697  0.00  0.00    +0.000 C 
BRANCH  21  22
ATOM     22  C   UNL     1       2.195   9.553  18.168  0.00  0.00    +0.000 C 
BRANCH  22  23
ATOM     23  N   UNL     1       0.837   9.982  17.900  0.00  0.00    +0.000 N 
ATOM     24  C   UNL     1      -0.112   9.988  18.894  0.00  0.00    +0.000 C 
ATOM     25  C   UNL     1      -1.437  10.569  18.477  0.00  0.00    +0.000 C 
ATOM     26  O   UNL     1       0.086   9.563  20.023  0.00  0.00    +0.000 OA
ATOM     27  H   UNL     1       0.667  10.501  17.048  0.00  0.00    +0.000 HD
ENDBRANCH  22  23
ENDBRANCH  21  22
ENDBRANCH   4  21
TORSDOF 5
ENDMDL
MODEL 8
REMARK VINA RESULT:      -7.7      2.392      6.863
REMARK  Name = 
REMARK  7 active torsions:
REMARK  status: ('A' for Active; 'I' for Inactive)
REMARK    1  A    between atoms: C_1  and  O_2
REMARK    2  A    between atoms: O_2  and  C_3
REMARK    3  A    between atoms: C_7  and  C_8
REMARK    4  A    between atoms: N_11  and  C_12
REMARK    5  A    between atoms: C_12  and  C_13
REMARK    6  A    between atoms: C_13  and  N_14
REMARK    7  A    between atoms: C_15  and  C_16
REMARK                            x       y       z     vdW  Elec       q    Type
REMARK                         _______ _______ _______ _____ _____    ______ ____
ROOT
ATOM      1  C   UNL     1       2.035   6.813  19.575  0.00  0.00    +0.000 A 
ATOM      2  N   UNL     1       2.917   6.593  18.596  0.00  0.00    +0.000 NA
ATOM      3  C   UNL     1       3.552   5.420  18.589  0.00  0.00    +0.000 A 
ATOM      4  N   UNL     1       4.427   5.144  17.517  0.00  0.00    +0.000 N 
ATOM      5  C   UNL     1       3.344   4.451  19.576  0.00  0.00    +0.000 A 
ATOM      6  C   UNL     1       4.111   3.262  19.696  0.00  0.00    +0.000 A 
ATOM      7  C   UNL     1       3.814   2.324  20.675  0.00  0.00    +0.000 A 
ATOM      8  C   UNL     1       2.733   2.554  21.519  0.00  0.00    +0.000 A 
ATOM      9  C   UNL     1       2.009   3.751  21.423  0.00  0.00    +0.000 A 
ATOM     10  C   UNL     1       2.325   4.733  20.489  0.00  0.00    +0.000 A 
ATOM     11  N   UNL     1       1.679   5.908  20.504  0.00  0.00    +0.000 NA
ATOM     12  H   UNL     1       3.952   4.447  16.940  0.00  0.00    +0.000 HD
ENDROOT
BRANCH   1  17
ATOM     13  C   UNL     1       0.792  10.044  21.110  0.00  0.00    +0.000 A 
ATOM     14  C   UNL     1       0.907  10.924  20.032  0.00  0.00    +0.000 A 
ATOM     15  C   UNL     1       1.318  10.455  18.787  0.00  0.00    +0.000 A 
ATOM     16  C   UNL     1       1.644   9.109  18.629  0.00  0.00    +0.000 A 
ATOM     17  C   UNL     1       1.568   8.203  19.707  0.00  0.00    +0.000 A 
ATOM     18  C   UNL     1       1.126   8.698  20.944  0.00  0.00    +0.000 A 
BRANCH  13  20
ATOM     19  C   UNL     1      -0.141   9.698  23.249  0.00  0.00    +0.000 C 
ATOM     20  O   UNL     1       0.385  10.609  22.288  0.00  0.00    +0.000 OA
ENDBRANCH  13  20
ENDBRANCH   1  17
BRANCH   4  21
ATOM     21  C   UNL     1       4.764   6.332  16.733  0.00  0.00    +0.000 C 
BRANCH  21  22
ATOM     22  C   UNL     1       6.191   6.200  16.196  0.00  0.00    +0.000 C 
BRANCH  22  23
ATOM     23  N   UNL     1       6.223   5.623  14.867  0.00  0.00    +0.000 N 
ATOM     24  C   UNL     1       6.163   4.262  14.684  0.00  0.00    +0.000 C 
ATOM     25  C   UNL     1       6.090   3.837  13.242  0.00  0.00    +0.000 C 
ATOM     26  O   UNL     1       6.167   3.454  15.602  0.00  0.00    +0.000 OA
ATOM     27  H   UNL     1       6.042   6.238  14.083  0.00  0.00    +0.000 HD
ENDBRANCH  22  23
ENDBRANCH  21  22
ENDBRANCH   4  21
TORSDOF 5
ENDMDL
MODEL 9
REMARK VINA RESULT:      -7.7      1.452      1.874
REMARK  Name = 
REMARK  7 active torsions:
REMARK  status: ('A' for Active; 'I' for Inactive)
REMARK    1  A    between atoms: C_1  and  O_2
REMARK    2  A    between atoms: O_2  and  C_3
REMARK    3  A    between atoms: C_7  and  C_8
REMARK    4  A    between atoms: N_11  and  C_12
REMARK    5  A    between atoms: C_12  and  C_13
REMARK    6  A    between atoms: C_13  and  N_14
REMARK    7  A    between atoms: C_15  and  C_16
REMARK                            x       y       z     vdW  Elec       q    Type
REMARK                         _______ _______ _______ _____ _____    ______ ____
ROOT
ATOM      1  C   UNL     1       3.249   6.724  18.255  0.00  0.00    +0.000 A 
ATOM      2  N   UNL     1       2.911   5.952  19.291  0.00  0.00    +0.000 NA
ATOM      3  C   UNL     1       2.057   6.455  20.184  0.00  0.00    +0.000 A 
ATOM      4  N   UNL     1       1.630   5.622  21.240  0.00  0.00    +0.000 N 
ATOM      5  C   UNL     1       1.543   7.751  20.079  0.00  0.00    +0.000 A 
ATOM      6  C   UNL     1       0.761   8.381  21.084  0.00  0.00    +0.000 A 
ATOM      7  C   UNL     1       0.247   9.654  20.886  0.00  0.00    +0.000 A 
ATOM      8  C   UNL     1       0.485  10.295  19.675  0.00  0.00    +0.000 A 
ATOM      9  C   UNL     1       1.295   9.686  18.706  0.00  0.00    +0.000 A 
ATOM     10  C   UNL     1       1.871   8.434  18.904  0.00  0.00    +0.000 A 
ATOM     11  N   UNL     1       2.727   7.938  18.001  0.00  0.00    +0.000 NA
ATOM     12  H   UNL     1       0.661   5.379  21.031  0.00  0.00    +0.000 HD
ENDROOT
BRANCH   1  17
ATOM     13  C   UNL     1       6.716   6.477  16.752  0.00  0.00    +0.000 A 
ATOM     14  C   UNL     1       6.660   5.227  16.133  0.00  0.00    +0.000 A 
ATOM     15  C   UNL     1       5.475   4.496  16.138  0.00  0.00    +0.000 A 
ATOM     16  C   UNL     1       4.353   5.003  16.794  0.00  0.00    +0.000 A 
ATOM     17  C   UNL     1       4.390   6.248  17.456  0.00  0.00    +0.000 A 
ATOM     18  C   UNL     1       5.589   6.975  17.410  0.00  0.00    +0.000 A 
BRANCH  13  20
ATOM     19  C   UNL     1       8.083   8.213  17.576  0.00  0.00    +0.000 C 
ATOM     20  O   UNL     1       7.929   7.109  16.691  0.00  0.00    +0.000 OA
ENDBRANCH  13  20
ENDBRANCH   1  17
BRANCH   4  21
ATOM     21  C   UNL     1       2.453   4.421  21.389  0.00  0.00    +0.000 C 
BRANCH  21  22
ATOM     22  C   UNL     1       1.626   3.189  21.012  0.00  0.00    +0.000 C 
BRANCH  22  23
ATOM     23  N   UNL     1       1.642   2.936  19.586  0.00  0.00    +0.000 N 
ATOM     24  C   UNL     1       2.725   2.340  18.984  0.00  0.00    +0.000 C 
ATOM     25  C   UNL     1       2.532   2.046  17.521  0.00  0.00    +0.000 C 
ATOM     26  O   UNL     1       3.761   2.065  19.573  0.00  0.00    +0.000 OA
ATOM     27  H   UNL     1       0.760   2.978  19.091  0.00  0.00    +0.000 HD
ENDBRANCH  22  23
ENDBRANCH  21  22
ENDBRANCH   4  21
TORSDOF 5
ENDMDL
