MODEL 1
REMARK VINA RESULT:      -8.5      0.000      0.000
REMARK  Name = 
REMARK  3 active torsions:
REMARK  status: ('A' for Active; 'I' for Inactive)
REMARK    1  A    between atoms: C_12  and  C_13
REMARK    2  A    between atoms: N_21  and  C_22
REMARK    3  A    between atoms: C_22  and  C_23
REMARK                            x       y       z     vdW  Elec       q    Type
REMARK                         _______ _______ _______ _____ _____    ______ ____
ROOT
ATOM      1  O   UNL     1       5.382   3.469  20.050  0.00  0.00    +0.000 OA
ATOM      2  C   UNL     1       4.975   4.009  19.025  0.00  0.00    +0.000 C 
ATOM      3  C   UNL     1       3.583   3.748  18.480  0.00  0.00    +0.000 C 
ATOM      4  C   UNL     1       3.571   3.509  16.967  0.00  0.00    +0.000 C 
ATOM      5  C   UNL     1       4.613   4.340  16.229  0.00  0.00    +0.000 C 
ATOM      6  C   UNL     1       5.081   5.518  17.088  0.00  0.00    +0.000 C 
ATOM      7  C   UNL     1       3.913   6.500  17.336  0.00  0.00    +0.000 C 
ATOM      8  N   UNL     1       3.157   6.261  18.578  0.00  0.00    +0.000 N 
ATOM      9  C   UNL     1       2.404   7.332  19.001  0.00  0.00    +0.000 A 
ATOM     10  N   UNL     1       2.201   8.426  18.291  0.00  0.00    +0.000 NA
ATOM     11  N   UNL     1       1.424   9.362  18.932  0.00  0.00    +0.000 NA
ATOM     12  C   UNL     1       1.098   8.992  20.151  0.00  0.00    +0.000 A 
ATOM     13  S   UNL     1       1.659   7.422  20.560  0.00  0.00    +0.000 S 
ATOM     14  C   UNL     1       2.680   4.909  18.911  0.00  0.00    +0.000 C 
ATOM     15  N   UNL     1       5.682   4.969  18.310  0.00  0.00    +0.000 N 
ENDROOT
BRANCH  12  16
ATOM     16  C   UNL     1       0.293   9.791  21.080  0.00  0.00    +0.000 A 
ATOM     17  C   UNL     1       0.041   9.294  22.370  0.00  0.00    +0.000 A 
ATOM     18  C   UNL     1      -0.743  10.011  23.275  0.00  0.00    +0.000 A 
ATOM     19  C   UNL     1      -1.297  11.234  22.900  0.00  0.00    +0.000 A 
ATOM     20  C   UNL     1      -1.062  11.739  21.623  0.00  0.00    +0.000 A 
ATOM     21  C   UNL     1      -0.275  11.023  20.717  0.00  0.00    +0.000 A 
ENDBRANCH  12  16
BRANCH  15  22
ATOM     22  C   UNL     1       6.846   5.603  18.910  0.00  0.00    +0.000 C 
BRANCH  22  23
ATOM     23  C   UNL     1       7.564   6.460  17.909  0.00  0.00    +0.000 C 
ATOM     24  C   UNL     1       7.063   7.855  17.624  0.00  0.00    +0.000 C 
ATOM     25  C   UNL     1       8.375   7.659  18.331  0.00  0.00    +0.000 C 
ENDBRANCH  22  23
ENDBRANCH  15  22
TORSDOF 3
ENDMDL
MODEL 2
REMARK VINA RESULT:      -8.2      0.532      1.077
REMARK  Name = 
REMARK  3 active torsions:
REMARK  status: ('A' for Active; 'I' for Inactive)
REMARK    1  A    between atoms: C_12  and  C_13
REMARK    2  A    between atoms: N_21  and  C_22
REMARK    3  A    between atoms: C_22  and  C_23
REMARK                            x       y       z     vdW  Elec       q    Type
REMARK                         _______ _______ _______ _____ _____    ______ ____
ROOT
ATOM      1  O   UNL     1       4.747   3.144  20.310  0.00  0.00    +0.000 OA
ATOM      2  C   UNL     1       4.433   3.722  19.273  0.00  0.00    +0.000 C 
ATOM      3  C   UNL     1       3.043   3.599  18.676  0.00  0.00    +0.000 C 
ATOM      4  C   UNL     1       3.064   3.363  17.163  0.00  0.00    +0.000 C 
ATOM      5  C   UNL     1       4.210   4.087  16.467  0.00  0.00    +0.000 C 
ATOM      6  C   UNL     1       4.759   5.214  17.348  0.00  0.00    +0.000 C 
ATOM      7  C   UNL     1       3.685   6.306  17.556  0.00  0.00    +0.000 C 
ATOM      8  N   UNL     1       2.864   6.142  18.768  0.00  0.00    +0.000 N 
ATOM      9  C   UNL     1       2.205   7.282  19.167  0.00  0.00    +0.000 A 
ATOM     10  N   UNL     1       2.137   8.391  18.455  0.00  0.00    +0.000 NA
ATOM     11  N   UNL     1       1.433   9.399  19.071  0.00  0.00    +0.000 NA
ATOM     12  C   UNL     1       1.028   9.062  20.275  0.00  0.00    +0.000 A 
ATOM     13  S   UNL     1       1.416   7.445  20.698  0.00  0.00    +0.000 S 
ATOM     14  C   UNL     1       2.244   4.844  19.079  0.00  0.00    +0.000 C 
ATOM     15  N   UNL     1       5.258   4.607  18.589  0.00  0.00    +0.000 N 
ENDROOT
BRANCH  12  16
ATOM     16  C   UNL     1       0.271   9.937  21.177  0.00  0.00    +0.000 A 
ATOM     17  C   UNL     1       0.161  11.303  20.873  0.00  0.00    +0.000 A 
ATOM     18  C   UNL     1      -0.528  12.174  21.718  0.00  0.00    +0.000 A 
ATOM     19  C   UNL     1      -1.111  11.692  22.889  0.00  0.00    +0.000 A 
ATOM     20  C   UNL     1      -1.007  10.340  23.210  0.00  0.00    +0.000 A 
ATOM     21  C   UNL     1      -0.319   9.467  22.362  0.00  0.00    +0.000 A 
ENDBRANCH  12  16
BRANCH  15  22
ATOM     22  C   UNL     1       6.455   5.123  19.234  0.00  0.00    +0.000 C 
BRANCH  22  23
ATOM     23  C   UNL     1       7.380   5.743  18.227  0.00  0.00    +0.000 C 
ATOM     24  C   UNL     1       7.113   7.142  17.729  0.00  0.00    +0.000 C 
ATOM     25  C   UNL     1       8.310   6.871  18.596  0.00  0.00    +0.000 C 
ENDBRANCH  22  23
ENDBRANCH  15  22
TORSDOF 3
ENDMDL
MODEL 3
REMARK VINA RESULT:      -8.0      1.140      1.318
REMARK  Name = 
REMARK  3 active torsions:
REMARK  status: ('A' for Active; 'I' for Inactive)
REMARK    1  A    between atoms: C_12  and  C_13
REMARK    2  A    between atoms: N_21  and  C_22
REMARK    3  A    between atoms: C_22  and  C_23
REMARK                            x       y       z     vdW  Elec       q    Type
REMARK                         _______ _______ _______ _____ _____    ______ ____
ROOT
ATOM      1  O   UNL     1       3.931   2.768  20.691  0.00  0.00    +0.000 OA
ATOM      2  C   UNL     1       3.697   3.334  19.626  0.00  0.00    +0.000 C 
ATOM      3  C   UNL     1       2.305   3.357  19.021  0.00  0.00    +0.000 C 
ATOM      4  C   UNL     1       2.304   3.054  17.520  0.00  0.00    +0.000 C 
ATOM      5  C   UNL     1       3.534   3.601  16.805  0.00  0.00    +0.000 C 
ATOM      6  C   UNL     1       4.213   4.689  17.643  0.00  0.00    +0.000 C 
ATOM      7  C   UNL     1       3.281   5.913  17.793  0.00  0.00    +0.000 C 
ATOM      8  N   UNL     1       2.440   5.904  19.002  0.00  0.00    +0.000 N 
ATOM      9  C   UNL     1       1.924   7.132  19.346  0.00  0.00    +0.000 A 
ATOM     10  N   UNL     1       1.996   8.209  18.586  0.00  0.00    +0.000 NA
ATOM     11  N   UNL     1       1.419   9.322  19.151  0.00  0.00    +0.000 NA
ATOM     12  C   UNL     1       0.969   9.090  20.365  0.00  0.00    +0.000 A 
ATOM     13  S   UNL     1       1.153   7.457  20.860  0.00  0.00    +0.000 S 
ATOM     14  C   UNL     1       1.663   4.707  19.362  0.00  0.00    +0.000 C 
ATOM     15  N   UNL     1       4.627   4.081  18.913  0.00  0.00    +0.000 N 
ENDROOT
BRANCH  12  16
ATOM     16  C   UNL     1       0.321  10.089  21.220  0.00  0.00    +0.000 A 
ATOM     17  C   UNL     1      -0.377   9.663  22.362  0.00  0.00    +0.000 A 
ATOM     18  C   UNL     1      -1.030  10.579  23.188  0.00  0.00    +0.000 A 
ATOM     19  C   UNL     1      -1.003  11.938  22.879  0.00  0.00    +0.000 A 
ATOM     20  C   UNL     1      -0.321  12.378  21.747  0.00  0.00    +0.000 A 
ATOM     21  C   UNL     1       0.336  11.461  20.920  0.00  0.00    +0.000 A 
ENDBRANCH  12  16
BRANCH  15  22
ATOM     22  C   UNL     1       5.875   4.474  19.548  0.00  0.00    +0.000 C 
BRANCH  22  23
ATOM     23  C   UNL     1       6.672   5.375  18.650  0.00  0.00    +0.000 C 
ATOM     24  C   UNL     1       8.059   5.802  19.060  0.00  0.00    +0.000 C 
ATOM     25  C   UNL     1       7.875   4.874  17.892  0.00  0.00    +0.000 C 
ENDBRANCH  22  23
ENDBRANCH  15  22
TORSDOF 3
ENDMDL
MODEL 4
REMARK VINA RESULT:      -8.0      0.953      1.047
REMARK  Name = 
REMARK  3 active torsions:
REMARK  status: ('A' for Active; 'I' for Inactive)
REMARK    1  A    between atoms: C_12  and  C_13
REMARK    2  A    between atoms: N_21  and  C_22
REMARK    3  A    between atoms: C_22  and  C_23
REMARK                            x       y       z     vdW  Elec       q    Type
REMARK                         _______ _______ _______ _____ _____    ______ ____
ROOT
ATOM      1  O   UNL     1       6.050   4.305  19.667  0.00  0.00    +0.000 OA
ATOM      2  C   UNL     1       5.623   4.729  18.596  0.00  0.00    +0.000 C 
ATOM      3  C   UNL     1       4.280   4.291  18.041  0.00  0.00    +0.000 C 
ATOM      4  C   UNL     1       4.336   3.946  16.550  0.00  0.00    +0.000 C 
ATOM      5  C   UNL     1       5.313   4.824  15.776  0.00  0.00    +0.000 C 
ATOM      6  C   UNL     1       5.638   6.100  16.558  0.00  0.00    +0.000 C 
ATOM      7  C   UNL     1       4.372   6.976  16.707  0.00  0.00    +0.000 C 
ATOM      8  N   UNL     1       3.607   6.750  17.945  0.00  0.00    +0.000 N 
ATOM      9  C   UNL     1       2.740   7.767  18.271  0.00  0.00    +0.000 A 
ATOM     10  N   UNL     1       2.451   8.783  17.479  0.00  0.00    +0.000 NA
ATOM     11  N   UNL     1       1.568   9.679  18.033  0.00  0.00    +0.000 NA
ATOM     12  C   UNL     1       1.244   9.365  19.268  0.00  0.00    +0.000 A 
ATOM     13  S   UNL     1       1.944   7.892  19.803  0.00  0.00    +0.000 S 
ATOM     14  C   UNL     1       3.255   5.384  18.366  0.00  0.00    +0.000 C 
ATOM     15  N   UNL     1       6.254   5.702  17.829  0.00  0.00    +0.000 N 
ENDROOT
BRANCH  12  16
ATOM     16  C   UNL     1       0.336  10.142  20.118  0.00  0.00    +0.000 A 
ATOM     17  C   UNL     1       0.325   9.907  21.502  0.00  0.00    +0.000 A 
ATOM     18  C   UNL     1      -0.542  10.607  22.342  0.00  0.00    +0.000 A 
ATOM     19  C   UNL     1      -1.420  11.548  21.809  0.00  0.00    +0.000 A 
ATOM     20  C   UNL     1      -1.427  11.790  20.436  0.00  0.00    +0.000 A 
ATOM     21  C   UNL     1      -0.557  11.091  19.594  0.00  0.00    +0.000 A 
ENDBRANCH  12  16
BRANCH  15  22
ATOM     22  C   UNL     1       7.331   6.490  18.408  0.00  0.00    +0.000 C 
BRANCH  22  23
ATOM     23  C   UNL     1       7.736   7.600  17.483  0.00  0.00    +0.000 C 
ATOM     24  C   UNL     1       7.119   8.968  17.642  0.00  0.00    +0.000 C 
ATOM     25  C   UNL     1       8.573   8.761  17.959  0.00  0.00    +0.000 C 
ENDBRANCH  22  23
ENDBRANCH  15  22
TORSDOF 3
ENDMDL
MODEL 5
REMARK VINA RESULT:      -7.8      2.091      3.973
REMARK  Name = 
REMARK  3 active torsions:
REMARK  status: ('A' for Active; 'I' for Inactive)
REMARK    1  A    between atoms: C_12  and  C_13
REMARK    2  A    between atoms: N_21  and  C_22
REMARK    3  A    between atoms: C_22  and  C_23
REMARK                            x       y       z     vdW  Elec       q    Type
REMARK                         _______ _______ _______ _____ _____    ______ ____
ROOT
ATOM      1  O   UNL     1       4.375   4.253  15.598  0.00  0.00    +0.000 OA
ATOM      2  C   UNL     1       4.673   4.610  16.735  0.00  0.00    +0.000 C 
ATOM      3  C   UNL     1       5.424   5.903  16.996  0.00  0.00    +0.000 C 
ATOM      4  C   UNL     1       6.565   5.735  18.005  0.00  0.00    +0.000 C 
ATOM      5  C   UNL     1       6.245   4.720  19.096  0.00  0.00    +0.000 C 
ATOM      6  C   UNL     1       4.736   4.474  19.187  0.00  0.00    +0.000 C 
ATOM      7  C   UNL     1       4.007   5.762  19.636  0.00  0.00    +0.000 C 
ATOM      8  N   UNL     1       3.516   6.608  18.535  0.00  0.00    +0.000 N 
ATOM      9  C   UNL     1       2.547   7.514  18.902  0.00  0.00    +0.000 A 
ATOM     10  N   UNL     1       2.194   7.762  20.150  0.00  0.00    +0.000 NA
ATOM     11  N   UNL     1       1.193   8.698  20.263  0.00  0.00    +0.000 NA
ATOM     12  C   UNL     1       0.752   9.103  19.093  0.00  0.00    +0.000 A 
ATOM     13  S   UNL     1       1.603   8.418  17.769  0.00  0.00    +0.000 S 
ATOM     14  C   UNL     1       4.403   6.967  17.416  0.00  0.00    +0.000 C 
ATOM     15  N   UNL     1       4.291   3.943  17.893  0.00  0.00    +0.000 N 
ENDROOT
BRANCH  12  16
ATOM     16  C   UNL     1      -0.322  10.081  18.898  0.00  0.00    +0.000 A 
ATOM     17  C   UNL     1      -1.076  10.043  17.713  0.00  0.00    +0.000 A 
ATOM     18  C   UNL     1      -2.090  10.973  17.477  0.00  0.00    +0.000 A 
ATOM     19  C   UNL     1      -2.360  11.963  18.420  0.00  0.00    +0.000 A 
ATOM     20  C   UNL     1      -1.618  12.020  19.599  0.00  0.00    +0.000 A 
ATOM     21  C   UNL     1      -0.604  11.087  19.837  0.00  0.00    +0.000 A 
ENDBRANCH  12  16
BRANCH  15  22
ATOM     22  C   UNL     1       3.256   2.923  17.829  0.00  0.00    +0.000 C 
BRANCH  22  23
ATOM     23  C   UNL     1       1.922   3.490  18.219  0.00  0.00    +0.000 C 
ATOM     24  C   UNL     1       0.789   2.559  18.573  0.00  0.00    +0.000 C 
ATOM     25  C   UNL     1       1.414   3.416  19.637  0.00  0.00    +0.000 C 
ENDBRANCH  22  23
ENDBRANCH  15  22
TORSDOF 3
ENDMDL
MODEL 6
REMARK VINA RESULT:      -7.8      2.067      3.932
REMARK  Name = 
REMARK  3 active torsions:
REMARK  status: ('A' for Active; 'I' for Inactive)
REMARK    1  A    between atoms: C_12  and  C_13
REMARK    2  A    between atoms: N_21  and  C_22
REMARK    3  A    between atoms: C_22  and  C_23
REMARK                            x       y       z     vdW  Elec       q    Type
REMARK                         _______ _______ _______ _____ _____    ______ ____
ROOT
ATOM      1  O   UNL     1       4.612   4.462  15.444  0.00  0.00    +0.000 OA
ATOM      2  C   UNL     1       4.842   4.728  16.621  0.00  0.00    +0.000 C 
ATOM      3  C   UNL     1       5.598   5.980  17.026  0.00  0.00    +0.000 C 
ATOM      4  C   UNL     1       6.666   5.712  18.090  0.00  0.00    +0.000 C 
ATOM      5  C   UNL     1       6.257   4.628  19.080  0.00  0.00    +0.000 C 
ATOM      6  C   UNL     1       4.741   4.410  19.055  0.00  0.00    +0.000 C 
ATOM      7  C   UNL     1       4.008   5.678  19.551  0.00  0.00    +0.000 C 
ATOM      8  N   UNL     1       3.606   6.615  18.488  0.00  0.00    +0.000 N 
ATOM      9  C   UNL     1       2.632   7.513  18.859  0.00  0.00    +0.000 A 
ATOM     10  N   UNL     1       2.202   7.677  20.096  0.00  0.00    +0.000 NA
ATOM     11  N   UNL     1       1.213   8.625  20.215  0.00  0.00    +0.000 NA
ATOM     12  C   UNL     1       0.858   9.125  19.052  0.00  0.00    +0.000 A 
ATOM     13  S   UNL     1       1.781   8.519  17.738  0.00  0.00    +0.000 S 
ATOM     14  C   UNL     1       4.571   7.034  17.458  0.00  0.00    +0.000 C 
ATOM     15  N   UNL     1       4.372   3.986  17.699  0.00  0.00    +0.000 N 
ENDROOT
BRANCH  12  16
ATOM     16  C   UNL     1      -0.184  10.140  18.862  0.00  0.00    +0.000 A 
ATOM     17  C   UNL     1      -0.304  11.181  19.797  0.00  0.00    +0.000 A 
ATOM     18  C   UNL     1      -1.298  12.151  19.668  0.00  0.00    +0.000 A 
ATOM     19  C   UNL     1      -2.196  12.091  18.604  0.00  0.00    +0.000 A 
ATOM     20  C   UNL     1      -2.096  11.061  17.669  0.00  0.00    +0.000 A 
ATOM     21  C   UNL     1      -1.098  10.090  17.797  0.00  0.00    +0.000 A 
ENDBRANCH  12  16
BRANCH  15  22
ATOM     22  C   UNL     1       3.325   2.998  17.492  0.00  0.00    +0.000 C 
BRANCH  22  23
ATOM     23  C   UNL     1       2.430   2.909  18.694  0.00  0.00    +0.000 C 
ATOM     24  C   UNL     1       1.116   3.650  18.704  0.00  0.00    +0.000 C 
ATOM     25  C   UNL     1       1.129   2.148  18.657  0.00  0.00    +0.000 C 
ENDBRANCH  22  23
ENDBRANCH  15  22
TORSDOF 3
ENDMDL
MODEL 7
REMARK VINA RESULT:      -7.8      0.787      1.268
REMARK  Name = 
REMARK  3 active torsions:
REMARK  status: ('A' for Active; 'I' for Inactive)
REMARK    1  A    between atoms: C_12  and  C_13
REMARK    2  A    between atoms: N_21  and  C_22
REMARK    3  A    between atoms: C_22  and  C_23
REMARK                            x       y       z     vdW  Elec       q    Type
REMARK                         _______ _______ _______ _____ _____    ______ ____
ROOT
ATOM      1  O   UNL     1       5.201   3.764  19.882  0.00  0.00    +0.000 OA
ATOM      2  C   UNL     1       4.972   4.298  18.800  0.00  0.00    +0.000 C 
ATOM      3  C   UNL     1       3.666   4.077  18.058  0.00  0.00    +0.000 C 
ATOM      4  C   UNL     1       3.868   3.808  16.564  0.00  0.00    +0.000 C 
ATOM      5  C   UNL     1       5.040   4.585  15.977  0.00  0.00    +0.000 C 
ATOM      6  C   UNL     1       5.422   5.763  16.878  0.00  0.00    +0.000 C 
ATOM      7  C   UNL     1       4.269   6.792  16.935  0.00  0.00    +0.000 C 
ATOM      8  N   UNL     1       3.330   6.606  18.054  0.00  0.00    +0.000 N 
ATOM      9  C   UNL     1       2.565   7.712  18.345  0.00  0.00    +0.000 A 
ATOM     10  N   UNL     1       2.513   8.799  17.597  0.00  0.00    +0.000 NA
ATOM     11  N   UNL     1       1.687   9.775  18.102  0.00  0.00    +0.000 NA
ATOM     12  C   UNL     1       1.170   9.442  19.265  0.00  0.00    +0.000 A 
ATOM     13  S   UNL     1       1.603   7.861  19.775  0.00  0.00    +0.000 S 
ATOM     14  C   UNL     1       2.755   5.280  18.334  0.00  0.00    +0.000 C 
ATOM     15  N   UNL     1       5.814   5.216  18.184  0.00  0.00    +0.000 N 
ENDROOT
BRANCH  12  16
ATOM     16  C   UNL     1       0.269  10.289  20.052  0.00  0.00    +0.000 A 
ATOM     17  C   UNL     1      -0.707  11.051  19.389  0.00  0.00    +0.000 A 
ATOM     18  C   UNL     1      -1.568  11.890  20.099  0.00  0.00    +0.000 A 
ATOM     19  C   UNL     1      -1.459  11.987  21.485  0.00  0.00    +0.000 A 
ATOM     20  C   UNL     1      -0.492  11.242  22.159  0.00  0.00    +0.000 A 
ATOM     21  C   UNL     1       0.368  10.400  21.448  0.00  0.00    +0.000 A 
ENDBRANCH  12  16
BRANCH  15  22
ATOM     22  C   UNL     1       6.900   5.819  18.941  0.00  0.00    +0.000 C 
BRANCH  22  23
ATOM     23  C   UNL     1       7.781   6.642  18.047  0.00  0.00    +0.000 C 
ATOM     24  C   UNL     1       7.357   8.037  17.658  0.00  0.00    +0.000 C 
ATOM     25  C   UNL     1       8.538   7.839  18.566  0.00  0.00    +0.000 C 
ENDBRANCH  22  23
ENDBRANCH  15  22
TORSDOF 3
ENDMDL
MODEL 8
REMARK VINA RESULT:      -7.7      3.472      8.255
REMARK  Name = 
REMARK  3 active torsions:
REMARK  status: ('A' for Active; 'I' for Inactive)
REMARK    1  A    between atoms: C_12  and  C_13
REMARK    2  A    between atoms: N_21  and  C_22
REMARK    3  A    between atoms: C_22  and  C_23
REMARK                            x       y       z     vdW  Elec       q    Type
REMARK                         _______ _______ _______ _____ _____    ______ ____
ROOT
ATOM      1  O   UNL     1      -2.030  11.916  21.658  0.00  0.00    +0.000 OA
ATOM      2  C   UNL     1      -1.114  12.081  20.857  0.00  0.00    +0.000 C 
ATOM      3  C   UNL     1       0.328  12.226  21.310  0.00  0.00    +0.000 C 
ATOM      4  C   UNL     1       1.061  13.370  20.604  0.00  0.00    +0.000 C 
ATOM      5  C   UNL     1       0.618  13.553  19.157  0.00  0.00    +0.000 C 
ATOM      6  C   UNL     1      -0.083  12.294  18.637  0.00  0.00    +0.000 C 
ATOM      7  C   UNL     1       0.909  11.108  18.588  0.00  0.00    +0.000 C 
ATOM      8  N   UNL     1       0.919  10.262  19.794  0.00  0.00    +0.000 N 
ATOM      9  C   UNL     1       1.476   9.017  19.610  0.00  0.00    +0.000 A 
ATOM     10  N   UNL     1       2.121   8.643  18.520  0.00  0.00    +0.000 NA
ATOM     11  N   UNL     1       2.575   7.346  18.567  0.00  0.00    +0.000 NA
ATOM     12  C   UNL     1       2.212   6.728  19.670  0.00  0.00    +0.000 A 
ATOM     13  S   UNL     1       1.356   7.735  20.765  0.00  0.00    +0.000 S 
ATOM     14  C   UNL     1       1.019  10.869  21.131  0.00  0.00    +0.000 C 
ATOM     15  N   UNL     1      -1.265  12.063  19.476  0.00  0.00    +0.000 N 
ENDROOT
BRANCH  12  16
ATOM     16  C   UNL     1       2.533   5.334  19.991  0.00  0.00    +0.000 A 
ATOM     17  C   UNL     1       1.728   4.640  20.908  0.00  0.00    +0.000 A 
ATOM     18  C   UNL     1       2.015   3.321  21.261  0.00  0.00    +0.000 A 
ATOM     19  C   UNL     1       3.121   2.677  20.709  0.00  0.00    +0.000 A 
ATOM     20  C   UNL     1       3.935   3.353  19.801  0.00  0.00    +0.000 A 
ATOM     21  C   UNL     1       3.646   4.673  19.445  0.00  0.00    +0.000 A 
ENDBRANCH  12  16
BRANCH  15  22
ATOM     22  C   UNL     1      -2.497  11.554  18.893  0.00  0.00    +0.000 C 
BRANCH  22  23
ATOM     23  C   UNL     1      -2.368  11.421  17.403  0.00  0.00    +0.000 C 
ATOM     24  C   UNL     1      -2.506  10.064  16.759  0.00  0.00    +0.000 C 
ATOM     25  C   UNL     1      -3.557  11.113  16.530  0.00  0.00    +0.000 C 
ENDBRANCH  22  23
ENDBRANCH  15  22
TORSDOF 3
ENDMDL
MODEL 9
REMARK VINA RESULT:      -7.7      3.461      8.220
REMARK  Name = 
REMARK  3 active torsions:
REMARK  status: ('A' for Active; 'I' for Inactive)
REMARK    1  A    between atoms: C_12  and  C_13
REMARK    2  A    between atoms: N_21  and  C_22
REMARK    3  A    between atoms: C_22  and  C_23
REMARK                            x       y       z     vdW  Elec       q    Type
REMARK                         _______ _______ _______ _____ _____    ______ ____
ROOT
ATOM      1  O   UNL     1      -2.036  11.925  21.631  0.00  0.00    +0.000 OA
ATOM      2  C   UNL     1      -1.110  12.087  20.840  0.00  0.00    +0.000 C 
ATOM      3  C   UNL     1       0.326  12.232  21.307  0.00  0.00    +0.000 C 
ATOM      4  C   UNL     1       1.068  13.374  20.606  0.00  0.00    +0.000 C 
ATOM      5  C   UNL     1       0.641  13.553  19.154  0.00  0.00    +0.000 C 
ATOM      6  C   UNL     1      -0.056  12.294  18.630  0.00  0.00    +0.000 C 
ATOM      7  C   UNL     1       0.935  11.107  18.595  0.00  0.00    +0.000 C 
ATOM      8  N   UNL     1       0.932  10.264  19.802  0.00  0.00    +0.000 N 
ATOM      9  C   UNL     1       1.489   9.018  19.628  0.00  0.00    +0.000 A 
ATOM     10  N   UNL     1       2.145   8.641  18.546  0.00  0.00    +0.000 NA
ATOM     11  N   UNL     1       2.598   7.343  18.601  0.00  0.00    +0.000 NA
ATOM     12  C   UNL     1       2.223   6.729  19.701  0.00  0.00    +0.000 A 
ATOM     13  S   UNL     1       1.356   7.739  20.785  0.00  0.00    +0.000 S 
ATOM     14  C   UNL     1       1.018  10.874  21.139  0.00  0.00    +0.000 C 
ATOM     15  N   UNL     1      -1.247  12.066  19.457  0.00  0.00    +0.000 N 
ENDROOT
BRANCH  12  16
ATOM     16  C   UNL     1       2.539   5.335  20.029  0.00  0.00    +0.000 A 
ATOM     17  C   UNL     1       3.613   4.706  19.379  0.00  0.00    +0.000 A 
ATOM     18  C   UNL     1       3.931   3.373  19.643  0.00  0.00    +0.000 A 
ATOM     19  C   UNL     1       3.172   2.644  20.557  0.00  0.00    +0.000 A 
ATOM     20  C   UNL     1       2.099   3.251  21.208  0.00  0.00    +0.000 A 
ATOM     21  C   UNL     1       1.782   4.586  20.945  0.00  0.00    +0.000 A 
ENDBRANCH  12  16
BRANCH  15  22
ATOM     22  C   UNL     1      -2.473  11.556  18.862  0.00  0.00    +0.000 C 
BRANCH  22  23
ATOM     23  C   UNL     1      -2.176  10.447  17.895  0.00  0.00    +0.000 C 
ATOM     24  C   UNL     1      -3.310   9.634  17.320  0.00  0.00    +0.000 C 
ATOM     25  C   UNL     1      -2.524  10.557  16.433  0.00  0.00    +0.000 C 
ENDBRANCH  22  23
ENDBRANCH  15  22
TORSDOF 3
ENDMDL
