MODEL 1
REMARK VINA RESULT:      -7.0      0.000      0.000
REMARK  Name = 
REMARK  5 active torsions:
REMARK  status: ('A' for Active; 'I' for Inactive)
REMARK    1  A    between atoms: C_1  and  C_2
REMARK    2  A    between atoms: C_2  and  N_3
REMARK    3  A    between atoms: N_3  and  C_13
REMARK    4  A    between atoms: C_4  and  C_6
REMARK    5  A    between atoms: C_11  and  N_12
REMARK                            x       y       z     vdW  Elec       q    Type
REMARK                         _______ _______ _______ _____ _____    ______ ____
ROOT
ATOM      1  N   UNL     1       2.801   5.030  17.931  0.00  0.00    +0.000 N 
ATOM      2  C   UNL     1       4.061   4.641  17.421  0.00  0.00    +0.000 C 
ATOM      3  O   UNL     1       4.159   3.647  16.688  0.00  0.00    +0.000 OA
ENDROOT
BRANCH   2   4
ATOM      4  C   UNL     1       5.346   5.336  17.790  0.00  0.00    +0.000 A 
ATOM      5  C   UNL     1       6.039   5.043  18.977  0.00  0.00    +0.000 A 
ATOM      6  C   UNL     1       7.218   5.709  19.321  0.00  0.00    +0.000 A 
ATOM      7  C   UNL     1       7.769   6.630  18.448  0.00  0.00    +0.000 A 
ATOM      8  C   UNL     1       7.148   6.884  17.227  0.00  0.00    +0.000 A 
ATOM      9  C   UNL     1       5.960   6.221  16.866  0.00  0.00    +0.000 A 
BRANCH   9  10
ATOM     10  N   UNL     1       5.335   6.628  15.663  0.00  0.00    +0.000 N 
ATOM     11  H   UNL     1       5.991   6.961  14.961  0.00  0.00    +0.000 HD
ATOM     12  H   UNL     1       4.748   5.870  15.294  0.00  0.00    +0.000 HD
ENDBRANCH   9  10
ENDBRANCH   2   4
BRANCH   1  13
ATOM     13  C   UNL     1       2.523   6.253  18.598  0.00  0.00    +0.000 A 
ATOM     14  C   UNL     1       2.211   6.286  19.961  0.00  0.00    +0.000 A 
ATOM     15  C   UNL     1       1.780   7.476  20.553  0.00  0.00    +0.000 A 
ATOM     16  C   UNL     1       1.658   8.638  19.789  0.00  0.00    +0.000 A 
ATOM     17  C   UNL     1       2.015   8.626  18.446  0.00  0.00    +0.000 A 
ATOM     18  C   UNL     1       2.468   7.444  17.859  0.00  0.00    +0.000 A 
ENDBRANCH   1  13
BRANCH   1  20
ATOM     19  C   UNL     1       1.375   3.106  18.665  0.00  0.00    +0.000 C 
ATOM     20  C   UNL     1       1.647   4.174  17.615  0.00  0.00    +0.000 C 
ENDBRANCH   1  20
TORSDOF 4
ENDMDL
MODEL 2
REMARK VINA RESULT:      -7.0      1.449      4.947
REMARK  Name = 
REMARK  5 active torsions:
REMARK  status: ('A' for Active; 'I' for Inactive)
REMARK    1  A    between atoms: C_1  and  C_2
REMARK    2  A    between atoms: C_2  and  N_3
REMARK    3  A    between atoms: N_3  and  C_13
REMARK    4  A    between atoms: C_4  and  C_6
REMARK    5  A    between atoms: C_11  and  N_12
REMARK                            x       y       z     vdW  Elec       q    Type
REMARK                         _______ _______ _______ _____ _____    ______ ____
ROOT
ATOM      1  N   UNL     1       5.148   4.653  16.950  0.00  0.00    +0.000 N 
ATOM      2  C   UNL     1       3.819   4.454  17.390  0.00  0.00    +0.000 C 
ATOM      3  O   UNL     1       3.135   3.537  16.917  0.00  0.00    +0.000 OA
ENDROOT
BRANCH   2   4
ATOM      4  C   UNL     1       3.134   5.369  18.373  0.00  0.00    +0.000 A 
ATOM      5  C   UNL     1       2.918   6.730  18.100  0.00  0.00    +0.000 A 
ATOM      6  C   UNL     1       2.302   7.575  19.028  0.00  0.00    +0.000 A 
ATOM      7  C   UNL     1       1.823   7.059  20.218  0.00  0.00    +0.000 A 
ATOM      8  C   UNL     1       1.952   5.696  20.484  0.00  0.00    +0.000 A 
ATOM      9  C   UNL     1       2.569   4.832  19.559  0.00  0.00    +0.000 A 
BRANCH   9  10
ATOM     10  N   UNL     1       2.763   3.489  19.963  0.00  0.00    +0.000 N 
ATOM     11  H   UNL     1       3.741   3.215  19.990  0.00  0.00    +0.000 HD
ATOM     12  H   UNL     1       2.304   3.322  20.867  0.00  0.00    +0.000 HD
ENDBRANCH   9  10
ENDBRANCH   2   4
BRANCH   1  13
ATOM     13  C   UNL     1       6.096   5.521  17.556  0.00  0.00    +0.000 A 
ATOM     14  C   UNL     1       6.434   6.749  16.977  0.00  0.00    +0.000 A 
ATOM     15  C   UNL     1       7.487   7.504  17.501  0.00  0.00    +0.000 A 
ATOM     16  C   UNL     1       8.206   7.039  18.603  0.00  0.00    +0.000 A 
ATOM     17  C   UNL     1       7.844   5.845  19.215  0.00  0.00    +0.000 A 
ATOM     18  C   UNL     1       6.779   5.101  18.707  0.00  0.00    +0.000 A 
ENDBRANCH   1  13
BRANCH   1  20
ATOM     19  C   UNL     1       5.568   4.415  14.493  0.00  0.00    +0.000 C 
ATOM     20  C   UNL     1       5.645   3.781  15.874  0.00  0.00    +0.000 C 
ENDBRANCH   1  20
TORSDOF 4
ENDMDL
MODEL 3
REMARK VINA RESULT:      -6.9      1.259      4.886
REMARK  Name = 
REMARK  5 active torsions:
REMARK  status: ('A' for Active; 'I' for Inactive)
REMARK    1  A    between atoms: C_1  and  C_2
REMARK    2  A    between atoms: C_2  and  N_3
REMARK    3  A    between atoms: N_3  and  C_13
REMARK    4  A    between atoms: C_4  and  C_6
REMARK    5  A    between atoms: C_11  and  N_12
REMARK                            x       y       z     vdW  Elec       q    Type
REMARK                         _______ _______ _______ _____ _____    ______ ____
ROOT
ATOM      1  N   UNL     1       4.464   4.884  17.394  0.00  0.00    +0.000 N 
ATOM      2  C   UNL     1       3.121   5.094  17.779  0.00  0.00    +0.000 C 
ATOM      3  O   UNL     1       2.259   4.240  17.536  0.00  0.00    +0.000 OA
ENDROOT
BRANCH   2   4
ATOM      4  C   UNL     1       2.641   6.372  18.420  0.00  0.00    +0.000 A 
ATOM      5  C   UNL     1       2.386   7.532  17.669  0.00  0.00    +0.000 A 
ATOM      6  C   UNL     1       1.964   8.719  18.274  0.00  0.00    +0.000 A 
ATOM      7  C   UNL     1       1.716   8.748  19.635  0.00  0.00    +0.000 A 
ATOM      8  C   UNL     1       1.883   7.591  20.394  0.00  0.00    +0.000 A 
ATOM      9  C   UNL     1       2.308   6.388  19.799  0.00  0.00    +0.000 A 
BRANCH   9  10
ATOM     10  N   UNL     1       2.567   5.298  20.664  0.00  0.00    +0.000 N 
ATOM     11  H   UNL     1       2.016   4.472  20.446  0.00  0.00    +0.000 HD
ATOM     12  H   UNL     1       3.572   5.083  20.672  0.00  0.00    +0.000 HD
ENDBRANCH   9  10
ENDBRANCH   2   4
BRANCH   1  13
ATOM     13  C   UNL     1       5.573   5.676  17.796  0.00  0.00    +0.000 A 
ATOM     14  C   UNL     1       5.917   6.848  17.114  0.00  0.00    +0.000 A 
ATOM     15  C   UNL     1       7.104   7.516  17.425  0.00  0.00    +0.000 A 
ATOM     16  C   UNL     1       7.953   7.020  18.416  0.00  0.00    +0.000 A 
ATOM     17  C   UNL     1       7.593   5.885  19.133  0.00  0.00    +0.000 A 
ATOM     18  C   UNL     1       6.397   5.230  18.840  0.00  0.00    +0.000 A 
ENDBRANCH   1  13
BRANCH   1  20
ATOM     19  C   UNL     1       5.747   3.874  15.494  0.00  0.00    +0.000 C 
ATOM     20  C   UNL     1       4.770   3.657  16.640  0.00  0.00    +0.000 C 
ENDBRANCH   1  20
TORSDOF 4
ENDMDL
MODEL 4
REMARK VINA RESULT:      -6.9      1.548      4.794
REMARK  Name = 
REMARK  5 active torsions:
REMARK  status: ('A' for Active; 'I' for Inactive)
REMARK    1  A    between atoms: C_1  and  C_2
REMARK    2  A    between atoms: C_2  and  N_3
REMARK    3  A    between atoms: N_3  and  C_13
REMARK    4  A    between atoms: C_4  and  C_6
REMARK    5  A    between atoms: C_11  and  N_12
REMARK                            x       y       z     vdW  Elec       q    Type
REMARK                         _______ _______ _______ _____ _____    ______ ____
ROOT
ATOM      1  N   UNL     1       5.465   4.495  16.677  0.00  0.00    +0.000 N 
ATOM      2  C   UNL     1       4.130   4.334  17.114  0.00  0.00    +0.000 C 
ATOM      3  O   UNL     1       3.422   3.435  16.642  0.00  0.00    +0.000 OA
ENDROOT
BRANCH   2   4
ATOM      4  C   UNL     1       3.469   5.270  18.093  0.00  0.00    +0.000 A 
ATOM      5  C   UNL     1       3.173   6.604  17.767  0.00  0.00    +0.000 A 
ATOM      6  C   UNL     1       2.580   7.471  18.689  0.00  0.00    +0.000 A 
ATOM      7  C   UNL     1       2.203   6.999  19.934  0.00  0.00    +0.000 A 
ATOM      8  C   UNL     1       2.411   5.659  20.259  0.00  0.00    +0.000 A 
ATOM      9  C   UNL     1       3.007   4.774  19.340  0.00  0.00    +0.000 A 
BRANCH   9  10
ATOM     10  N   UNL     1       3.288   3.464  19.797  0.00  0.00    +0.000 N 
ATOM     11  H   UNL     1       4.143   3.078  19.408  0.00  0.00    +0.000 HD
ATOM     12  H   UNL     1       3.304   3.444  20.824  0.00  0.00    +0.000 HD
ENDBRANCH   9  10
ENDBRANCH   2   4
BRANCH   1  13
ATOM     13  C   UNL     1       6.436   5.338  17.282  0.00  0.00    +0.000 A 
ATOM     14  C   UNL     1       7.090   4.967  18.461  0.00  0.00    +0.000 A 
ATOM     15  C   UNL     1       7.914   5.881  19.123  0.00  0.00    +0.000 A 
ATOM     16  C   UNL     1       8.088   7.169  18.613  0.00  0.00    +0.000 A 
ATOM     17  C   UNL     1       7.482   7.529  17.416  0.00  0.00    +0.000 A 
ATOM     18  C   UNL     1       6.678   6.610  16.741  0.00  0.00    +0.000 A 
ENDBRANCH   1  13
BRANCH   1  20
ATOM     19  C   UNL     1       5.851   4.226  14.216  0.00  0.00    +0.000 C 
ATOM     20  C   UNL     1       5.940   3.607  15.604  0.00  0.00    +0.000 C 
ENDBRANCH   1  20
TORSDOF 4
ENDMDL
MODEL 5
REMARK VINA RESULT:      -6.9      0.917      1.590
REMARK  Name = 
REMARK  5 active torsions:
REMARK  status: ('A' for Active; 'I' for Inactive)
REMARK    1  A    between atoms: C_1  and  C_2
REMARK    2  A    between atoms: C_2  and  N_3
REMARK    3  A    between atoms: N_3  and  C_13
REMARK    4  A    between atoms: C_4  and  C_6
REMARK    5  A    between atoms: C_11  and  N_12
REMARK                            x       y       z     vdW  Elec       q    Type
REMARK                         _______ _______ _______ _____ _____    ______ ____
ROOT
ATOM      1  N   UNL     1       2.697   5.179  17.847  0.00  0.00    +0.000 N 
ATOM      2  C   UNL     1       3.936   4.802  17.281  0.00  0.00    +0.000 C 
ATOM      3  O   UNL     1       4.006   3.825  16.524  0.00  0.00    +0.000 OA
ENDROOT
BRANCH   2   4
ATOM      4  C   UNL     1       5.235   5.490  17.616  0.00  0.00    +0.000 A 
ATOM      5  C   UNL     1       5.636   6.677  16.978  0.00  0.00    +0.000 A 
ATOM      6  C   UNL     1       6.852   7.296  17.279  0.00  0.00    +0.000 A 
ATOM      7  C   UNL     1       7.658   6.781  18.278  0.00  0.00    +0.000 A 
ATOM      8  C   UNL     1       7.250   5.650  18.984  0.00  0.00    +0.000 A 
ATOM      9  C   UNL     1       6.027   5.015  18.692  0.00  0.00    +0.000 A 
BRANCH   9  10
ATOM     10  N   UNL     1       5.751   3.807  19.375  0.00  0.00    +0.000 N 
ATOM     11  H   UNL     1       6.253   3.008  18.997  0.00  0.00    +0.000 HD
ATOM     12  H   UNL     1       5.931   3.918  20.380  0.00  0.00    +0.000 HD
ENDBRANCH   9  10
ENDBRANCH   2   4
BRANCH   1  13
ATOM     13  C   UNL     1       2.444   6.388  18.550  0.00  0.00    +0.000 A 
ATOM     14  C   UNL     1       2.250   6.399  19.935  0.00  0.00    +0.000 A 
ATOM     15  C   UNL     1       1.840   7.571  20.576  0.00  0.00    +0.000 A 
ATOM     16  C   UNL     1       1.620   8.736  19.839  0.00  0.00    +0.000 A 
ATOM     17  C   UNL     1       1.860   8.747  18.470  0.00  0.00    +0.000 A 
ATOM     18  C   UNL     1       2.292   7.584  17.832  0.00  0.00    +0.000 A 
ENDBRANCH   1  13
BRANCH   1  20
ATOM     19  C   UNL     1       1.337   3.199  18.557  0.00  0.00    +0.000 C 
ATOM     20  C   UNL     1       1.531   4.329  17.556  0.00  0.00    +0.000 C 
ENDBRANCH   1  20
TORSDOF 4
ENDMDL
MODEL 6
REMARK VINA RESULT:      -6.8      0.893      1.491
REMARK  Name = 
REMARK  5 active torsions:
REMARK  status: ('A' for Active; 'I' for Inactive)
REMARK    1  A    between atoms: C_1  and  C_2
REMARK    2  A    between atoms: C_2  and  N_3
REMARK    3  A    between atoms: N_3  and  C_13
REMARK    4  A    between atoms: C_4  and  C_6
REMARK    5  A    between atoms: C_11  and  N_12
REMARK                            x       y       z     vdW  Elec       q    Type
REMARK                         _______ _______ _______ _____ _____    ______ ____
ROOT
ATOM      1  N   UNL     1       3.474   4.316  17.606  0.00  0.00    +0.000 N 
ATOM      2  C   UNL     1       4.801   4.285  17.120  0.00  0.00    +0.000 C 
ATOM      3  O   UNL     1       5.146   3.426  16.298  0.00  0.00    +0.000 OA
ENDROOT
BRANCH   2   4
ATOM      4  C   UNL     1       5.879   5.214  17.617  0.00  0.00    +0.000 A 
ATOM      5  C   UNL     1       6.561   4.987  18.825  0.00  0.00    +0.000 A 
ATOM      6  C   UNL     1       7.543   5.866  19.289  0.00  0.00    +0.000 A 
ATOM      7  C   UNL     1       7.916   6.952  18.516  0.00  0.00    +0.000 A 
ATOM      8  C   UNL     1       7.314   7.159  17.276  0.00  0.00    +0.000 A 
ATOM      9  C   UNL     1       6.323   6.282  16.795  0.00  0.00    +0.000 A 
BRANCH   9  10
ATOM     10  N   UNL     1       5.682   6.636  15.584  0.00  0.00    +0.000 N 
ATOM     11  H   UNL     1       4.899   6.032  15.351  0.00  0.00    +0.000 HD
ATOM     12  H   UNL     1       5.396   7.623  15.610  0.00  0.00    +0.000 HD
ENDBRANCH   9  10
ENDBRANCH   2   4
BRANCH   1  13
ATOM     13  C   UNL     1       2.901   5.363  18.377  0.00  0.00    +0.000 A 
ATOM     14  C   UNL     1       2.839   6.674  17.893  0.00  0.00    +0.000 A 
ATOM     15  C   UNL     1       2.425   7.712  18.733  0.00  0.00    +0.000 A 
ATOM     16  C   UNL     1       2.073   7.447  20.058  0.00  0.00    +0.000 A 
ATOM     17  C   UNL     1       2.083   6.140  20.530  0.00  0.00    +0.000 A 
ATOM     18  C   UNL     1       2.474   5.100  19.687  0.00  0.00    +0.000 A 
ENDBRANCH   1  13
BRANCH   1  20
ATOM     19  C   UNL     1       2.624   1.992  17.997  0.00  0.00    +0.000 C 
ATOM     20  C   UNL     1       2.559   3.256  17.152  0.00  0.00    +0.000 C 
ENDBRANCH   1  20
TORSDOF 4
ENDMDL
MODEL 7
REMARK VINA RESULT:      -6.6      1.790      4.924
REMARK  Name = 
REMARK  5 active torsions:
REMARK  status: ('A' for Active; 'I' for Inactive)
REMARK    1  A    between atoms: C_1  and  C_2
REMARK    2  A    between atoms: C_2  and  N_3
REMARK    3  A    between atoms: N_3  and  C_13
REMARK    4  A    between atoms: C_4  and  C_6
REMARK    5  A    between atoms: C_11  and  N_12
REMARK                            x       y       z     vdW  Elec       q    Type
REMARK                         _______ _______ _______ _____ _____    ______ ____
ROOT
ATOM      1  N   UNL     1       4.828   4.723  16.511  0.00  0.00    +0.000 N 
ATOM      2  C   UNL     1       3.734   4.022  17.068  0.00  0.00    +0.000 C 
ATOM      3  O   UNL     1       3.075   3.237  16.374  0.00  0.00    +0.000 OA
ENDROOT
BRANCH   2   4
ATOM      4  C   UNL     1       3.254   4.238  18.481  0.00  0.00    +0.000 A 
ATOM      5  C   UNL     1       2.539   5.388  18.858  0.00  0.00    +0.000 A 
ATOM      6  C   UNL     1       2.118   5.590  20.175  0.00  0.00    +0.000 A 
ATOM      7  C   UNL     1       2.340   4.611  21.127  0.00  0.00    +0.000 A 
ATOM      8  C   UNL     1       2.976   3.425  20.765  0.00  0.00    +0.000 A 
ATOM      9  C   UNL     1       3.405   3.206  19.442  0.00  0.00    +0.000 A 
BRANCH   9  10
ATOM     10  N   UNL     1       4.148   2.027  19.193  0.00  0.00    +0.000 N 
ATOM     11  H   UNL     1       3.678   1.182  19.506  0.00  0.00    +0.000 HD
ATOM     12  H   UNL     1       4.395   1.968  18.197  0.00  0.00    +0.000 HD
ENDBRANCH   9  10
ENDBRANCH   2   4
BRANCH   1  13
ATOM     13  C   UNL     1       5.782   5.479  17.242  0.00  0.00    +0.000 A 
ATOM     14  C   UNL     1       6.016   6.829  16.958  0.00  0.00    +0.000 A 
ATOM     15  C   UNL     1       7.072   7.502  17.576  0.00  0.00    +0.000 A 
ATOM     16  C   UNL     1       7.901   6.834  18.480  0.00  0.00    +0.000 A 
ATOM     17  C   UNL     1       7.644   5.508  18.806  0.00  0.00    +0.000 A 
ATOM     18  C   UNL     1       6.575   4.840  18.207  0.00  0.00    +0.000 A 
ENDBRANCH   1  13
BRANCH   1  20
ATOM     19  C   UNL     1       6.462   3.928  14.787  0.00  0.00    +0.000 C 
ATOM     20  C   UNL     1       5.096   4.532  15.076  0.00  0.00    +0.000 C 
ENDBRANCH   1  20
TORSDOF 4
ENDMDL
MODEL 8
REMARK VINA RESULT:      -6.5      1.581      2.136
REMARK  Name = 
REMARK  5 active torsions:
REMARK  status: ('A' for Active; 'I' for Inactive)
REMARK    1  A    between atoms: C_1  and  C_2
REMARK    2  A    between atoms: C_2  and  N_3
REMARK    3  A    between atoms: N_3  and  C_13
REMARK    4  A    between atoms: C_4  and  C_6
REMARK    5  A    between atoms: C_11  and  N_12
REMARK                            x       y       z     vdW  Elec       q    Type
REMARK                         _______ _______ _______ _____ _____    ______ ____
ROOT
ATOM      1  N   UNL     1       3.263   4.338  19.902  0.00  0.00    +0.000 N 
ATOM      2  C   UNL     1       4.474   3.761  19.455  0.00  0.00    +0.000 C 
ATOM      3  O   UNL     1       4.740   2.581  19.719  0.00  0.00    +0.000 OA
ENDROOT
BRANCH   2   4
ATOM      4  C   UNL     1       5.532   4.543  18.720  0.00  0.00    +0.000 A 
ATOM      5  C   UNL     1       6.376   5.455  19.375  0.00  0.00    +0.000 A 
ATOM      6  C   UNL     1       7.340   6.192  18.681  0.00  0.00    +0.000 A 
ATOM      7  C   UNL     1       7.529   5.976  17.328  0.00  0.00    +0.000 A 
ATOM      8  C   UNL     1       6.762   5.020  16.665  0.00  0.00    +0.000 A 
ATOM      9  C   UNL     1       5.788   4.269  17.351  0.00  0.00    +0.000 A 
BRANCH   9  10
ATOM     10  N   UNL     1       4.975   3.408  16.575  0.00  0.00    +0.000 N 
ATOM     11  H   UNL     1       5.456   2.567  16.270  0.00  0.00    +0.000 HD
ATOM     12  H   UNL     1       4.113   3.179  17.087  0.00  0.00    +0.000 HD
ENDBRANCH   9  10
ENDBRANCH   2   4
BRANCH   1  13
ATOM     13  C   UNL     1       2.747   5.596  19.492  0.00  0.00    +0.000 A 
ATOM     14  C   UNL     1       2.850   6.030  18.167  0.00  0.00    +0.000 A 
ATOM     15  C   UNL     1       2.486   7.336  17.826  0.00  0.00    +0.000 A 
ATOM     16  C   UNL     1       2.019   8.214  18.805  0.00  0.00    +0.000 A 
ATOM     17  C   UNL     1       1.866   7.775  20.115  0.00  0.00    +0.000 A 
ATOM     18  C   UNL     1       2.206   6.465  20.452  0.00  0.00    +0.000 A 
ENDBRANCH   1  13
BRANCH   1  20
ATOM     19  C   UNL     1       1.176   2.955  19.999  0.00  0.00    +0.000 C 
ATOM     20  C   UNL     1       2.385   3.506  20.741  0.00  0.00    +0.000 C 
ENDBRANCH   1  20
TORSDOF 4
ENDMDL
MODEL 9
REMARK VINA RESULT:      -6.5      2.483      5.718
REMARK  Name = 
REMARK  5 active torsions:
REMARK  status: ('A' for Active; 'I' for Inactive)
REMARK    1  A    between atoms: C_1  and  C_2
REMARK    2  A    between atoms: C_2  and  N_3
REMARK    3  A    between atoms: N_3  and  C_13
REMARK    4  A    between atoms: C_4  and  C_6
REMARK    5  A    between atoms: C_11  and  N_12
REMARK                            x       y       z     vdW  Elec       q    Type
REMARK                         _______ _______ _______ _____ _____    ______ ____
ROOT
ATOM      1  N   UNL     1       6.328   5.236  17.917  0.00  0.00    +0.000 N 
ATOM      2  C   UNL     1       5.338   5.017  18.902  0.00  0.00    +0.000 C 
ATOM      3  O   UNL     1       5.522   5.390  20.067  0.00  0.00    +0.000 OA
ENDROOT
BRANCH   2   4
ATOM      4  C   UNL     1       4.063   4.261  18.629  0.00  0.00    +0.000 A 
ATOM      5  C   UNL     1       2.974   4.851  17.965  0.00  0.00    +0.000 A 
ATOM      6  C   UNL     1       1.787   4.149  17.737  0.00  0.00    +0.000 A 
ATOM      7  C   UNL     1       1.693   2.818  18.102  0.00  0.00    +0.000 A 
ATOM      8  C   UNL     1       2.785   2.182  18.690  0.00  0.00    +0.000 A 
ATOM      9  C   UNL     1       3.987   2.876  18.926  0.00  0.00    +0.000 A 
BRANCH   9  10
ATOM     10  N   UNL     1       4.999   2.186  19.636  0.00  0.00    +0.000 N 
ATOM     11  H   UNL     1       4.687   1.301  20.024  0.00  0.00    +0.000 HD
ATOM     12  H   UNL     1       5.827   2.060  19.040  0.00  0.00    +0.000 HD
ENDBRANCH   9  10
ENDBRANCH   2   4
BRANCH   1  13
ATOM     13  C   UNL     1       6.157   5.051  16.518  0.00  0.00    +0.000 A 
ATOM     14  C   UNL     1       5.467   5.985  15.739  0.00  0.00    +0.000 A 
ATOM     15  C   UNL     1       5.170   5.700  14.403  0.00  0.00    +0.000 A 
ATOM     16  C   UNL     1       5.558   4.483  13.840  0.00  0.00    +0.000 A 
ATOM     17  C   UNL     1       6.288   3.572  14.594  0.00  0.00    +0.000 A 
ATOM     18  C   UNL     1       6.607   3.865  15.920  0.00  0.00    +0.000 A 
ENDBRANCH   1  13
BRANCH   1  20
ATOM     19  C   UNL     1       7.735   7.309  17.933  0.00  0.00    +0.000 C 
ATOM     20  C   UNL     1       7.593   5.852  18.351  0.00  0.00    +0.000 C 
ENDBRANCH   1  20
TORSDOF 4
ENDMDL
