MODEL 1
REMARK VINA RESULT:      -8.5      0.000      0.000
REMARK  Name = 
REMARK  8 active torsions:
REMARK  status: ('A' for Active; 'I' for Inactive)
REMARK    1  A    between atoms: N_1  and  C_2
REMARK    2  A    between atoms: C_6  and  C_8
REMARK    3  A    between atoms: C_8  and  N_9
REMARK    4  A    between atoms: N_9  and  C_10
REMARK    5  A    between atoms: C_12  and  C_13
REMARK    6  A    between atoms: C_20  and  O_21
REMARK    7  A    between atoms: O_21  and  C_22
REMARK    8  A    between atoms: C_22  and  C_23
REMARK                            x       y       z     vdW  Elec       q    Type
REMARK                         _______ _______ _______ _____ _____    ______ ____
ROOT
ATOM      1  C   UNL     1       2.853   7.644  18.311  0.00  0.00    +0.000 C 
ATOM      2  C   UNL     1       2.817   6.532  19.313  0.00  0.00    +0.000 C 
ATOM      3  C   UNL     1       3.051   6.207  17.853  0.00  0.00    +0.000 C 
ENDROOT
BRANCH   3   4
ATOM      4  C   UNL     1       4.405   5.790  17.300  0.00  0.00    +0.000 A 
ATOM      5  C   UNL     1       5.524   6.641  17.420  0.00  0.00    +0.000 A 
ATOM      6  C   UNL     1       6.777   6.273  16.934  0.00  0.00    +0.000 A 
ATOM      7  F   UNL     1       7.815   7.107  17.092  0.00  0.00    +0.000 F 
ATOM      8  C   UNL     1       6.967   5.063  16.298  0.00  0.00    +0.000 A 
ATOM      9  C   UNL     1       5.890   4.209  16.166  0.00  0.00    +0.000 A 
ATOM     10  F   UNL     1       6.114   3.058  15.513  0.00  0.00    +0.000 F 
ATOM     11  C   UNL     1       4.624   4.522  16.702  0.00  0.00    +0.000 A 
BRANCH  11  12
ATOM     12  O   UNL     1       3.558   3.639  16.711  0.00  0.00    +0.000 OA
BRANCH  12  13
ATOM     13  C   UNL     1       3.675   2.566  17.660  0.00  0.00    +0.000 C 
BRANCH  13  14
ATOM     14  C   UNL     1       2.804   2.724  18.888  0.00  0.00    +0.000 A 
ATOM     15  C   UNL     1       1.431   2.962  18.819  0.00  0.00    +0.000 A 
ATOM     16  C   UNL     1       0.699   3.164  19.993  0.00  0.00    +0.000 A 
ATOM     17  C   UNL     1       1.326   3.113  21.239  0.00  0.00    +0.000 A 
ATOM     18  C   UNL     1       2.688   2.832  21.319  0.00  0.00    +0.000 A 
ATOM     19  C   UNL     1       3.419   2.628  20.150  0.00  0.00    +0.000 A 
ENDBRANCH  13  14
ENDBRANCH  12  13
ENDBRANCH  11  12
ENDBRANCH   3   4
BRANCH   1  20
ATOM     20  N   UNL     1       1.628   8.333  17.885  0.00  0.00    +0.000 NA
ATOM     21  H   UNL     1       1.431   8.112  16.906  0.00  0.00    +0.000 HD
BRANCH  20  22
ATOM     22  C   UNL     1       1.697   9.795  18.026  0.00  0.00    +0.000 C 
BRANCH  22  27
ATOM     23  C   UNL     1       0.704  13.926  19.230  0.00  0.00    +0.000 C 
ATOM     24  C   UNL     1       0.469  13.616  20.712  0.00  0.00    +0.000 C 
ATOM     25  C   UNL     1       0.220  12.111  20.741  0.00  0.00    +0.000 C 
ATOM     26  N   UNL     1       0.908  11.596  19.571  0.00  0.00    +0.000 N 
ATOM     27  C   UNL     1       0.980  10.245  19.309  0.00  0.00    +0.000 C 
ATOM     28  O   UNL     1       0.460   9.416  20.060  0.00  0.00    +0.000 OA
ATOM     29  C   UNL     1       1.473  12.678  18.771  0.00  0.00    +0.000 C 
BRANCH  23  30
ATOM     30  N   UNL     1      -0.562  14.073  18.501  0.00  0.00    +0.000 NA
ATOM     31  H   UNL     1      -0.706  15.052  18.254  0.00  0.00    +0.000 HD
ATOM     32  H   UNL     1      -1.339  13.812  19.106  0.00  0.00    +0.000 HD
ENDBRANCH  23  30
ENDBRANCH  22  27
ENDBRANCH  20  22
ENDBRANCH   1  20
TORSDOF 8
ENDMDL
MODEL 2
REMARK VINA RESULT:      -8.4      1.360      2.221
REMARK  Name = 
REMARK  8 active torsions:
REMARK  status: ('A' for Active; 'I' for Inactive)
REMARK    1  A    between atoms: N_1  and  C_2
REMARK    2  A    between atoms: C_6  and  C_8
REMARK    3  A    between atoms: C_8  and  N_9
REMARK    4  A    between atoms: N_9  and  C_10
REMARK    5  A    between atoms: C_12  and  C_13
REMARK    6  A    between atoms: C_20  and  O_21
REMARK    7  A    between atoms: O_21  and  C_22
REMARK    8  A    between atoms: C_22  and  C_23
REMARK                            x       y       z     vdW  Elec       q    Type
REMARK                         _______ _______ _______ _____ _____    ______ ____
ROOT
ATOM      1  C   UNL     1       3.021   7.858  18.284  0.00  0.00    +0.000 C 
ATOM      2  C   UNL     1       2.753   6.647  19.122  0.00  0.00    +0.000 C 
ATOM      3  C   UNL     1       3.110   6.473  17.661  0.00  0.00    +0.000 C 
ENDROOT
BRANCH   3   4
ATOM      4  C   UNL     1       4.464   5.963  17.191  0.00  0.00    +0.000 A 
ATOM      5  C   UNL     1       5.612   6.778  17.285  0.00  0.00    +0.000 A 
ATOM      6  C   UNL     1       6.865   6.326  16.875  0.00  0.00    +0.000 A 
ATOM      7  F   UNL     1       7.929   7.130  17.004  0.00  0.00    +0.000 F 
ATOM      8  C   UNL     1       7.026   5.064  16.342  0.00  0.00    +0.000 A 
ATOM      9  C   UNL     1       5.920   4.242  16.237  0.00  0.00    +0.000 A 
ATOM     10  F   UNL     1       6.119   3.036  15.684  0.00  0.00    +0.000 F 
ATOM     11  C   UNL     1       4.651   4.644  16.702  0.00  0.00    +0.000 A 
BRANCH  11  12
ATOM     12  O   UNL     1       3.551   3.806  16.741  0.00  0.00    +0.000 OA
BRANCH  12  13
ATOM     13  C   UNL     1       3.668   2.704  17.656  0.00  0.00    +0.000 C 
BRANCH  13  14
ATOM     14  C   UNL     1       2.877   2.872  18.935  0.00  0.00    +0.000 A 
ATOM     15  C   UNL     1       3.430   2.682  20.202  0.00  0.00    +0.000 A 
ATOM     16  C   UNL     1       2.624   2.788  21.339  0.00  0.00    +0.000 A 
ATOM     17  C   UNL     1       1.269   3.101  21.222  0.00  0.00    +0.000 A 
ATOM     18  C   UNL     1       0.717   3.337  19.964  0.00  0.00    +0.000 A 
ATOM     19  C   UNL     1       1.521   3.233  18.830  0.00  0.00    +0.000 A 
ENDBRANCH  13  14
ENDBRANCH  12  13
ENDBRANCH  11  12
ENDBRANCH   3   4
BRANCH   1  20
ATOM     20  N   UNL     1       1.934   8.738  17.837  0.00  0.00    +0.000 NA
ATOM     21  H   UNL     1       2.304   9.671  17.643  0.00  0.00    +0.000 HD
BRANCH  20  22
ATOM     22  C   UNL     1       0.841   8.865  18.813  0.00  0.00    +0.000 C 
BRANCH  22  27
ATOM     23  C   UNL     1      -0.617   9.995  22.825  0.00  0.00    +0.000 C 
ATOM     24  C   UNL     1      -0.714  11.499  22.550  0.00  0.00    +0.000 C 
ATOM     25  C   UNL     1       0.188  11.713  21.339  0.00  0.00    +0.000 C 
ATOM     26  N   UNL     1       0.201  10.435  20.651  0.00  0.00    +0.000 N 
ATOM     27  C   UNL     1       0.849  10.265  19.447  0.00  0.00    +0.000 C 
ATOM     28  O   UNL     1       1.448  11.196  18.903  0.00  0.00    +0.000 OA
ATOM     29  C   UNL     1      -0.539   9.424  21.401  0.00  0.00    +0.000 C 
BRANCH  23  30
ATOM     30  N   UNL     1       0.584   9.663  23.601  0.00  0.00    +0.000 NA
ATOM     31  H   UNL     1       1.274   9.218  22.995  0.00  0.00    +0.000 HD
ATOM     32  H   UNL     1       0.351   8.980  24.321  0.00  0.00    +0.000 HD
ENDBRANCH  23  30
ENDBRANCH  22  27
ENDBRANCH  20  22
ENDBRANCH   1  20
TORSDOF 8
ENDMDL
MODEL 3
REMARK VINA RESULT:      -8.3      0.952      1.062
REMARK  Name = 
REMARK  8 active torsions:
REMARK  status: ('A' for Active; 'I' for Inactive)
REMARK    1  A    between atoms: N_1  and  C_2
REMARK    2  A    between atoms: C_6  and  C_8
REMARK    3  A    between atoms: C_8  and  N_9
REMARK    4  A    between atoms: N_9  and  C_10
REMARK    5  A    between atoms: C_12  and  C_13
REMARK    6  A    between atoms: C_20  and  O_21
REMARK    7  A    between atoms: O_21  and  C_22
REMARK    8  A    between atoms: C_22  and  C_23
REMARK                            x       y       z     vdW  Elec       q    Type
REMARK                         _______ _______ _______ _____ _____    ______ ____
ROOT
ATOM      1  C   UNL     1       2.826   7.660  18.555  0.00  0.00    +0.000 C 
ATOM      2  C   UNL     1       2.601   6.382  19.301  0.00  0.00    +0.000 C 
ATOM      3  C   UNL     1       2.955   6.329  17.830  0.00  0.00    +0.000 C 
ENDROOT
BRANCH   3   4
ATOM      4  C   UNL     1       4.321   5.899  17.318  0.00  0.00    +0.000 A 
ATOM      5  C   UNL     1       5.436   6.755  17.437  0.00  0.00    +0.000 A 
ATOM      6  C   UNL     1       6.700   6.375  16.988  0.00  0.00    +0.000 A 
ATOM      7  F   UNL     1       7.733   7.215  17.144  0.00  0.00    +0.000 F 
ATOM      8  C   UNL     1       6.905   5.148  16.392  0.00  0.00    +0.000 A 
ATOM      9  C   UNL     1       5.831   4.288  16.261  0.00  0.00    +0.000 A 
ATOM     10  F   UNL     1       6.070   3.119  15.646  0.00  0.00    +0.000 F 
ATOM     11  C   UNL     1       4.554   4.614  16.761  0.00  0.00    +0.000 A 
BRANCH  11  12
ATOM     12  O   UNL     1       3.489   3.730  16.773  0.00  0.00    +0.000 OA
BRANCH  12  13
ATOM     13  C   UNL     1       3.635   2.626  17.681  0.00  0.00    +0.000 C 
BRANCH  13  14
ATOM     14  C   UNL     1       2.776   2.724  18.923  0.00  0.00    +0.000 A 
ATOM     15  C   UNL     1       1.390   2.887  18.877  0.00  0.00    +0.000 A 
ATOM     16  C   UNL     1       0.666   3.037  20.063  0.00  0.00    +0.000 A 
ATOM     17  C   UNL     1       1.314   3.009  21.299  0.00  0.00    +0.000 A 
ATOM     18  C   UNL     1       2.690   2.802  21.357  0.00  0.00    +0.000 A 
ATOM     19  C   UNL     1       3.413   2.650  20.175  0.00  0.00    +0.000 A 
ENDBRANCH  13  14
ENDBRANCH  12  13
ENDBRANCH  11  12
ENDBRANCH   3   4
BRANCH   1  20
ATOM     20  N   UNL     1       1.709   8.536  18.179  0.00  0.00    +0.000 NA
ATOM     21  H   UNL     1       2.029   9.229  17.499  0.00  0.00    +0.000 HD
BRANCH  20  22
ATOM     22  C   UNL     1       1.110   9.246  19.319  0.00  0.00    +0.000 C 
BRANCH  22  27
ATOM     23  C   UNL     1       1.843  13.566  18.770  0.00  0.00    +0.000 C 
ATOM     24  C   UNL     1       0.369  13.983  18.734  0.00  0.00    +0.000 C 
ATOM     25  C   UNL     1      -0.373  12.692  18.399  0.00  0.00    +0.000 C 
ATOM     26  N   UNL     1       0.493  11.629  18.877  0.00  0.00    +0.000 N 
ATOM     27  C   UNL     1       0.111  10.305  18.826  0.00  0.00    +0.000 C 
ATOM     28  O   UNL     1      -0.985   9.970  18.370  0.00  0.00    +0.000 OA
ATOM     29  C   UNL     1       1.753  12.161  19.385  0.00  0.00    +0.000 C 
BRANCH  23  30
ATOM     30  N   UNL     1       2.426  13.524  17.423  0.00  0.00    +0.000 NA
ATOM     31  H   UNL     1       1.702  13.300  16.741  0.00  0.00    +0.000 HD
ATOM     32  H   UNL     1       3.113  12.774  17.370  0.00  0.00    +0.000 HD
ENDBRANCH  23  30
ENDBRANCH  22  27
ENDBRANCH  20  22
ENDBRANCH   1  20
TORSDOF 8
ENDMDL
MODEL 4
REMARK VINA RESULT:      -8.3      1.134      1.508
REMARK  Name = 
REMARK  8 active torsions:
REMARK  status: ('A' for Active; 'I' for Inactive)
REMARK    1  A    between atoms: N_1  and  C_2
REMARK    2  A    between atoms: C_6  and  C_8
REMARK    3  A    between atoms: C_8  and  N_9
REMARK    4  A    between atoms: N_9  and  C_10
REMARK    5  A    between atoms: C_12  and  C_13
REMARK    6  A    between atoms: C_20  and  O_21
REMARK    7  A    between atoms: O_21  and  C_22
REMARK    8  A    between atoms: C_22  and  C_23
REMARK                            x       y       z     vdW  Elec       q    Type
REMARK                         _______ _______ _______ _____ _____    ______ ____
ROOT
ATOM      1  C   UNL     1       2.826   8.011  18.073  0.00  0.00    +0.000 C 
ATOM      2  C   UNL     1       2.663   6.941  19.107  0.00  0.00    +0.000 C 
ATOM      3  C   UNL     1       2.984   6.549  17.681  0.00  0.00    +0.000 C 
ENDROOT
BRANCH   3   4
ATOM      4  C   UNL     1       4.353   6.048  17.244  0.00  0.00    +0.000 A 
ATOM      5  C   UNL     1       5.495   6.864  17.380  0.00  0.00    +0.000 A 
ATOM      6  C   UNL     1       6.760   6.420  17.001  0.00  0.00    +0.000 A 
ATOM      7  F   UNL     1       7.819   7.225  17.170  0.00  0.00    +0.000 F 
ATOM      8  C   UNL     1       6.941   5.164  16.458  0.00  0.00    +0.000 A 
ATOM      9  C   UNL     1       5.840   4.341  16.313  0.00  0.00    +0.000 A 
ATOM     10  F   UNL     1       6.057   3.142  15.752  0.00  0.00    +0.000 F 
ATOM     11  C   UNL     1       4.557   4.735  16.745  0.00  0.00    +0.000 A 
BRANCH  11  12
ATOM     12  O   UNL     1       3.458   3.893  16.743  0.00  0.00    +0.000 OA
BRANCH  12  13
ATOM     13  C   UNL     1       3.566   2.763  17.623  0.00  0.00    +0.000 C 
BRANCH  13  14
ATOM     14  C   UNL     1       2.841   2.929  18.941  0.00  0.00    +0.000 A 
ATOM     15  C   UNL     1       3.433   2.654  20.175  0.00  0.00    +0.000 A 
ATOM     16  C   UNL     1       2.682   2.766  21.349  0.00  0.00    +0.000 A 
ATOM     17  C   UNL     1       1.346   3.168  21.302  0.00  0.00    +0.000 A 
ATOM     18  C   UNL     1       0.760   3.488  20.079  0.00  0.00    +0.000 A 
ATOM     19  C   UNL     1       1.508   3.379  18.908  0.00  0.00    +0.000 A 
ENDBRANCH  13  14
ENDBRANCH  12  13
ENDBRANCH  11  12
ENDBRANCH   3   4
BRANCH   1  20
ATOM     20  N   UNL     1       1.672   8.740  17.534  0.00  0.00    +0.000 NA
ATOM     21  H   UNL     1       1.873   9.045  16.579  0.00  0.00    +0.000 HD
BRANCH  20  22
ATOM     22  C   UNL     1       1.299   9.920  18.329  0.00  0.00    +0.000 C 
BRANCH  22  27
ATOM     23  C   UNL     1      -0.942  13.342  19.993  0.00  0.00    +0.000 C 
ATOM     24  C   UNL     1      -2.331  12.704  19.878  0.00  0.00    +0.000 C 
ATOM     25  C   UNL     1      -2.143  11.592  18.850  0.00  0.00    +0.000 C 
ATOM     26  N   UNL     1      -0.737  11.239  18.934  0.00  0.00    +0.000 N 
ATOM     27  C   UNL     1      -0.208  10.196  18.205  0.00  0.00    +0.000 C 
ATOM     28  O   UNL     1      -0.909   9.519  17.449  0.00  0.00    +0.000 OA
ATOM     29  C   UNL     1      -0.026  12.116  19.857  0.00  0.00    +0.000 C 
BRANCH  23  30
ATOM     30  N   UNL     1      -0.701  14.311  18.917  0.00  0.00    +0.000 NA
ATOM     31  H   UNL     1      -1.166  14.001  18.063  0.00  0.00    +0.000 HD
ATOM     32  H   UNL     1       0.295  14.348  18.704  0.00  0.00    +0.000 HD
ENDBRANCH  23  30
ENDBRANCH  22  27
ENDBRANCH  20  22
ENDBRANCH   1  20
TORSDOF 8
ENDMDL
MODEL 5
REMARK VINA RESULT:      -8.2      0.967      1.558
REMARK  Name = 
REMARK  8 active torsions:
REMARK  status: ('A' for Active; 'I' for Inactive)
REMARK    1  A    between atoms: N_1  and  C_2
REMARK    2  A    between atoms: C_6  and  C_8
REMARK    3  A    between atoms: C_8  and  N_9
REMARK    4  A    between atoms: N_9  and  C_10
REMARK    5  A    between atoms: C_12  and  C_13
REMARK    6  A    between atoms: C_20  and  O_21
REMARK    7  A    between atoms: O_21  and  C_22
REMARK    8  A    between atoms: C_22  and  C_23
REMARK                            x       y       z     vdW  Elec       q    Type
REMARK                         _______ _______ _______ _____ _____    ______ ____
ROOT
ATOM      1  C   UNL     1       2.919   7.685  18.374  0.00  0.00    +0.000 C 
ATOM      2  C   UNL     1       2.758   6.484  19.254  0.00  0.00    +0.000 C 
ATOM      3  C   UNL     1       3.059   6.291  17.783  0.00  0.00    +0.000 C 
ENDROOT
BRANCH   3   4
ATOM      4  C   UNL     1       4.417   5.844  17.264  0.00  0.00    +0.000 A 
ATOM      5  C   UNL     1       5.543   6.687  17.374  0.00  0.00    +0.000 A 
ATOM      6  C   UNL     1       6.799   6.292  16.919  0.00  0.00    +0.000 A 
ATOM      7  F   UNL     1       7.843   7.121  17.066  0.00  0.00    +0.000 F 
ATOM      8  C   UNL     1       6.987   5.061  16.324  0.00  0.00    +0.000 A 
ATOM      9  C   UNL     1       5.902   4.213  16.202  0.00  0.00    +0.000 A 
ATOM     10  F   UNL     1       6.124   3.041  15.588  0.00  0.00    +0.000 F 
ATOM     11  C   UNL     1       4.632   4.555  16.709  0.00  0.00    +0.000 A 
BRANCH  11  12
ATOM     12  O   UNL     1       3.557   3.683  16.729  0.00  0.00    +0.000 OA
BRANCH  12  13
ATOM     13  C   UNL     1       3.688   2.591  17.653  0.00  0.00    +0.000 C 
BRANCH  13  14
ATOM     14  C   UNL     1       2.892   2.757  18.929  0.00  0.00    +0.000 A 
ATOM     15  C   UNL     1       3.465   2.674  20.199  0.00  0.00    +0.000 A 
ATOM     16  C   UNL     1       2.658   2.772  21.336  0.00  0.00    +0.000 A 
ATOM     17  C   UNL     1       1.282   2.969  21.215  0.00  0.00    +0.000 A 
ATOM     18  C   UNL     1       0.707   3.098  19.953  0.00  0.00    +0.000 A 
ATOM     19  C   UNL     1       1.511   3.004  18.818  0.00  0.00    +0.000 A 
ENDBRANCH  13  14
ENDBRANCH  12  13
ENDBRANCH  11  12
ENDBRANCH   3   4
BRANCH   1  20
ATOM     20  N   UNL     1       1.765   8.491  17.956  0.00  0.00    +0.000 NA
ATOM     21  H   UNL     1       2.024   9.073  17.157  0.00  0.00    +0.000 HD
BRANCH  20  22
ATOM     22  C   UNL     1       1.243   9.364  19.018  0.00  0.00    +0.000 C 
BRANCH  22  27
ATOM     23  C   UNL     1      -0.750  12.878  20.802  0.00  0.00    +0.000 C 
ATOM     24  C   UNL     1      -0.413  13.854  19.669  0.00  0.00    +0.000 C 
ATOM     25  C   UNL     1       0.760  13.196  18.950  0.00  0.00    +0.000 C 
ATOM     26  N   UNL     1       0.612  11.776  19.215  0.00  0.00    +0.000 N 
ATOM     27  C   UNL     1       1.451  10.841  18.647  0.00  0.00    +0.000 C 
ATOM     28  O   UNL     1       2.364  11.175  17.888  0.00  0.00    +0.000 OA
ATOM     29  C   UNL     1      -0.499  11.521  20.126  0.00  0.00    +0.000 C 
BRANCH  23  30
ATOM     30  N   UNL     1       0.131  13.070  21.961  0.00  0.00    +0.000 NA
ATOM     31  H   UNL     1       0.774  13.841  21.781  0.00  0.00    +0.000 HD
ATOM     32  H   UNL     1       0.707  12.240  22.095  0.00  0.00    +0.000 HD
ENDBRANCH  23  30
ENDBRANCH  22  27
ENDBRANCH  20  22
ENDBRANCH   1  20
TORSDOF 8
ENDMDL
MODEL 6
REMARK VINA RESULT:      -8.2      2.409      4.698
REMARK  Name = 
REMARK  8 active torsions:
REMARK  status: ('A' for Active; 'I' for Inactive)
REMARK    1  A    between atoms: N_1  and  C_2
REMARK    2  A    between atoms: C_6  and  C_8
REMARK    3  A    between atoms: C_8  and  N_9
REMARK    4  A    between atoms: N_9  and  C_10
REMARK    5  A    between atoms: C_12  and  C_13
REMARK    6  A    between atoms: C_20  and  O_21
REMARK    7  A    between atoms: O_21  and  C_22
REMARK    8  A    between atoms: C_22  and  C_23
REMARK                            x       y       z     vdW  Elec       q    Type
REMARK                         _______ _______ _______ _____ _____    ______ ____
ROOT
ATOM      1  C   UNL     1       2.005   7.490  18.684  0.00  0.00    +0.000 C 
ATOM      2  C   UNL     1       3.176   7.206  17.795  0.00  0.00    +0.000 C 
ATOM      3  C   UNL     1       3.071   6.500  19.130  0.00  0.00    +0.000 C 
ENDROOT
BRANCH   3   4
ATOM      4  C   UNL     1       2.701   5.031  19.267  0.00  0.00    +0.000 A 
ATOM      5  C   UNL     1       1.941   4.581  20.367  0.00  0.00    +0.000 A 
ATOM      6  C   UNL     1       1.577   3.242  20.504  0.00  0.00    +0.000 A 
ATOM      7  F   UNL     1       0.836   2.867  21.556  0.00  0.00    +0.000 F 
ATOM      8  C   UNL     1       1.965   2.300  19.574  0.00  0.00    +0.000 A 
ATOM      9  C   UNL     1       2.711   2.711  18.486  0.00  0.00    +0.000 A 
ATOM     10  F   UNL     1       3.092   1.756  17.624  0.00  0.00    +0.000 F 
ATOM     11  C   UNL     1       3.041   4.067  18.282  0.00  0.00    +0.000 A 
BRANCH  11  12
ATOM     12  O   UNL     1       3.666   4.539  17.141  0.00  0.00    +0.000 OA
BRANCH  12  13
ATOM     13  C   UNL     1       5.014   4.075  16.961  0.00  0.00    +0.000 C 
BRANCH  13  14
ATOM     14  C   UNL     1       6.071   5.008  17.511  0.00  0.00    +0.000 A 
ATOM     15  C   UNL     1       6.631   4.858  18.780  0.00  0.00    +0.000 A 
ATOM     16  C   UNL     1       7.555   5.796  19.250  0.00  0.00    +0.000 A 
ATOM     17  C   UNL     1       7.938   6.876  18.454  0.00  0.00    +0.000 A 
ATOM     18  C   UNL     1       7.418   7.010  17.168  0.00  0.00    +0.000 A 
ATOM     19  C   UNL     1       6.499   6.074  16.697  0.00  0.00    +0.000 A 
ENDBRANCH  13  14
ENDBRANCH  12  13
ENDBRANCH  11  12
ENDBRANCH   3   4
BRANCH   1  20
ATOM     20  N   UNL     1       1.893   8.752  19.426  0.00  0.00    +0.000 NA
ATOM     21  H   UNL     1       1.563   8.564  20.375  0.00  0.00    +0.000 HD
BRANCH  20  22
ATOM     22  C   UNL     1       0.982   9.722  18.801  0.00  0.00    +0.000 C 
BRANCH  22  27
ATOM     23  C   UNL     1      -0.808  10.181  22.812  0.00  0.00    +0.000 C 
ATOM     24  C   UNL     1      -0.926  11.708  22.768  0.00  0.00    +0.000 C 
ATOM     25  C   UNL     1       0.059  12.125  21.681  0.00  0.00    +0.000 C 
ATOM     26  N   UNL     1       0.160  10.971  20.805  0.00  0.00    +0.000 N 
ATOM     27  C   UNL     1       0.902  11.004  19.645  0.00  0.00    +0.000 C 
ATOM     28  O   UNL     1       1.514  12.019  19.302  0.00  0.00    +0.000 OA
ATOM     29  C   UNL     1      -0.606   9.843  21.327  0.00  0.00    +0.000 C 
BRANCH  23  30
ATOM     30  N   UNL     1       0.340   9.749  23.619  0.00  0.00    +0.000 NA
ATOM     31  H   UNL     1       1.202  10.119  23.218  0.00  0.00    +0.000 HD
ATOM     32  H   UNL     1       0.421   8.734  23.586  0.00  0.00    +0.000 HD
ENDBRANCH  23  30
ENDBRANCH  22  27
ENDBRANCH  20  22
ENDBRANCH   1  20
TORSDOF 8
ENDMDL
MODEL 7
REMARK VINA RESULT:      -8.1      2.548      4.719
REMARK  Name = 
REMARK  8 active torsions:
REMARK  status: ('A' for Active; 'I' for Inactive)
REMARK    1  A    between atoms: N_1  and  C_2
REMARK    2  A    between atoms: C_6  and  C_8
REMARK    3  A    between atoms: C_8  and  N_9
REMARK    4  A    between atoms: N_9  and  C_10
REMARK    5  A    between atoms: C_12  and  C_13
REMARK    6  A    between atoms: C_20  and  O_21
REMARK    7  A    between atoms: O_21  and  C_22
REMARK    8  A    between atoms: C_22  and  C_23
REMARK                            x       y       z     vdW  Elec       q    Type
REMARK                         _______ _______ _______ _____ _____    ______ ____
ROOT
ATOM      1  C   UNL     1       1.741   7.406  19.960  0.00  0.00    +0.000 C 
ATOM      2  C   UNL     1       2.477   7.346  18.657  0.00  0.00    +0.000 C 
ATOM      3  C   UNL     1       2.836   6.369  19.756  0.00  0.00    +0.000 C 
ENDROOT
BRANCH   3   4
ATOM      4  C   UNL     1       2.457   4.896  19.715  0.00  0.00    +0.000 A 
ATOM      5  C   UNL     1       1.867   4.274  20.836  0.00  0.00    +0.000 A 
ATOM      6  C   UNL     1       1.498   2.931  20.816  0.00  0.00    +0.000 A 
ATOM      7  F   UNL     1       0.921   2.390  21.898  0.00  0.00    +0.000 F 
ATOM      8  C   UNL     1       1.714   2.150  19.699  0.00  0.00    +0.000 A 
ATOM      9  C   UNL     1       2.291   2.731  18.586  0.00  0.00    +0.000 A 
ATOM     10  F   UNL     1       2.511   1.926  17.535  0.00  0.00    +0.000 F 
ATOM     11  C   UNL     1       2.617   4.102  18.550  0.00  0.00    +0.000 A 
BRANCH  11  12
ATOM     12  O   UNL     1       3.067   4.751  17.413  0.00  0.00    +0.000 OA
BRANCH  12  13
ATOM     13  C   UNL     1       4.371   4.343  16.967  0.00  0.00    +0.000 C 
BRANCH  13  14
ATOM     14  C   UNL     1       5.493   5.258  17.405  0.00  0.00    +0.000 A 
ATOM     15  C   UNL     1       5.689   6.531  16.867  0.00  0.00    +0.000 A 
ATOM     16  C   UNL     1       6.787   7.297  17.271  0.00  0.00    +0.000 A 
ATOM     17  C   UNL     1       7.683   6.808  18.223  0.00  0.00    +0.000 A 
ATOM     18  C   UNL     1       7.470   5.557  18.798  0.00  0.00    +0.000 A 
ATOM     19  C   UNL     1       6.374   4.793  18.398  0.00  0.00    +0.000 A 
ENDBRANCH  13  14
ENDBRANCH  12  13
ENDBRANCH  11  12
ENDBRANCH   3   4
BRANCH   1  20
ATOM     20  N   UNL     1       1.989   8.476  20.933  0.00  0.00    +0.000 NA
ATOM     21  H   UNL     1       2.653   8.153  21.639  0.00  0.00    +0.000 HD
BRANCH  20  22
ATOM     22  C   UNL     1       0.773   8.941  21.618  0.00  0.00    +0.000 C 
BRANCH  22  27
ATOM     23  C   UNL     1      -1.613  12.359  23.077  0.00  0.00    +0.000 C 
ATOM     24  C   UNL     1      -2.337  12.633  21.755  0.00  0.00    +0.000 C 
ATOM     25  C   UNL     1      -1.461  11.957  20.705  0.00  0.00    +0.000 C 
ATOM     26  N   UNL     1      -0.771  10.898  21.420  0.00  0.00    +0.000 N 
ATOM     27  C   UNL     1       0.054  10.004  20.772  0.00  0.00    +0.000 C 
ATOM     28  O   UNL     1       0.241  10.068  19.554  0.00  0.00    +0.000 OA
ATOM     29  C   UNL     1      -1.076  10.938  22.847  0.00  0.00    +0.000 C 
BRANCH  23  30
ATOM     30  N   UNL     1      -0.520  13.313  23.304  0.00  0.00    +0.000 NA
ATOM     31  H   UNL     1      -0.647  13.775  24.204  0.00  0.00    +0.000 HD
ATOM     32  H   UNL     1      -0.553  14.047  22.598  0.00  0.00    +0.000 HD
ENDBRANCH  23  30
ENDBRANCH  22  27
ENDBRANCH  20  22
ENDBRANCH   1  20
TORSDOF 8
ENDMDL
MODEL 8
REMARK VINA RESULT:      -7.9      2.341      4.496
REMARK  Name = 
REMARK  8 active torsions:
REMARK  status: ('A' for Active; 'I' for Inactive)
REMARK    1  A    between atoms: N_1  and  C_2
REMARK    2  A    between atoms: C_6  and  C_8
REMARK    3  A    between atoms: C_8  and  N_9
REMARK    4  A    between atoms: N_9  and  C_10
REMARK    5  A    between atoms: C_12  and  C_13
REMARK    6  A    between atoms: C_20  and  O_21
REMARK    7  A    between atoms: O_21  and  C_22
REMARK    8  A    between atoms: C_22  and  C_23
REMARK                            x       y       z     vdW  Elec       q    Type
REMARK                         _______ _______ _______ _____ _____    ______ ____
ROOT
ATOM      1  C   UNL     1       1.454   7.601  19.874  0.00  0.00    +0.000 C 
ATOM      2  C   UNL     1       2.435   7.593  18.743  0.00  0.00    +0.000 C 
ATOM      3  C   UNL     1       2.628   6.635  19.899  0.00  0.00    +0.000 C 
ENDROOT
BRANCH   3   4
ATOM      4  C   UNL     1       2.355   5.142  19.796  0.00  0.00    +0.000 A 
ATOM      5  C   UNL     1       1.750   4.446  20.864  0.00  0.00    +0.000 A 
ATOM      6  C   UNL     1       1.477   3.081  20.786  0.00  0.00    +0.000 A 
ATOM      7  F   UNL     1       0.881   2.469  21.819  0.00  0.00    +0.000 F 
ATOM      8  C   UNL     1       1.806   2.353  19.661  0.00  0.00    +0.000 A 
ATOM      9  C   UNL     1       2.400   3.007  18.598  0.00  0.00    +0.000 A 
ATOM     10  F   UNL     1       2.731   2.253  17.539  0.00  0.00    +0.000 F 
ATOM     11  C   UNL     1       2.631   4.398  18.619  0.00  0.00    +0.000 A 
BRANCH  11  12
ATOM     12  O   UNL     1       3.097   5.112  17.528  0.00  0.00    +0.000 OA
BRANCH  12  13
ATOM     13  C   UNL     1       4.366   4.670  17.020  0.00  0.00    +0.000 C 
BRANCH  13  14
ATOM     14  C   UNL     1       5.547   5.482  17.506  0.00  0.00    +0.000 A 
ATOM     15  C   UNL     1       5.964   6.661  16.887  0.00  0.00    +0.000 A 
ATOM     16  C   UNL     1       7.105   7.326  17.349  0.00  0.00    +0.000 A 
ATOM     17  C   UNL     1       7.823   6.830  18.438  0.00  0.00    +0.000 A 
ATOM     18  C   UNL     1       7.388   5.678  19.091  0.00  0.00    +0.000 A 
ATOM     19  C   UNL     1       6.250   5.016  18.632  0.00  0.00    +0.000 A 
ENDBRANCH  13  14
ENDBRANCH  12  13
ENDBRANCH  11  12
ENDBRANCH   3   4
BRANCH   1  20
ATOM     20  N   UNL     1       1.439   8.681  20.869  0.00  0.00    +0.000 NA
ATOM     21  H   UNL     1       1.934   8.380  21.711  0.00  0.00    +0.000 HD
BRANCH  20  22
ATOM     22  C   UNL     1       0.085   9.108  21.253  0.00  0.00    +0.000 C 
BRANCH  22  27
ATOM     23  C   UNL     1      -0.568  12.506  18.509  0.00  0.00    +0.000 C 
ATOM     24  C   UNL     1       0.010  13.582  19.435  0.00  0.00    +0.000 C 
ATOM     25  C   UNL     1      -0.040  12.944  20.820  0.00  0.00    +0.000 C 
ATOM     26  N   UNL     1       0.011  11.514  20.575  0.00  0.00    +0.000 N 
ATOM     27  C   UNL     1       0.074  10.603  21.608  0.00  0.00    +0.000 C 
ATOM     28  O   UNL     1       0.091  10.968  22.786  0.00  0.00    +0.000 OA
ATOM     29  C   UNL     1      -0.017  11.221  19.145  0.00  0.00    +0.000 C 
BRANCH  23  30
ATOM     30  N   UNL     1      -2.037  12.519  18.516  0.00  0.00    +0.000 NA
ATOM     31  H   UNL     1      -2.380  12.223  19.430  0.00  0.00    +0.000 HD
ATOM     32  H   UNL     1      -2.389  11.840  17.843  0.00  0.00    +0.000 HD
ENDBRANCH  23  30
ENDBRANCH  22  27
ENDBRANCH  20  22
ENDBRANCH   1  20
TORSDOF 8
ENDMDL
MODEL 9
REMARK VINA RESULT:      -7.9      2.237      4.425
REMARK  Name = 
REMARK  8 active torsions:
REMARK  status: ('A' for Active; 'I' for Inactive)
REMARK    1  A    between atoms: N_1  and  C_2
REMARK    2  A    between atoms: C_6  and  C_8
REMARK    3  A    between atoms: C_8  and  N_9
REMARK    4  A    between atoms: N_9  and  C_10
REMARK    5  A    between atoms: C_12  and  C_13
REMARK    6  A    between atoms: C_20  and  O_21
REMARK    7  A    between atoms: O_21  and  C_22
REMARK    8  A    between atoms: C_22  and  C_23
REMARK                            x       y       z     vdW  Elec       q    Type
REMARK                         _______ _______ _______ _____ _____    ______ ____
ROOT
ATOM      1  C   UNL     1       1.766   7.466  19.453  0.00  0.00    +0.000 C 
ATOM      2  C   UNL     1       2.795   7.302  18.379  0.00  0.00    +0.000 C 
ATOM      3  C   UNL     1       2.862   6.423  19.609  0.00  0.00    +0.000 C 
ENDROOT
BRANCH   3   4
ATOM      4  C   UNL     1       2.483   4.950  19.600  0.00  0.00    +0.000 A 
ATOM      5  C   UNL     1       1.837   4.366  20.710  0.00  0.00    +0.000 A 
ATOM      6  C   UNL     1       1.467   3.023  20.718  0.00  0.00    +0.000 A 
ATOM      7  F   UNL     1       0.836   2.520  21.788  0.00  0.00    +0.000 F 
ATOM      8  C   UNL     1       1.737   2.204  19.640  0.00  0.00    +0.000 A 
ATOM      9  C   UNL     1       2.368   2.747  18.537  0.00  0.00    +0.000 A 
ATOM     10  F   UNL     1       2.639   1.907  17.526  0.00  0.00    +0.000 F 
ATOM     11  C   UNL     1       2.698   4.117  18.471  0.00  0.00    +0.000 A 
BRANCH  11  12
ATOM     12  O   UNL     1       3.206   4.726  17.337  0.00  0.00    +0.000 OA
BRANCH  12  13
ATOM     13  C   UNL     1       4.500   4.253  16.929  0.00  0.00    +0.000 C 
BRANCH  13  14
ATOM     14  C   UNL     1       5.657   5.068  17.463  0.00  0.00    +0.000 A 
ATOM     15  C   UNL     1       6.260   4.816  18.697  0.00  0.00    +0.000 A 
ATOM     16  C   UNL     1       7.282   5.652  19.158  0.00  0.00    +0.000 A 
ATOM     17  C   UNL     1       7.719   6.730  18.387  0.00  0.00    +0.000 A 
ATOM     18  C   UNL     1       7.155   6.963  17.135  0.00  0.00    +0.000 A 
ATOM     19  C   UNL     1       6.138   6.129  16.673  0.00  0.00    +0.000 A 
ENDBRANCH  13  14
ENDBRANCH  12  13
ENDBRANCH  11  12
ENDBRANCH   3   4
BRANCH   1  20
ATOM     20  N   UNL     1       1.785   8.617  20.365  0.00  0.00    +0.000 NA
ATOM     21  H   UNL     1       2.348   8.394  21.188  0.00  0.00    +0.000 HD
BRANCH  20  22
ATOM     22  C   UNL     1       0.448   9.032  20.816  0.00  0.00    +0.000 C 
BRANCH  22  27
ATOM     23  C   UNL     1      -0.021  12.892  18.722  0.00  0.00    +0.000 C 
ATOM     24  C   UNL     1       0.597  13.756  19.826  0.00  0.00    +0.000 C 
ATOM     25  C   UNL     1       0.504  12.885  21.075  0.00  0.00    +0.000 C 
ATOM     26  N   UNL     1       0.491  11.520  20.578  0.00  0.00    +0.000 N 
ATOM     27  C   UNL     1       0.502  10.438  21.432  0.00  0.00    +0.000 C 
ATOM     28  O   UNL     1       0.523  10.586  22.657  0.00  0.00    +0.000 OA
ATOM     29  C   UNL     1       0.464  11.489  19.119  0.00  0.00    +0.000 C 
BRANCH  23  30
ATOM     30  N   UNL     1      -1.487  12.972  18.728  0.00  0.00    +0.000 NA
ATOM     31  H   UNL     1      -1.806  13.386  19.604  0.00  0.00    +0.000 HD
ATOM     32  H   UNL     1      -1.882  12.034  18.694  0.00  0.00    +0.000 HD
ENDBRANCH  23  30
ENDBRANCH  22  27
ENDBRANCH  20  22
ENDBRANCH   1  20
TORSDOF 8
ENDMDL
