MODEL 1
REMARK VINA RESULT:      -6.4      0.000      0.000
REMARK  Name = 
REMARK  15 active torsions:
REMARK  status: ('A' for Active; 'I' for Inactive)
REMARK    1  A    between atoms: C_1  and  N_2
REMARK    2  A    between atoms: N_2  and  C_3
REMARK    3  A    between atoms: N_2  and  C_4
REMARK    4  A    between atoms: C_7  and  C_8
REMARK    5  A    between atoms: C_8  and  O_9
REMARK    6  A    between atoms: O_9  and  C_10
REMARK    7  A    between atoms: C_13  and  O_14
REMARK    8  A    between atoms: O_14  and  C_15
REMARK    9  A    between atoms: C_15  and  C_16
REMARK   10  A    between atoms: C_16  and  O_17
REMARK   11  A    between atoms: O_17  and  C_18
REMARK   12  A    between atoms: C_18  and  C_19
REMARK   13  A    between atoms: C_19  and  O_20
REMARK   14  A    between atoms: O_20  and  C_21
REMARK   15  A    between atoms: C_21  and  C_22
REMARK                            x       y       z     vdW  Elec       q    Type
REMARK                         _______ _______ _______ _____ _____    ______ ____
ROOT
ATOM      1  C   UNL     1       6.846   6.977  17.187  0.00  0.00    +0.000 A 
ATOM      2  C   UNL     1       5.612   6.919  16.551  0.00  0.00    +0.000 A 
ATOM      3  C   UNL     1       4.876   5.789  16.534  0.00  0.00    +0.000 A 
ATOM      4  C   UNL     1       5.332   4.605  17.113  0.00  0.00    +0.000 A 
ATOM      5  C   UNL     1       6.572   4.619  17.781  0.00  0.00    +0.000 A 
ATOM      6  C   UNL     1       7.331   5.815  17.815  0.00  0.00    +0.000 A 
ENDROOT
BRANCH   1   7
ATOM      7  O   UNL     1       7.570   8.141  17.196  0.00  0.00    +0.000 OA
BRANCH   7   8
ATOM      8  C   UNL     1       8.363   8.300  18.403  0.00  0.00    +0.000 C 
BRANCH   8  12
ATOM      9  C   UNL     1       9.532  12.462  18.786  0.00  0.00    +0.000 A 
ATOM     10  C   UNL     1       8.721  12.013  17.733  0.00  0.00    +0.000 A 
ATOM     11  C   UNL     1       8.311  10.684  17.634  0.00  0.00    +0.000 A 
ATOM     12  C   UNL     1       8.721   9.747  18.575  0.00  0.00    +0.000 A 
ATOM     13  C   UNL     1       9.481  10.175  19.667  0.00  0.00    +0.000 A 
ATOM     14  C   UNL     1       9.874  11.513  19.763  0.00  0.00    +0.000 A 
BRANCH   9  16
ATOM     15  C   UNL     1      10.622  14.379  17.689  0.00  0.00    +0.000 C 
ATOM     16  N   UNL     1       9.975  13.779  18.849  0.00  0.00    +0.000 N 
ATOM     17  C   UNL     1      10.210  14.372  20.159  0.00  0.00    +0.000 C 
ENDBRANCH   9  16
ENDBRANCH   8  12
ENDBRANCH   7   8
ENDBRANCH   1   7
BRANCH   4  18
ATOM     18  O   UNL     1       4.581   3.452  17.027  0.00  0.00    +0.000 OA
BRANCH  18  19
ATOM     19  C   UNL     1       3.701   3.267  18.168  0.00  0.00    +0.000 C 
BRANCH  19  20
ATOM     20  C   UNL     1       3.215   1.841  18.230  0.00  0.00    +0.000 C 
BRANCH  20  21
ATOM     21  O   UNL     1       2.244   1.716  19.264  0.00  0.00    +0.000 OA
BRANCH  21  22
ATOM     22  C   UNL     1       1.638   2.975  19.555  0.00  0.00    +0.000 C 
BRANCH  22  23
ATOM     23  C   UNL     1       1.718   3.257  21.051  0.00  0.00    +0.000 C 
BRANCH  23  24
ATOM     24  O   UNL     1       2.294   4.548  21.253  0.00  0.00    +0.000 OA
BRANCH  24  25
ATOM     25  C   UNL     1       1.620   5.545  20.486  0.00  0.00    +0.000 C 
BRANCH  25  26
ATOM     26  C   UNL     1       2.637   6.392  19.744  0.00  0.00    +0.000 C 
ATOM     27  F   UNL     1       2.274   6.487  18.437  0.00  0.00    +0.000 F 
ENDBRANCH  25  26
ENDBRANCH  24  25
ENDBRANCH  23  24
ENDBRANCH  22  23
ENDBRANCH  21  22
ENDBRANCH  20  21
ENDBRANCH  19  20
ENDBRANCH  18  19
ENDBRANCH   4  18
TORSDOF 13
ENDMDL
MODEL 2
REMARK VINA RESULT:      -6.4      1.240      1.511
REMARK  Name = 
REMARK  15 active torsions:
REMARK  status: ('A' for Active; 'I' for Inactive)
REMARK    1  A    between atoms: C_1  and  N_2
REMARK    2  A    between atoms: N_2  and  C_3
REMARK    3  A    between atoms: N_2  and  C_4
REMARK    4  A    between atoms: C_7  and  C_8
REMARK    5  A    between atoms: C_8  and  O_9
REMARK    6  A    between atoms: O_9  and  C_10
REMARK    7  A    between atoms: C_13  and  O_14
REMARK    8  A    between atoms: O_14  and  C_15
REMARK    9  A    between atoms: C_15  and  C_16
REMARK   10  A    between atoms: C_16  and  O_17
REMARK   11  A    between atoms: O_17  and  C_18
REMARK   12  A    between atoms: C_18  and  C_19
REMARK   13  A    between atoms: C_19  and  O_20
REMARK   14  A    between atoms: O_20  and  C_21
REMARK   15  A    between atoms: C_21  and  C_22
REMARK                            x       y       z     vdW  Elec       q    Type
REMARK                         _______ _______ _______ _____ _____    ______ ____
ROOT
ATOM      1  C   UNL     1       7.671   7.673  17.816  0.00  0.00    +0.000 A 
ATOM      2  C   UNL     1       6.544   7.366  17.065  0.00  0.00    +0.000 A 
ATOM      3  C   UNL     1       5.877   6.205  17.229  0.00  0.00    +0.000 A 
ATOM      4  C   UNL     1       6.308   5.230  18.126  0.00  0.00    +0.000 A 
ATOM      5  C   UNL     1       7.440   5.500  18.919  0.00  0.00    +0.000 A 
ATOM      6  C   UNL     1       8.124   6.732  18.760  0.00  0.00    +0.000 A 
ENDROOT
BRANCH   1   7
ATOM      7  O   UNL     1       8.325   8.863  17.636  0.00  0.00    +0.000 OA
BRANCH   7   8
ATOM      8  C   UNL     1       8.910   9.376  18.864  0.00  0.00    +0.000 C 
BRANCH   8  12
ATOM      9  C   UNL     1      10.438  13.349  18.019  0.00  0.00    +0.000 A 
ATOM     10  C   UNL     1       9.166  12.938  17.595  0.00  0.00    +0.000 A 
ATOM     11  C   UNL     1       8.658  11.677  17.902  0.00  0.00    +0.000 A 
ATOM     12  C   UNL     1       9.420  10.768  18.628  0.00  0.00    +0.000 A 
ATOM     13  C   UNL     1      10.667  11.168  19.114  0.00  0.00    +0.000 A 
ATOM     14  C   UNL     1      11.159  12.441  18.810  0.00  0.00    +0.000 A 
BRANCH   9  16
ATOM     15  C   UNL     1      12.329  14.694  17.193  0.00  0.00    +0.000 C 
ATOM     16  N   UNL     1      10.954  14.592  17.664  0.00  0.00    +0.000 N 
ATOM     17  C   UNL     1      10.308  15.788  18.188  0.00  0.00    +0.000 C 
ENDBRANCH   9  16
ENDBRANCH   8  12
ENDBRANCH   7   8
ENDBRANCH   1   7
BRANCH   4  18
ATOM     18  O   UNL     1       5.638   4.029  18.227  0.00  0.00    +0.000 OA
BRANCH  18  19
ATOM     19  C   UNL     1       4.373   4.028  17.511  0.00  0.00    +0.000 C 
BRANCH  19  20
ATOM     20  C   UNL     1       3.605   2.765  17.806  0.00  0.00    +0.000 C 
BRANCH  20  21
ATOM     21  O   UNL     1       2.260   2.914  17.362  0.00  0.00    +0.000 OA
BRANCH  21  22
ATOM     22  C   UNL     1       1.338   2.660  18.421  0.00  0.00    +0.000 C 
BRANCH  22  23
ATOM     23  C   UNL     1       2.087   2.172  19.656  0.00  0.00    +0.000 C 
BRANCH  23  24
ATOM     24  O   UNL     1       2.101   3.211  20.636  0.00  0.00    +0.000 OA
BRANCH  24  25
ATOM     25  C   UNL     1       1.127   4.213  20.346  0.00  0.00    +0.000 C 
BRANCH  25  26
ATOM     26  C   UNL     1       1.774   5.585  20.399  0.00  0.00    +0.000 C 
ATOM     27  F   UNL     1       2.244   5.907  19.165  0.00  0.00    +0.000 F 
ENDBRANCH  25  26
ENDBRANCH  24  25
ENDBRANCH  23  24
ENDBRANCH  22  23
ENDBRANCH  21  22
ENDBRANCH  20  21
ENDBRANCH  19  20
ENDBRANCH  18  19
ENDBRANCH   4  18
TORSDOF 13
ENDMDL
MODEL 3
REMARK VINA RESULT:      -6.3      1.310      1.893
REMARK  Name = 
REMARK  15 active torsions:
REMARK  status: ('A' for Active; 'I' for Inactive)
REMARK    1  A    between atoms: C_1  and  N_2
REMARK    2  A    between atoms: N_2  and  C_3
REMARK    3  A    between atoms: N_2  and  C_4
REMARK    4  A    between atoms: C_7  and  C_8
REMARK    5  A    between atoms: C_8  and  O_9
REMARK    6  A    between atoms: O_9  and  C_10
REMARK    7  A    between atoms: C_13  and  O_14
REMARK    8  A    between atoms: O_14  and  C_15
REMARK    9  A    between atoms: C_15  and  C_16
REMARK   10  A    between atoms: C_16  and  O_17
REMARK   11  A    between atoms: O_17  and  C_18
REMARK   12  A    between atoms: C_18  and  C_19
REMARK   13  A    between atoms: C_19  and  O_20
REMARK   14  A    between atoms: O_20  and  C_21
REMARK   15  A    between atoms: C_21  and  C_22
REMARK                            x       y       z     vdW  Elec       q    Type
REMARK                         _______ _______ _______ _____ _____    ______ ____
ROOT
ATOM      1  C   UNL     1       7.718   7.960  17.879  0.00  0.00    +0.000 A 
ATOM      2  C   UNL     1       6.647   7.640  17.055  0.00  0.00    +0.000 A 
ATOM      3  C   UNL     1       6.108   6.404  17.041  0.00  0.00    +0.000 A 
ATOM      4  C   UNL     1       6.623   5.367  17.816  0.00  0.00    +0.000 A 
ATOM      5  C   UNL     1       7.701   5.646  18.679  0.00  0.00    +0.000 A 
ATOM      6  C   UNL     1       8.251   6.953  18.707  0.00  0.00    +0.000 A 
ENDROOT
BRANCH   1   7
ATOM      7  O   UNL     1       8.242   9.226  17.881  0.00  0.00    +0.000 OA
BRANCH   7   8
ATOM      8  C   UNL     1       9.068   9.492  19.046  0.00  0.00    +0.000 C 
BRANCH   8  12
ATOM      9  C   UNL     1      10.117  13.701  19.184  0.00  0.00    +0.000 A 
ATOM     10  C   UNL     1       9.702  13.078  17.998  0.00  0.00    +0.000 A 
ATOM     11  C   UNL     1       9.325  11.737  17.962  0.00  0.00    +0.000 A 
ATOM     12  C   UNL     1       9.374  10.960  19.114  0.00  0.00    +0.000 A 
ATOM     13  C   UNL     1       9.727  11.565  20.323  0.00  0.00    +0.000 A 
ATOM     14  C   UNL     1      10.090  12.915  20.348  0.00  0.00    +0.000 A 
BRANCH   9  16
ATOM     15  C   UNL     1      11.332  15.520  20.317  0.00  0.00    +0.000 C 
ATOM     16  N   UNL     1      10.538  15.027  19.199  0.00  0.00    +0.000 N 
ATOM     17  C   UNL     1       9.821  15.993  18.376  0.00  0.00    +0.000 C 
ENDBRANCH   9  16
ENDBRANCH   8  12
ENDBRANCH   7   8
ENDBRANCH   1   7
BRANCH   4  18
ATOM     18  O   UNL     1       6.086   4.100  17.735  0.00  0.00    +0.000 OA
BRANCH  18  19
ATOM     19  C   UNL     1       5.146   3.957  16.637  0.00  0.00    +0.000 C 
BRANCH  19  20
ATOM     20  C   UNL     1       3.785   3.572  17.160  0.00  0.00    +0.000 C 
BRANCH  20  21
ATOM     21  O   UNL     1       3.927   2.926  18.421  0.00  0.00    +0.000 OA
BRANCH  21  22
ATOM     22  C   UNL     1       2.951   1.897  18.584  0.00  0.00    +0.000 C 
BRANCH  22  23
ATOM     23  C   UNL     1       1.942   2.302  19.652  0.00  0.00    +0.000 C 
BRANCH  23  24
ATOM     24  O   UNL     1       2.615   2.436  20.904  0.00  0.00    +0.000 OA
BRANCH  24  25
ATOM     25  C   UNL     1       2.085   3.520  21.666  0.00  0.00    +0.000 C 
BRANCH  25  26
ATOM     26  C   UNL     1       2.143   4.797  20.848  0.00  0.00    +0.000 C 
ATOM     27  F   UNL     1       0.890   5.305  20.719  0.00  0.00    +0.000 F 
ENDBRANCH  25  26
ENDBRANCH  24  25
ENDBRANCH  23  24
ENDBRANCH  22  23
ENDBRANCH  21  22
ENDBRANCH  20  21
ENDBRANCH  19  20
ENDBRANCH  18  19
ENDBRANCH   4  18
TORSDOF 13
ENDMDL
MODEL 4
REMARK VINA RESULT:      -6.2      1.675      2.256
REMARK  Name = 
REMARK  15 active torsions:
REMARK  status: ('A' for Active; 'I' for Inactive)
REMARK    1  A    between atoms: C_1  and  N_2
REMARK    2  A    between atoms: N_2  and  C_3
REMARK    3  A    between atoms: N_2  and  C_4
REMARK    4  A    between atoms: C_7  and  C_8
REMARK    5  A    between atoms: C_8  and  O_9
REMARK    6  A    between atoms: O_9  and  C_10
REMARK    7  A    between atoms: C_13  and  O_14
REMARK    8  A    between atoms: O_14  and  C_15
REMARK    9  A    between atoms: C_15  and  C_16
REMARK   10  A    between atoms: C_16  and  O_17
REMARK   11  A    between atoms: O_17  and  C_18
REMARK   12  A    between atoms: C_18  and  C_19
REMARK   13  A    between atoms: C_19  and  O_20
REMARK   14  A    between atoms: O_20  and  C_21
REMARK   15  A    between atoms: C_21  and  C_22
REMARK                            x       y       z     vdW  Elec       q    Type
REMARK                         _______ _______ _______ _____ _____    ______ ____
ROOT
ATOM      1  C   UNL     1       7.617   7.942  17.930  0.00  0.00    +0.000 A 
ATOM      2  C   UNL     1       8.163   6.981  18.772  0.00  0.00    +0.000 A 
ATOM      3  C   UNL     1       7.698   5.715  18.798  0.00  0.00    +0.000 A 
ATOM      4  C   UNL     1       6.617   5.312  18.017  0.00  0.00    +0.000 A 
ATOM      5  C   UNL     1       6.039   6.248  17.137  0.00  0.00    +0.000 A 
ATOM      6  C   UNL     1       6.545   7.571  17.096  0.00  0.00    +0.000 A 
ENDROOT
BRANCH   1   7
ATOM      7  O   UNL     1       8.114   9.219  17.917  0.00  0.00    +0.000 OA
BRANCH   7   8
ATOM      8  C   UNL     1       9.040   9.474  19.007  0.00  0.00    +0.000 C 
BRANCH   8  12
ATOM      9  C   UNL     1      10.717  13.467  18.714  0.00  0.00    +0.000 A 
ATOM     10  C   UNL     1      10.706  12.585  17.623  0.00  0.00    +0.000 A 
ATOM     11  C   UNL     1      10.130  11.318  17.705  0.00  0.00    +0.000 A 
ATOM     12  C   UNL     1       9.563  10.877  18.895  0.00  0.00    +0.000 A 
ATOM     13  C   UNL     1       9.507  11.753  19.982  0.00  0.00    +0.000 A 
ATOM     14  C   UNL     1      10.076  13.026  19.883  0.00  0.00    +0.000 A 
BRANCH   9  16
ATOM     15  C   UNL     1      10.717  15.867  19.264  0.00  0.00    +0.000 C 
ATOM     16  N   UNL     1      11.339  14.709  18.636  0.00  0.00    +0.000 N 
ATOM     17  C   UNL     1      12.315  14.933  17.578  0.00  0.00    +0.000 C 
ENDBRANCH   9  16
ENDBRANCH   8  12
ENDBRANCH   7   8
ENDBRANCH   1   7
BRANCH   4  18
ATOM     18  O   UNL     1       6.129   4.026  18.110  0.00  0.00    +0.000 OA
BRANCH  18  19
ATOM     19  C   UNL     1       4.733   3.982  18.511  0.00  0.00    +0.000 C 
BRANCH  19  20
ATOM     20  C   UNL     1       4.424   2.670  19.188  0.00  0.00    +0.000 C 
BRANCH  20  21
ATOM     21  O   UNL     1       3.713   1.827  18.286  0.00  0.00    +0.000 OA
BRANCH  21  22
ATOM     22  C   UNL     1       2.565   2.492  17.759  0.00  0.00    +0.000 C 
BRANCH  22  23
ATOM     23  C   UNL     1       1.462   2.536  18.810  0.00  0.00    +0.000 C 
BRANCH  23  24
ATOM     24  O   UNL     1       1.119   3.898  19.072  0.00  0.00    +0.000 OA
BRANCH  24  25
ATOM     25  C   UNL     1       0.878   4.116  20.462  0.00  0.00    +0.000 C 
BRANCH  25  26
ATOM     26  C   UNL     1       2.188   4.419  21.166  0.00  0.00    +0.000 C 
ATOM     27  F   UNL     1       2.246   3.715  22.327  0.00  0.00    +0.000 F 
ENDBRANCH  25  26
ENDBRANCH  24  25
ENDBRANCH  23  24
ENDBRANCH  22  23
ENDBRANCH  21  22
ENDBRANCH  20  21
ENDBRANCH  19  20
ENDBRANCH  18  19
ENDBRANCH   4  18
TORSDOF 13
ENDMDL
MODEL 5
REMARK VINA RESULT:      -6.2      5.831      8.908
REMARK  Name = 
REMARK  15 active torsions:
REMARK  status: ('A' for Active; 'I' for Inactive)
REMARK    1  A    between atoms: C_1  and  N_2
REMARK    2  A    between atoms: N_2  and  C_3
REMARK    3  A    between atoms: N_2  and  C_4
REMARK    4  A    between atoms: C_7  and  C_8
REMARK    5  A    between atoms: C_8  and  O_9
REMARK    6  A    between atoms: O_9  and  C_10
REMARK    7  A    between atoms: C_13  and  O_14
REMARK    8  A    between atoms: O_14  and  C_15
REMARK    9  A    between atoms: C_15  and  C_16
REMARK   10  A    between atoms: C_16  and  O_17
REMARK   11  A    between atoms: O_17  and  C_18
REMARK   12  A    between atoms: C_18  and  C_19
REMARK   13  A    between atoms: C_19  and  O_20
REMARK   14  A    between atoms: O_20  and  C_21
REMARK   15  A    between atoms: C_21  and  C_22
REMARK                            x       y       z     vdW  Elec       q    Type
REMARK                         _______ _______ _______ _____ _____    ______ ____
ROOT
ATOM      1  C   UNL     1       1.746   8.945  18.572  0.00  0.00    +0.000 A 
ATOM      2  C   UNL     1       2.576   8.196  17.747  0.00  0.00    +0.000 A 
ATOM      3  C   UNL     1       3.067   7.000  18.133  0.00  0.00    +0.000 A 
ATOM      4  C   UNL     1       2.807   6.470  19.395  0.00  0.00    +0.000 A 
ATOM      5  C   UNL     1       1.959   7.187  20.262  0.00  0.00    +0.000 A 
ATOM      6  C   UNL     1       1.428   8.433  19.844  0.00  0.00    +0.000 A 
ENDROOT
BRANCH   1   7
ATOM      7  O   UNL     1       1.254  10.153  18.153  0.00  0.00    +0.000 OA
BRANCH   7   8
ATOM      8  C   UNL     1       0.655  10.921  19.231  0.00  0.00    +0.000 C 
BRANCH   8  12
ATOM      9  C   UNL     1      -3.582  11.498  18.490  0.00  0.00    +0.000 A 
ATOM     10  C   UNL     1      -2.878  12.280  19.417  0.00  0.00    +0.000 A 
ATOM     11  C   UNL     1      -1.509  12.123  19.625  0.00  0.00    +0.000 A 
ATOM     12  C   UNL     1      -0.796  11.156  18.926  0.00  0.00    +0.000 A 
ATOM     13  C   UNL     1      -1.457  10.401  17.953  0.00  0.00    +0.000 A 
ATOM     14  C   UNL     1      -2.828  10.577  17.745  0.00  0.00    +0.000 A 
BRANCH   9  16
ATOM     15  C   UNL     1      -5.488  12.180  17.086  0.00  0.00    +0.000 C 
ATOM     16  N   UNL     1      -4.958  11.630  18.326  0.00  0.00    +0.000 N 
ATOM     17  C   UNL     1      -5.799  11.660  19.516  0.00  0.00    +0.000 C 
ENDBRANCH   9  16
ENDBRANCH   8  12
ENDBRANCH   7   8
ENDBRANCH   1   7
BRANCH   4  18
ATOM     18  O   UNL     1       3.371   5.273  19.780  0.00  0.00    +0.000 OA
BRANCH  18  19
ATOM     19  C   UNL     1       3.918   4.524  18.662  0.00  0.00    +0.000 C 
BRANCH  19  20
ATOM     20  C   UNL     1       5.029   3.618  19.131  0.00  0.00    +0.000 C 
BRANCH  20  21
ATOM     21  O   UNL     1       6.269   4.317  19.066  0.00  0.00    +0.000 OA
BRANCH  21  22
ATOM     22  C   UNL     1       6.335   5.138  17.901  0.00  0.00    +0.000 C 
BRANCH  22  23
ATOM     23  C   UNL     1       7.334   4.554  16.910  0.00  0.00    +0.000 C 
BRANCH  23  24
ATOM     24  O   UNL     1       7.424   5.416  15.774  0.00  0.00    +0.000 OA
BRANCH  24  25
ATOM     25  C   UNL     1       6.275   5.295  14.937  0.00  0.00    +0.000 C 
BRANCH  25  26
ATOM     26  C   UNL     1       6.100   3.848  14.515  0.00  0.00    +0.000 C 
ATOM     27  F   UNL     1       6.623   3.677  13.272  0.00  0.00    +0.000 F 
ENDBRANCH  25  26
ENDBRANCH  24  25
ENDBRANCH  23  24
ENDBRANCH  22  23
ENDBRANCH  21  22
ENDBRANCH  20  21
ENDBRANCH  19  20
ENDBRANCH  18  19
ENDBRANCH   4  18
TORSDOF 13
ENDMDL
MODEL 6
REMARK VINA RESULT:      -6.2      0.849      1.644
REMARK  Name = 
REMARK  15 active torsions:
REMARK  status: ('A' for Active; 'I' for Inactive)
REMARK    1  A    between atoms: C_1  and  N_2
REMARK    2  A    between atoms: N_2  and  C_3
REMARK    3  A    between atoms: N_2  and  C_4
REMARK    4  A    between atoms: C_7  and  C_8
REMARK    5  A    between atoms: C_8  and  O_9
REMARK    6  A    between atoms: O_9  and  C_10
REMARK    7  A    between atoms: C_13  and  O_14
REMARK    8  A    between atoms: O_14  and  C_15
REMARK    9  A    between atoms: C_15  and  C_16
REMARK   10  A    between atoms: C_16  and  O_17
REMARK   11  A    between atoms: O_17  and  C_18
REMARK   12  A    between atoms: C_18  and  C_19
REMARK   13  A    between atoms: C_19  and  O_20
REMARK   14  A    between atoms: O_20  and  C_21
REMARK   15  A    between atoms: C_21  and  C_22
REMARK                            x       y       z     vdW  Elec       q    Type
REMARK                         _______ _______ _______ _____ _____    ______ ____
ROOT
ATOM      1  C   UNL     1       6.444   6.760  17.359  0.00  0.00    +0.000 A 
ATOM      2  C   UNL     1       6.546   5.983  18.505  0.00  0.00    +0.000 A 
ATOM      3  C   UNL     1       5.864   4.828  18.642  0.00  0.00    +0.000 A 
ATOM      4  C   UNL     1       4.984   4.373  17.662  0.00  0.00    +0.000 A 
ATOM      5  C   UNL     1       4.857   5.120  16.475  0.00  0.00    +0.000 A 
ATOM      6  C   UNL     1       5.593   6.322  16.326  0.00  0.00    +0.000 A 
ENDROOT
BRANCH   1   7
ATOM      7  O   UNL     1       7.155   7.926  17.241  0.00  0.00    +0.000 OA
BRANCH   7   8
ATOM      8  C   UNL     1       8.209   8.045  18.234  0.00  0.00    +0.000 C 
BRANCH   8  12
ATOM      9  C   UNL     1       9.201  12.236  18.772  0.00  0.00    +0.000 A 
ATOM     10  C   UNL     1       9.711  11.238  19.615  0.00  0.00    +0.000 A 
ATOM     11  C   UNL     1       9.427   9.888  19.417  0.00  0.00    +0.000 A 
ATOM     12  C   UNL     1       8.596   9.488  18.377  0.00  0.00    +0.000 A 
ATOM     13  C   UNL     1       8.118  10.452  17.485  0.00  0.00    +0.000 A 
ATOM     14  C   UNL     1       8.422  11.801  17.687  0.00  0.00    +0.000 A 
BRANCH   9  16
ATOM     15  C   UNL     1       8.573  14.336  19.896  0.00  0.00    +0.000 C 
ATOM     16  N   UNL     1       9.451  13.584  19.008  0.00  0.00    +0.000 N 
ATOM     17  C   UNL     1      10.263  14.319  18.047  0.00  0.00    +0.000 C 
ENDBRANCH   9  16
ENDBRANCH   8  12
ENDBRANCH   7   8
ENDBRANCH   1   7
BRANCH   4  18
ATOM     18  O   UNL     1       4.257   3.218  17.858  0.00  0.00    +0.000 OA
BRANCH  18  19
ATOM     19  C   UNL     1       2.976   3.236  17.172  0.00  0.00    +0.000 C 
BRANCH  19  20
ATOM     20  C   UNL     1       1.851   3.046  18.158  0.00  0.00    +0.000 C 
BRANCH  20  21
ATOM     21  O   UNL     1       2.353   2.418  19.334  0.00  0.00    +0.000 OA
BRANCH  21  22
ATOM     22  C   UNL     1       1.513   2.685  20.456  0.00  0.00    +0.000 C 
BRANCH  22  23
ATOM     23  C   UNL     1       1.026   4.129  20.410  0.00  0.00    +0.000 C 
BRANCH  23  24
ATOM     24  O   UNL     1       1.978   4.964  21.071  0.00  0.00    +0.000 OA
BRANCH  24  25
ATOM     25  C   UNL     1       1.858   6.323  20.652  0.00  0.00    +0.000 C 
BRANCH  25  26
ATOM     26  C   UNL     1       2.644   6.533  19.371  0.00  0.00    +0.000 C 
ATOM     27  F   UNL     1       2.544   7.835  18.992  0.00  0.00    +0.000 F 
ENDBRANCH  25  26
ENDBRANCH  24  25
ENDBRANCH  23  24
ENDBRANCH  22  23
ENDBRANCH  21  22
ENDBRANCH  20  21
ENDBRANCH  19  20
ENDBRANCH  18  19
ENDBRANCH   4  18
TORSDOF 13
ENDMDL
MODEL 7
REMARK VINA RESULT:      -6.2      1.841      2.609
REMARK  Name = 
REMARK  15 active torsions:
REMARK  status: ('A' for Active; 'I' for Inactive)
REMARK    1  A    between atoms: C_1  and  N_2
REMARK    2  A    between atoms: N_2  and  C_3
REMARK    3  A    between atoms: N_2  and  C_4
REMARK    4  A    between atoms: C_7  and  C_8
REMARK    5  A    between atoms: C_8  and  O_9
REMARK    6  A    between atoms: O_9  and  C_10
REMARK    7  A    between atoms: C_13  and  O_14
REMARK    8  A    between atoms: O_14  and  C_15
REMARK    9  A    between atoms: C_15  and  C_16
REMARK   10  A    between atoms: C_16  and  O_17
REMARK   11  A    between atoms: O_17  and  C_18
REMARK   12  A    between atoms: C_18  and  C_19
REMARK   13  A    between atoms: C_19  and  O_20
REMARK   14  A    between atoms: O_20  and  C_21
REMARK   15  A    between atoms: C_21  and  C_22
REMARK                            x       y       z     vdW  Elec       q    Type
REMARK                         _______ _______ _______ _____ _____    ______ ____
ROOT
ATOM      1  C   UNL     1       7.954   8.059  17.958  0.00  0.00    +0.000 A 
ATOM      2  C   UNL     1       8.302   7.163  18.961  0.00  0.00    +0.000 A 
ATOM      3  C   UNL     1       7.766   5.927  19.025  0.00  0.00    +0.000 A 
ATOM      4  C   UNL     1       6.800   5.496  18.118  0.00  0.00    +0.000 A 
ATOM      5  C   UNL     1       6.424   6.365  17.074  0.00  0.00    +0.000 A 
ATOM      6  C   UNL     1       7.008   7.655  16.997  0.00  0.00    +0.000 A 
ENDROOT
BRANCH   1   7
ATOM      7  O   UNL     1       8.521   9.306  17.910  0.00  0.00    +0.000 OA
BRANCH   7   8
ATOM      8  C   UNL     1       9.070   9.723  19.189  0.00  0.00    +0.000 C 
BRANCH   8  12
ATOM      9  C   UNL     1      10.813  13.668  18.697  0.00  0.00    +0.000 A 
ATOM     10  C   UNL     1       9.860  13.160  17.802  0.00  0.00    +0.000 A 
ATOM     11  C   UNL     1       9.269  11.911  17.983  0.00  0.00    +0.000 A 
ATOM     12  C   UNL     1       9.631  11.109  19.059  0.00  0.00    +0.000 A 
ATOM     13  C   UNL     1      10.535  11.610  20.001  0.00  0.00    +0.000 A 
ATOM     14  C   UNL     1      11.110  12.871  19.815  0.00  0.00    +0.000 A 
BRANCH   9  16
ATOM     15  C   UNL     1      12.329  15.058  17.343  0.00  0.00    +0.000 C 
ATOM     16  N   UNL     1      11.433  14.895  18.480  0.00  0.00    +0.000 N 
ATOM     17  C   UNL     1      11.551  15.821  19.598  0.00  0.00    +0.000 C 
ENDBRANCH   9  16
ENDBRANCH   8  12
ENDBRANCH   7   8
ENDBRANCH   1   7
BRANCH   4  18
ATOM     18  O   UNL     1       6.229   4.248  18.246  0.00  0.00    +0.000 OA
BRANCH  18  19
ATOM     19  C   UNL     1       5.297   4.168  19.358  0.00  0.00    +0.000 C 
BRANCH  19  20
ATOM     20  C   UNL     1       4.175   5.159  19.174  0.00  0.00    +0.000 C 
BRANCH  20  21
ATOM     21  O   UNL     1       3.402   4.794  18.034  0.00  0.00    +0.000 OA
BRANCH  21  22
ATOM     22  C   UNL     1       2.008   4.969  18.283  0.00  0.00    +0.000 C 
BRANCH  22  23
ATOM     23  C   UNL     1       1.305   3.616  18.277  0.00  0.00    +0.000 C 
BRANCH  23  24
ATOM     24  O   UNL     1       1.940   2.755  19.225  0.00  0.00    +0.000 OA
BRANCH  24  25
ATOM     25  C   UNL     1       1.231   2.731  20.463  0.00  0.00    +0.000 C 
BRANCH  25  26
ATOM     26  C   UNL     1       2.114   3.278  21.568  0.00  0.00    +0.000 C 
ATOM     27  F   UNL     1       3.096   2.380  21.844  0.00  0.00    +0.000 F 
ENDBRANCH  25  26
ENDBRANCH  24  25
ENDBRANCH  23  24
ENDBRANCH  22  23
ENDBRANCH  21  22
ENDBRANCH  20  21
ENDBRANCH  19  20
ENDBRANCH  18  19
ENDBRANCH   4  18
TORSDOF 13
ENDMDL
MODEL 8
REMARK VINA RESULT:      -6.1      1.444      1.965
REMARK  Name = 
REMARK  15 active torsions:
REMARK  status: ('A' for Active; 'I' for Inactive)
REMARK    1  A    between atoms: C_1  and  N_2
REMARK    2  A    between atoms: N_2  and  C_3
REMARK    3  A    between atoms: N_2  and  C_4
REMARK    4  A    between atoms: C_7  and  C_8
REMARK    5  A    between atoms: C_8  and  O_9
REMARK    6  A    between atoms: O_9  and  C_10
REMARK    7  A    between atoms: C_13  and  O_14
REMARK    8  A    between atoms: O_14  and  C_15
REMARK    9  A    between atoms: C_15  and  C_16
REMARK   10  A    between atoms: C_16  and  O_17
REMARK   11  A    between atoms: O_17  and  C_18
REMARK   12  A    between atoms: C_18  and  C_19
REMARK   13  A    between atoms: C_19  and  O_20
REMARK   14  A    between atoms: O_20  and  C_21
REMARK   15  A    between atoms: C_21  and  C_22
REMARK                            x       y       z     vdW  Elec       q    Type
REMARK                         _______ _______ _______ _____ _____    ______ ____
ROOT
ATOM      1  C   UNL     1       6.974   7.346  17.504  0.00  0.00    +0.000 A 
ATOM      2  C   UNL     1       5.757   7.155  16.862  0.00  0.00    +0.000 A 
ATOM      3  C   UNL     1       5.207   5.931  16.734  0.00  0.00    +0.000 A 
ATOM      4  C   UNL     1       5.849   4.784  17.198  0.00  0.00    +0.000 A 
ATOM      5  C   UNL     1       7.079   4.928  17.869  0.00  0.00    +0.000 A 
ATOM      6  C   UNL     1       7.643   6.220  18.021  0.00  0.00    +0.000 A 
ENDROOT
BRANCH   1   7
ATOM      7  O   UNL     1       7.507   8.602  17.629  0.00  0.00    +0.000 OA
BRANCH   7   8
ATOM      8  C   UNL     1       8.629   8.649  18.551  0.00  0.00    +0.000 C 
BRANCH   8  12
ATOM      9  C   UNL     1       9.491  12.814  19.412  0.00  0.00    +0.000 A 
ATOM     10  C   UNL     1       9.566  11.821  20.400  0.00  0.00    +0.000 A 
ATOM     11  C   UNL     1       9.330  10.478  20.114  0.00  0.00    +0.000 A 
ATOM     12  C   UNL     1       8.985  10.080  18.828  0.00  0.00    +0.000 A 
ATOM     13  C   UNL     1       8.959  11.037  17.809  0.00  0.00    +0.000 A 
ATOM     14  C   UNL     1       9.211  12.380  18.106  0.00  0.00    +0.000 A 
BRANCH   9  16
ATOM     15  C   UNL     1       9.083  15.182  18.870  0.00  0.00    +0.000 C 
ATOM     16  N   UNL     1       9.680  14.158  19.718  0.00  0.00    +0.000 N 
ATOM     17  C   UNL     1      10.808  14.526  20.564  0.00  0.00    +0.000 C 
ENDBRANCH   9  16
ENDBRANCH   8  12
ENDBRANCH   7   8
ENDBRANCH   1   7
BRANCH   4  18
ATOM     18  O   UNL     1       5.287   3.540  16.999  0.00  0.00    +0.000 OA
BRANCH  18  19
ATOM     19  C   UNL     1       4.243   3.234  17.962  0.00  0.00    +0.000 C 
BRANCH  19  20
ATOM     20  C   UNL     1       2.912   3.103  17.267  0.00  0.00    +0.000 C 
BRANCH  20  21
ATOM     21  O   UNL     1       1.893   3.676  18.081  0.00  0.00    +0.000 OA
BRANCH  21  22
ATOM     22  C   UNL     1       1.929   5.101  18.021  0.00  0.00    +0.000 C 
BRANCH  22  23
ATOM     23  C   UNL     1       2.133   5.676  19.418  0.00  0.00    +0.000 C 
BRANCH  23  24
ATOM     24  O   UNL     1       1.416   4.877  20.361  0.00  0.00    +0.000 OA
BRANCH  24  25
ATOM     25  C   UNL     1       2.263   4.440  21.423  0.00  0.00    +0.000 C 
BRANCH  25  26
ATOM     26  C   UNL     1       2.192   2.929  21.543  0.00  0.00    +0.000 C 
ATOM     27  F   UNL     1       0.892   2.549  21.658  0.00  0.00    +0.000 F 
ENDBRANCH  25  26
ENDBRANCH  24  25
ENDBRANCH  23  24
ENDBRANCH  22  23
ENDBRANCH  21  22
ENDBRANCH  20  21
ENDBRANCH  19  20
ENDBRANCH  18  19
ENDBRANCH   4  18
TORSDOF 13
ENDMDL
MODEL 9
REMARK VINA RESULT:      -6.1      1.753      2.469
REMARK  Name = 
REMARK  15 active torsions:
REMARK  status: ('A' for Active; 'I' for Inactive)
REMARK    1  A    between atoms: C_1  and  N_2
REMARK    2  A    between atoms: N_2  and  C_3
REMARK    3  A    between atoms: N_2  and  C_4
REMARK    4  A    between atoms: C_7  and  C_8
REMARK    5  A    between atoms: C_8  and  O_9
REMARK    6  A    between atoms: O_9  and  C_10
REMARK    7  A    between atoms: C_13  and  O_14
REMARK    8  A    between atoms: O_14  and  C_15
REMARK    9  A    between atoms: C_15  and  C_16
REMARK   10  A    between atoms: C_16  and  O_17
REMARK   11  A    between atoms: O_17  and  C_18
REMARK   12  A    between atoms: C_18  and  C_19
REMARK   13  A    between atoms: C_19  and  O_20
REMARK   14  A    between atoms: O_20  and  C_21
REMARK   15  A    between atoms: C_21  and  C_22
REMARK                            x       y       z     vdW  Elec       q    Type
REMARK                         _______ _______ _______ _____ _____    ______ ____
ROOT
ATOM      1  C   UNL     1       7.777   8.117  17.888  0.00  0.00    +0.000 A 
ATOM      2  C   UNL     1       6.896   7.740  16.882  0.00  0.00    +0.000 A 
ATOM      3  C   UNL     1       6.462   6.469  16.759  0.00  0.00    +0.000 A 
ATOM      4  C   UNL     1       6.906   5.454  17.605  0.00  0.00    +0.000 A 
ATOM      5  C   UNL     1       7.789   5.790  18.650  0.00  0.00    +0.000 A 
ATOM      6  C   UNL     1       8.226   7.132  18.789  0.00  0.00    +0.000 A 
ENDROOT
BRANCH   1   7
ATOM      7  O   UNL     1       8.196   9.416  17.996  0.00  0.00    +0.000 OA
BRANCH   7   8
ATOM      8  C   UNL     1       9.146   9.613  19.079  0.00  0.00    +0.000 C 
BRANCH   8  12
ATOM      9  C   UNL     1      10.688  13.657  18.754  0.00  0.00    +0.000 A 
ATOM     10  C   UNL     1      10.137  13.166  19.947  0.00  0.00    +0.000 A 
ATOM     11  C   UNL     1       9.680  11.855  20.064  0.00  0.00    +0.000 A 
ATOM     12  C   UNL     1       9.736  10.990  18.977  0.00  0.00    +0.000 A 
ATOM     13  C   UNL     1      10.332  11.430  17.792  0.00  0.00    +0.000 A 
ATOM     14  C   UNL     1      10.799  12.744  17.693  0.00  0.00    +0.000 A 
BRANCH   9  16
ATOM     15  C   UNL     1      11.091  15.847  19.806  0.00  0.00    +0.000 C 
ATOM     16  N   UNL     1      11.096  14.982  18.634  0.00  0.00    +0.000 N 
ATOM     17  C   UNL     1      11.072  15.599  17.314  0.00  0.00    +0.000 C 
ENDBRANCH   9  16
ENDBRANCH   8  12
ENDBRANCH   7   8
ENDBRANCH   1   7
BRANCH   4  18
ATOM     18  O   UNL     1       6.487   4.155  17.417  0.00  0.00    +0.000 OA
BRANCH  18  19
ATOM     19  C   UNL     1       5.169   4.070  16.811  0.00  0.00    +0.000 C 
BRANCH  19  20
ATOM     20  C   UNL     1       4.107   4.451  17.811  0.00  0.00    +0.000 C 
BRANCH  20  21
ATOM     21  O   UNL     1       3.729   3.301  18.561  0.00  0.00    +0.000 OA
BRANCH  21  22
ATOM     22  C   UNL     1       2.686   2.580  17.904  0.00  0.00    +0.000 C 
BRANCH  22  23
ATOM     23  C   UNL     1       1.690   2.056  18.931  0.00  0.00    +0.000 C 
BRANCH  23  24
ATOM     24  O   UNL     1       0.700   3.057  19.176  0.00  0.00    +0.000 OA
BRANCH  24  25
ATOM     25  C   UNL     1       0.950   3.749  20.398  0.00  0.00    +0.000 C 
BRANCH  25  26
ATOM     26  C   UNL     1       1.482   2.777  21.435  0.00  0.00    +0.000 C 
ATOM     27  F   UNL     1       2.509   3.358  22.110  0.00  0.00    +0.000 F 
ENDBRANCH  25  26
ENDBRANCH  24  25
ENDBRANCH  23  24
ENDBRANCH  22  23
ENDBRANCH  21  22
ENDBRANCH  20  21
ENDBRANCH  19  20
ENDBRANCH  18  19
ENDBRANCH   4  18
TORSDOF 13
ENDMDL
