MODEL 1
REMARK VINA RESULT:      -7.6      0.000      0.000
REMARK  Name = 
REMARK  2 active torsions:
REMARK  status: ('A' for Active; 'I' for Inactive)
REMARK    1  A    between atoms: C_1  and  N_2
REMARK    2  A    between atoms: C_12  and  C_13
REMARK                            x       y       z     vdW  Elec       q    Type
REMARK                         _______ _______ _______ _____ _____    ______ ____
ROOT
ATOM      1  C   UNL     1       7.786   5.190  13.488  0.00  0.00    +0.000 C 
ATOM      2  N   UNL     1       6.757   4.872  14.450  0.00  0.00    +0.000 N 
ATOM      3  N   UNL     1       5.681   4.189  14.046  0.00  0.00    +0.000 NA
ATOM      4  C   UNL     1       4.943   4.107  15.149  0.00  0.00    +0.000 A 
ATOM      5  C   UNL     1       5.566   4.665  16.309  0.00  0.00    +0.000 A 
ATOM      6  C   UNL     1       6.686   5.274  15.763  0.00  0.00    +0.000 A 
ATOM      7  N   UNL     1       7.539   6.199  16.322  0.00  0.00    +0.000 N 
ATOM      8  C   UNL     1       7.436   6.732  17.631  0.00  0.00    +0.000 C 
ATOM      9  O   UNL     1       7.988   7.815  17.771  0.00  0.00    +0.000 OA
ATOM     10  C   UNL     1       6.920   5.898  18.765  0.00  0.00    +0.000 C 
ATOM     11  N   UNL     1       5.625   5.266  18.653  0.00  0.00    +0.000 NA
ATOM     12  C   UNL     1       5.054   4.684  17.669  0.00  0.00    +0.000 C 
ATOM     13  H   UNL     1       8.194   6.699  15.733  0.00  0.00    +0.000 HD
ENDROOT
BRANCH  12  14
ATOM     14  C   UNL     1       3.782   3.945  17.994  0.00  0.00    +0.000 A 
ATOM     15  C   UNL     1       3.854   2.598  18.377  0.00  0.00    +0.000 A 
ATOM     16  C   UNL     1       2.687   1.878  18.651  0.00  0.00    +0.000 A 
ATOM     17  C   UNL     1       1.443   2.499  18.552  0.00  0.00    +0.000 A 
ATOM     18  C   UNL     1       1.358   3.824  18.134  0.00  0.00    +0.000 A 
ATOM     19  C   UNL     1       2.519   4.533  17.821  0.00  0.00    +0.000 A 
ENDBRANCH  12  14
TORSDOF 1
ENDMDL
MODEL 2
REMARK VINA RESULT:      -7.6      0.156      1.147
REMARK  Name = 
REMARK  2 active torsions:
REMARK  status: ('A' for Active; 'I' for Inactive)
REMARK    1  A    between atoms: C_1  and  N_2
REMARK    2  A    between atoms: C_12  and  C_13
REMARK                            x       y       z     vdW  Elec       q    Type
REMARK                         _______ _______ _______ _____ _____    ______ ____
ROOT
ATOM      1  C   UNL     1       7.838   5.242  13.630  0.00  0.00    +0.000 C 
ATOM      2  N   UNL     1       6.794   4.891  14.565  0.00  0.00    +0.000 N 
ATOM      3  N   UNL     1       5.722   4.229  14.120  0.00  0.00    +0.000 NA
ATOM      4  C   UNL     1       4.969   4.106  15.209  0.00  0.00    +0.000 A 
ATOM      5  C   UNL     1       5.577   4.616  16.398  0.00  0.00    +0.000 A 
ATOM      6  C   UNL     1       6.707   5.241  15.892  0.00  0.00    +0.000 A 
ATOM      7  N   UNL     1       7.555   6.140  16.499  0.00  0.00    +0.000 N 
ATOM      8  C   UNL     1       7.436   6.621  17.826  0.00  0.00    +0.000 C 
ATOM      9  O   UNL     1       7.990   7.696  18.017  0.00  0.00    +0.000 OA
ATOM     10  C   UNL     1       6.902   5.745  18.919  0.00  0.00    +0.000 C 
ATOM     11  N   UNL     1       5.606   5.124  18.765  0.00  0.00    +0.000 NA
ATOM     12  C   UNL     1       5.047   4.583  17.751  0.00  0.00    +0.000 C 
ATOM     13  H   UNL     1       8.220   6.660  15.939  0.00  0.00    +0.000 HD
ENDROOT
BRANCH  12  14
ATOM     14  C   UNL     1       3.767   3.838  18.030  0.00  0.00    +0.000 A 
ATOM     15  C   UNL     1       2.547   4.524  17.950  0.00  0.00    +0.000 A 
ATOM     16  C   UNL     1       1.347   3.867  18.236  0.00  0.00    +0.000 A 
ATOM     17  C   UNL     1       1.356   2.521  18.598  0.00  0.00    +0.000 A 
ATOM     18  C   UNL     1       2.564   1.842  18.719  0.00  0.00    +0.000 A 
ATOM     19  C   UNL     1       3.766   2.506  18.472  0.00  0.00    +0.000 A 
ENDBRANCH  12  14
TORSDOF 1
ENDMDL
MODEL 3
REMARK VINA RESULT:      -7.6      1.537      3.285
REMARK  Name = 
REMARK  2 active torsions:
REMARK  status: ('A' for Active; 'I' for Inactive)
REMARK    1  A    between atoms: C_1  and  N_2
REMARK    2  A    between atoms: C_12  and  C_13
REMARK                            x       y       z     vdW  Elec       q    Type
REMARK                         _______ _______ _______ _____ _____    ______ ____
ROOT
ATOM      1  C   UNL     1       8.389   6.976  18.812  0.00  0.00    +0.000 C 
ATOM      2  N   UNL     1       7.240   6.119  18.629  0.00  0.00    +0.000 N 
ATOM      3  N   UNL     1       6.630   5.616  19.707  0.00  0.00    +0.000 NA
ATOM      4  C   UNL     1       5.664   4.866  19.185  0.00  0.00    +0.000 A 
ATOM      5  C   UNL     1       5.580   4.935  17.759  0.00  0.00    +0.000 A 
ATOM      6  C   UNL     1       6.721   5.658  17.443  0.00  0.00    +0.000 A 
ATOM      7  N   UNL     1       7.340   5.826  16.225  0.00  0.00    +0.000 N 
ATOM      8  C   UNL     1       6.908   5.271  14.996  0.00  0.00    +0.000 C 
ATOM      9  O   UNL     1       7.795   5.166  14.158  0.00  0.00    +0.000 OA
ATOM     10  C   UNL     1       5.449   5.087  14.702  0.00  0.00    +0.000 C 
ATOM     11  N   UNL     1       4.629   4.327  15.618  0.00  0.00    +0.000 NA
ATOM     12  C   UNL     1       4.608   4.287  16.895  0.00  0.00    +0.000 C 
ATOM     13  H   UNL     1       8.274   6.215  16.186  0.00  0.00    +0.000 HD
ENDROOT
BRANCH  12  14
ATOM     14  C   UNL     1       3.455   3.535  17.507  0.00  0.00    +0.000 A 
ATOM     15  C   UNL     1       2.246   4.208  17.738  0.00  0.00    +0.000 A 
ATOM     16  C   UNL     1       1.171   3.545  18.336  0.00  0.00    +0.000 A 
ATOM     17  C   UNL     1       1.291   2.205  18.701  0.00  0.00    +0.000 A 
ATOM     18  C   UNL     1       2.499   1.540  18.513  0.00  0.00    +0.000 A 
ATOM     19  C   UNL     1       3.586   2.211  17.953  0.00  0.00    +0.000 A 
ENDBRANCH  12  14
TORSDOF 1
ENDMDL
MODEL 4
REMARK VINA RESULT:      -7.5      1.311      1.684
REMARK  Name = 
REMARK  2 active torsions:
REMARK  status: ('A' for Active; 'I' for Inactive)
REMARK    1  A    between atoms: C_1  and  N_2
REMARK    2  A    between atoms: C_12  and  C_13
REMARK                            x       y       z     vdW  Elec       q    Type
REMARK                         _______ _______ _______ _____ _____    ______ ____
ROOT
ATOM      1  C   UNL     1       7.199   4.960  14.260  0.00  0.00    +0.000 C 
ATOM      2  N   UNL     1       6.304   4.743  15.373  0.00  0.00    +0.000 N 
ATOM      3  N   UNL     1       5.102   4.205  15.142  0.00  0.00    +0.000 NA
ATOM      4  C   UNL     1       4.544   4.182  16.348  0.00  0.00    +0.000 A 
ATOM      5  C   UNL     1       5.406   4.630  17.397  0.00  0.00    +0.000 A 
ATOM      6  C   UNL     1       6.493   5.114  16.684  0.00  0.00    +0.000 A 
ATOM      7  N   UNL     1       7.530   5.914  17.105  0.00  0.00    +0.000 N 
ATOM      8  C   UNL     1       7.702   6.419  18.418  0.00  0.00    +0.000 C 
ATOM      9  O   UNL     1       8.398   7.424  18.477  0.00  0.00    +0.000 OA
ATOM     10  C   UNL     1       7.274   5.623  19.614  0.00  0.00    +0.000 C 
ATOM     11  N   UNL     1       5.909   5.155  19.706  0.00  0.00    +0.000 NA
ATOM     12  C   UNL     1       5.123   4.673  18.822  0.00  0.00    +0.000 C 
ATOM     13  H   UNL     1       8.140   6.348  16.423  0.00  0.00    +0.000 HD
ENDROOT
BRANCH  12  14
ATOM     14  C   UNL     1       3.837   4.084  19.342  0.00  0.00    +0.000 A 
ATOM     15  C   UNL     1       2.928   4.915  20.013  0.00  0.00    +0.000 A 
ATOM     16  C   UNL     1       1.743   4.390  20.536  0.00  0.00    +0.000 A 
ATOM     17  C   UNL     1       1.453   3.035  20.387  0.00  0.00    +0.000 A 
ATOM     18  C   UNL     1       2.366   2.194  19.758  0.00  0.00    +0.000 A 
ATOM     19  C   UNL     1       3.568   2.709  19.270  0.00  0.00    +0.000 A 
ENDBRANCH  12  14
TORSDOF 1
ENDMDL
MODEL 5
REMARK VINA RESULT:      -7.4      1.232      1.264
REMARK  Name = 
REMARK  2 active torsions:
REMARK  status: ('A' for Active; 'I' for Inactive)
REMARK    1  A    between atoms: C_1  and  N_2
REMARK    2  A    between atoms: C_12  and  C_13
REMARK                            x       y       z     vdW  Elec       q    Type
REMARK                         _______ _______ _______ _____ _____    ______ ____
ROOT
ATOM      1  C   UNL     1       7.185   4.732  14.300  0.00  0.00    +0.000 C 
ATOM      2  N   UNL     1       6.252   4.560  15.389  0.00  0.00    +0.000 N 
ATOM      3  N   UNL     1       5.045   4.047  15.133  0.00  0.00    +0.000 NA
ATOM      4  C   UNL     1       4.451   4.063  16.322  0.00  0.00    +0.000 A 
ATOM      5  C   UNL     1       5.292   4.511  17.387  0.00  0.00    +0.000 A 
ATOM      6  C   UNL     1       6.411   4.954  16.697  0.00  0.00    +0.000 A 
ATOM      7  N   UNL     1       7.455   5.737  17.134  0.00  0.00    +0.000 N 
ATOM      8  C   UNL     1       7.600   6.266  18.440  0.00  0.00    +0.000 C 
ATOM      9  O   UNL     1       8.319   7.255  18.500  0.00  0.00    +0.000 OA
ATOM     10  C   UNL     1       7.117   5.505  19.638  0.00  0.00    +0.000 C 
ATOM     11  N   UNL     1       5.739   5.072  19.699  0.00  0.00    +0.000 NA
ATOM     12  C   UNL     1       4.967   4.591  18.802  0.00  0.00    +0.000 C 
ATOM     13  H   UNL     1       8.095   6.142  16.462  0.00  0.00    +0.000 HD
ENDROOT
BRANCH  12  14
ATOM     14  C   UNL     1       3.652   4.045  19.294  0.00  0.00    +0.000 A 
ATOM     15  C   UNL     1       3.443   2.658  19.284  0.00  0.00    +0.000 A 
ATOM     16  C   UNL     1       2.220   2.125  19.702  0.00  0.00    +0.000 A 
ATOM     17  C   UNL     1       1.201   2.971  20.139  0.00  0.00    +0.000 A 
ATOM     18  C   UNL     1       1.385   4.350  20.115  0.00  0.00    +0.000 A 
ATOM     19  C   UNL     1       2.590   4.886  19.660  0.00  0.00    +0.000 A 
ENDBRANCH  12  14
TORSDOF 1
ENDMDL
MODEL 6
REMARK VINA RESULT:      -7.4      3.335      4.537
REMARK  Name = 
REMARK  2 active torsions:
REMARK  status: ('A' for Active; 'I' for Inactive)
REMARK    1  A    between atoms: C_1  and  N_2
REMARK    2  A    between atoms: C_12  and  C_13
REMARK                            x       y       z     vdW  Elec       q    Type
REMARK                         _______ _______ _______ _____ _____    ______ ____
ROOT
ATOM      1  C   UNL     1       7.115   4.507  16.137  0.00  0.00    +0.000 C 
ATOM      2  N   UNL     1       6.073   5.282  16.769  0.00  0.00    +0.000 N 
ATOM      3  N   UNL     1       5.980   6.587  16.497  0.00  0.00    +0.000 NA
ATOM      4  C   UNL     1       4.964   6.983  17.257  0.00  0.00    +0.000 A 
ATOM      5  C   UNL     1       4.326   5.923  17.974  0.00  0.00    +0.000 A 
ATOM      6  C   UNL     1       5.180   4.859  17.726  0.00  0.00    +0.000 A 
ATOM      7  N   UNL     1       5.258   3.636  18.352  0.00  0.00    +0.000 N 
ATOM      8  C   UNL     1       4.438   3.202  19.422  0.00  0.00    +0.000 C 
ATOM      9  O   UNL     1       4.935   2.313  20.102  0.00  0.00    +0.000 OA
ATOM     10  C   UNL     1       3.004   3.631  19.518  0.00  0.00    +0.000 C 
ATOM     11  N   UNL     1       2.681   5.040  19.514  0.00  0.00    +0.000 NA
ATOM     12  C   UNL     1       3.161   6.012  18.838  0.00  0.00    +0.000 C 
ATOM     13  H   UNL     1       6.062   3.040  18.193  0.00  0.00    +0.000 HD
ENDROOT
BRANCH  12  14
ATOM     14  C   UNL     1       2.413   7.316  18.946  0.00  0.00    +0.000 A 
ATOM     15  C   UNL     1       1.899   7.706  20.191  0.00  0.00    +0.000 A 
ATOM     16  C   UNL     1       1.172   8.894  20.314  0.00  0.00    +0.000 A 
ATOM     17  C   UNL     1       0.959   9.702  19.199  0.00  0.00    +0.000 A 
ATOM     18  C   UNL     1       1.431   9.304  17.952  0.00  0.00    +0.000 A 
ATOM     19  C   UNL     1       2.122   8.099  17.819  0.00  0.00    +0.000 A 
ENDBRANCH  12  14
TORSDOF 1
ENDMDL
MODEL 7
REMARK VINA RESULT:      -7.4      1.545      3.092
REMARK  Name = 
REMARK  2 active torsions:
REMARK  status: ('A' for Active; 'I' for Inactive)
REMARK    1  A    between atoms: C_1  and  N_2
REMARK    2  A    between atoms: C_12  and  C_13
REMARK                            x       y       z     vdW  Elec       q    Type
REMARK                         _______ _______ _______ _____ _____    ______ ____
ROOT
ATOM      1  C   UNL     1       8.442   6.969  18.837  0.00  0.00    +0.000 C 
ATOM      2  N   UNL     1       7.280   6.126  18.670  0.00  0.00    +0.000 N 
ATOM      3  N   UNL     1       6.677   5.633  19.756  0.00  0.00    +0.000 NA
ATOM      4  C   UNL     1       5.696   4.894  19.247  0.00  0.00    +0.000 A 
ATOM      5  C   UNL     1       5.596   4.961  17.822  0.00  0.00    +0.000 A 
ATOM      6  C   UNL     1       6.742   5.668  17.491  0.00  0.00    +0.000 A 
ATOM      7  N   UNL     1       7.349   5.825  16.266  0.00  0.00    +0.000 N 
ATOM      8  C   UNL     1       6.895   5.272  15.043  0.00  0.00    +0.000 C 
ATOM      9  O   UNL     1       7.771   5.155  14.195  0.00  0.00    +0.000 OA
ATOM     10  C   UNL     1       5.431   5.106  14.767  0.00  0.00    +0.000 C 
ATOM     11  N   UNL     1       4.612   4.358  15.694  0.00  0.00    +0.000 NA
ATOM     12  C   UNL     1       4.605   4.322  16.971  0.00  0.00    +0.000 C 
ATOM     13  H   UNL     1       8.287   6.203  16.214  0.00  0.00    +0.000 HD
ENDROOT
BRANCH  12  14
ATOM     14  C   UNL     1       3.450   3.586  17.599  0.00  0.00    +0.000 A 
ATOM     15  C   UNL     1       3.607   2.235  17.941  0.00  0.00    +0.000 A 
ATOM     16  C   UNL     1       2.542   1.518  18.493  0.00  0.00    +0.000 A 
ATOM     17  C   UNL     1       1.316   2.144  18.713  0.00  0.00    +0.000 A 
ATOM     18  C   UNL     1       1.138   3.472  18.340  0.00  0.00    +0.000 A 
ATOM     19  C   UNL     1       2.188   4.179  17.752  0.00  0.00    +0.000 A 
ENDBRANCH  12  14
TORSDOF 1
ENDMDL
MODEL 8
REMARK VINA RESULT:      -7.4      3.594      5.903
REMARK  Name = 
REMARK  2 active torsions:
REMARK  status: ('A' for Active; 'I' for Inactive)
REMARK    1  A    between atoms: C_1  and  N_2
REMARK    2  A    between atoms: C_12  and  C_13
REMARK                            x       y       z     vdW  Elec       q    Type
REMARK                         _______ _______ _______ _____ _____    ______ ____
ROOT
ATOM      1  C   UNL     1       1.171   7.704  20.877  0.00  0.00    +0.000 C 
ATOM      2  N   UNL     1       2.072   6.991  20.002  0.00  0.00    +0.000 N 
ATOM      3  N   UNL     1       2.575   7.623  18.937  0.00  0.00    +0.000 NA
ATOM      4  C   UNL     1       3.314   6.686  18.351  0.00  0.00    +0.000 A 
ATOM      5  C   UNL     1       3.368   5.452  19.071  0.00  0.00    +0.000 A 
ATOM      6  C   UNL     1       2.427   5.664  20.067  0.00  0.00    +0.000 A 
ATOM      7  N   UNL     1       1.829   4.758  20.913  0.00  0.00    +0.000 N 
ATOM      8  C   UNL     1       2.075   3.363  20.936  0.00  0.00    +0.000 C 
ATOM      9  O   UNL     1       1.164   2.705  21.421  0.00  0.00    +0.000 OA
ATOM     10  C   UNL     1       3.436   2.815  20.628  0.00  0.00    +0.000 C 
ATOM     11  N   UNL     1       4.076   3.158  19.378  0.00  0.00    +0.000 NA
ATOM     12  C   UNL     1       4.127   4.260  18.733  0.00  0.00    +0.000 C 
ATOM     13  H   UNL     1       1.016   5.033  21.451  0.00  0.00    +0.000 HD
ENDROOT
BRANCH  12  14
ATOM     14  C   UNL     1       5.082   4.292  17.568  0.00  0.00    +0.000 A 
ATOM     15  C   UNL     1       6.427   4.619  17.797  0.00  0.00    +0.000 A 
ATOM     16  C   UNL     1       7.328   4.690  16.730  0.00  0.00    +0.000 A 
ATOM     17  C   UNL     1       6.895   4.431  15.431  0.00  0.00    +0.000 A 
ATOM     18  C   UNL     1       5.555   4.146  15.188  0.00  0.00    +0.000 A 
ATOM     19  C   UNL     1       4.646   4.113  16.246  0.00  0.00    +0.000 A 
ENDBRANCH  12  14
TORSDOF 1
ENDMDL
MODEL 9
REMARK VINA RESULT:      -7.4      3.365      4.594
REMARK  Name = 
REMARK  2 active torsions:
REMARK  status: ('A' for Active; 'I' for Inactive)
REMARK    1  A    between atoms: C_1  and  N_2
REMARK    2  A    between atoms: C_12  and  C_13
REMARK                            x       y       z     vdW  Elec       q    Type
REMARK                         _______ _______ _______ _____ _____    ______ ____
ROOT
ATOM      1  C   UNL     1       7.086   4.483  15.670  0.00  0.00    +0.000 C 
ATOM      2  N   UNL     1       6.054   5.209  16.374  0.00  0.00    +0.000 N 
ATOM      3  N   UNL     1       6.224   6.514  16.607  0.00  0.00    +0.000 NA
ATOM      4  C   UNL     1       5.131   6.844  17.288  0.00  0.00    +0.000 A 
ATOM      5  C   UNL     1       4.193   5.775  17.438  0.00  0.00    +0.000 A 
ATOM      6  C   UNL     1       4.912   4.697  16.944  0.00  0.00    +0.000 A 
ATOM      7  N   UNL     1       4.659   3.349  17.062  0.00  0.00    +0.000 N 
ATOM      8  C   UNL     1       3.558   2.773  17.742  0.00  0.00    +0.000 C 
ATOM      9  O   UNL     1       3.746   1.618  18.104  0.00  0.00    +0.000 OA
ATOM     10  C   UNL     1       2.223   3.453  17.765  0.00  0.00    +0.000 C 
ATOM     11  N   UNL     1       2.124   4.813  18.244  0.00  0.00    +0.000 NA
ATOM     12  C   UNL     1       2.887   5.823  18.074  0.00  0.00    +0.000 C 
ATOM     13  H   UNL     1       5.379   2.680  16.820  0.00  0.00    +0.000 HD
ENDROOT
BRANCH  12  14
ATOM     14  C   UNL     1       2.340   7.144  18.548  0.00  0.00    +0.000 A 
ATOM     15  C   UNL     1       2.049   7.313  19.910  0.00  0.00    +0.000 A 
ATOM     16  C   UNL     1       1.508   8.516  20.373  0.00  0.00    +0.000 A 
ATOM     17  C   UNL     1       1.260   9.560  19.483  0.00  0.00    +0.000 A 
ATOM     18  C   UNL     1       1.507   9.388  18.125  0.00  0.00    +0.000 A 
ATOM     19  C   UNL     1       2.010   8.174  17.654  0.00  0.00    +0.000 A 
ENDBRANCH  12  14
TORSDOF 1
ENDMDL
