MODEL 1
REMARK VINA RESULT:      -6.5      0.000      0.000
REMARK  Name = 
REMARK  14 active torsions:
REMARK  status: ('A' for Active; 'I' for Inactive)
REMARK    1  A    between atoms: C_1  and  C_2
REMARK    2  A    between atoms: C_2  and  C_3
REMARK    3  A    between atoms: C_3  and  C_4
REMARK    4  A    between atoms: C_5  and  O_6
REMARK    5  A    between atoms: O_6  and  C_7
REMARK    6  A    between atoms: C_7  and  C_8
REMARK    7  A    between atoms: C_8  and  C_9
REMARK    8  A    between atoms: C_9  and  C_10
REMARK    9  A    between atoms: C_10  and  C_11
REMARK   10  A    between atoms: C_11  and  C_12
REMARK   11  A    between atoms: C_12  and  O_14
REMARK   12  A    between atoms: C_17  and  O_18
REMARK   13  A    between atoms: C_19  and  C_20
REMARK   14  A    between atoms: C_20  and  C_21
REMARK                            x       y       z     vdW  Elec       q    Type
REMARK                         _______ _______ _______ _____ _____    ______ ____
ROOT
ATOM      1  C   UNL     1       2.725   3.723  18.326  0.00  0.00    +0.000 A 
ATOM      2  C   UNL     1       3.477   4.563  17.462  0.00  0.00    +0.000 A 
ATOM      3  C   UNL     1       3.708   5.899  17.807  0.00  0.00    +0.000 A 
ATOM      4  C   UNL     1       3.122   6.460  18.930  0.00  0.00    +0.000 A 
ATOM      5  C   UNL     1       2.313   5.679  19.746  0.00  0.00    +0.000 A 
ATOM      6  C   UNL     1       2.101   4.314  19.465  0.00  0.00    +0.000 A 
ENDROOT
BRANCH   6   7
ATOM      7  C   UNL     1       1.248   3.522  20.413  0.00  0.00    +0.000 C 
ATOM      8  C   UNL     1       1.800   3.132  21.765  0.00  0.00    +0.000 C 
ATOM      9  O   UNL     1       0.110   3.163  20.092  0.00  0.00    +0.000 OA
ENDBRANCH   6   7
BRANCH   5  10
ATOM     10  O   UNL     1       1.774   6.265  20.858  0.00  0.00    +0.000 OA
ATOM     11  H   UNL     1       2.405   6.905  21.227  0.00  0.00    +0.000 HD
ENDBRANCH   5  10
BRANCH   1  12
ATOM     12  C   UNL     1       2.627   2.230  18.038  0.00  0.00    +0.000 C 
BRANCH  12  14
ATOM     13  C   UNL     1       4.538   2.006  19.680  0.00  0.00    +0.000 C 
ATOM     14  C   UNL     1       3.862   1.420  18.442  0.00  0.00    +0.000 C 
ENDBRANCH  12  14
ENDBRANCH   1  12
BRANCH   2  15
ATOM     15  O   UNL     1       4.020   4.033  16.311  0.00  0.00    +0.000 OA
BRANCH  15  16
ATOM     16  C   UNL     1       5.101   4.789  15.728  0.00  0.00    +0.000 C 
BRANCH  16  17
ATOM     17  C   UNL     1       6.474   4.258  16.162  0.00  0.00    +0.000 C 
BRANCH  17  18
ATOM     18  C   UNL     1       7.495   5.386  16.320  0.00  0.00    +0.000 C 
BRANCH  18  19
ATOM     19  C   UNL     1       6.992   6.504  17.237  0.00  0.00    +0.000 C 
BRANCH  19  20
ATOM     20  C   UNL     1       7.886   6.632  18.472  0.00  0.00    +0.000 C 
BRANCH  20  21
ATOM     21  C   UNL     1       7.542   5.624  19.542  0.00  0.00    +0.000 C 
ATOM     22  O   UNL     1       6.441   5.134  19.728  0.00  0.00    +0.000 OA
BRANCH  21  23
ATOM     23  O   UNL     1       8.614   5.313  20.310  0.00  0.00    +0.000 OA
ATOM     24  H   UNL     1       8.913   4.391  20.213  0.00  0.00    +0.000 HD
ENDBRANCH  21  23
ENDBRANCH  20  21
ENDBRANCH  19  20
ENDBRANCH  18  19
ENDBRANCH  17  18
ENDBRANCH  16  17
ENDBRANCH  15  16
ENDBRANCH   2  15
TORSDOF 12
ENDMDL
MODEL 2
REMARK VINA RESULT:      -6.3      2.760      5.459
REMARK  Name = 
REMARK  14 active torsions:
REMARK  status: ('A' for Active; 'I' for Inactive)
REMARK    1  A    between atoms: C_1  and  C_2
REMARK    2  A    between atoms: C_2  and  C_3
REMARK    3  A    between atoms: C_3  and  C_4
REMARK    4  A    between atoms: C_5  and  O_6
REMARK    5  A    between atoms: O_6  and  C_7
REMARK    6  A    between atoms: C_7  and  C_8
REMARK    7  A    between atoms: C_8  and  C_9
REMARK    8  A    between atoms: C_9  and  C_10
REMARK    9  A    between atoms: C_10  and  C_11
REMARK   10  A    between atoms: C_11  and  C_12
REMARK   11  A    between atoms: C_12  and  O_14
REMARK   12  A    between atoms: C_17  and  O_18
REMARK   13  A    between atoms: C_19  and  C_20
REMARK   14  A    between atoms: C_20  and  C_21
REMARK                            x       y       z     vdW  Elec       q    Type
REMARK                         _______ _______ _______ _____ _____    ______ ____
ROOT
ATOM      1  C   UNL     1       3.189   4.584  18.746  0.00  0.00    +0.000 A 
ATOM      2  C   UNL     1       2.381   5.712  19.050  0.00  0.00    +0.000 A 
ATOM      3  C   UNL     1       1.803   5.843  20.316  0.00  0.00    +0.000 A 
ATOM      4  C   UNL     1       1.910   4.834  21.260  0.00  0.00    +0.000 A 
ATOM      5  C   UNL     1       2.626   3.683  20.957  0.00  0.00    +0.000 A 
ATOM      6  C   UNL     1       3.271   3.536  19.712  0.00  0.00    +0.000 A 
ENDROOT
BRANCH   6   7
ATOM      7  C   UNL     1       4.061   2.282  19.469  0.00  0.00    +0.000 C 
ATOM      8  C   UNL     1       3.619   1.320  18.391  0.00  0.00    +0.000 C 
ATOM      9  O   UNL     1       5.053   2.016  20.156  0.00  0.00    +0.000 OA
ENDBRANCH   6   7
BRANCH   5  10
ATOM     10  O   UNL     1       2.729   2.722  21.925  0.00  0.00    +0.000 OA
ATOM     11  H   UNL     1       1.841   2.427  22.187  0.00  0.00    +0.000 HD
ENDBRANCH   5  10
BRANCH   1  12
ATOM     12  C   UNL     1       3.959   4.532  17.434  0.00  0.00    +0.000 C 
BRANCH  12  14
ATOM     13  C   UNL     1       5.194   6.262  16.062  0.00  0.00    +0.000 C 
ATOM     14  C   UNL     1       5.168   5.470  17.367  0.00  0.00    +0.000 C 
ENDBRANCH  12  14
ENDBRANCH   1  12
BRANCH   2  15
ATOM     15  O   UNL     1       2.218   6.699  18.101  0.00  0.00    +0.000 OA
BRANCH  15  16
ATOM     16  C   UNL     1       2.451   8.046  18.558  0.00  0.00    +0.000 C 
BRANCH  16  17
ATOM     17  C   UNL     1       1.650   9.075  17.746  0.00  0.00    +0.000 C 
BRANCH  17  18
ATOM     18  C   UNL     1       0.466   9.627  18.542  0.00  0.00    +0.000 C 
BRANCH  18  19
ATOM     19  C   UNL     1       0.872  10.100  19.940  0.00  0.00    +0.000 C 
BRANCH  19  20
ATOM     20  C   UNL     1       0.059   9.372  21.013  0.00  0.00    +0.000 C 
BRANCH  20  21
ATOM     21  C   UNL     1       0.745   9.371  22.358  0.00  0.00    +0.000 C 
ATOM     22  O   UNL     1       0.296   9.856  23.383  0.00  0.00    +0.000 OA
BRANCH  21  23
ATOM     23  O   UNL     1       1.954   8.763  22.311  0.00  0.00    +0.000 OA
ATOM     24  H   UNL     1       1.910   7.793  22.386  0.00  0.00    +0.000 HD
ENDBRANCH  21  23
ENDBRANCH  20  21
ENDBRANCH  19  20
ENDBRANCH  18  19
ENDBRANCH  17  18
ENDBRANCH  16  17
ENDBRANCH  15  16
ENDBRANCH   2  15
TORSDOF 12
ENDMDL
MODEL 3
REMARK VINA RESULT:      -6.3      2.919      5.771
REMARK  Name = 
REMARK  14 active torsions:
REMARK  status: ('A' for Active; 'I' for Inactive)
REMARK    1  A    between atoms: C_1  and  C_2
REMARK    2  A    between atoms: C_2  and  C_3
REMARK    3  A    between atoms: C_3  and  C_4
REMARK    4  A    between atoms: C_5  and  O_6
REMARK    5  A    between atoms: O_6  and  C_7
REMARK    6  A    between atoms: C_7  and  C_8
REMARK    7  A    between atoms: C_8  and  C_9
REMARK    8  A    between atoms: C_9  and  C_10
REMARK    9  A    between atoms: C_10  and  C_11
REMARK   10  A    between atoms: C_11  and  C_12
REMARK   11  A    between atoms: C_12  and  O_14
REMARK   12  A    between atoms: C_17  and  O_18
REMARK   13  A    between atoms: C_19  and  C_20
REMARK   14  A    between atoms: C_20  and  C_21
REMARK                            x       y       z     vdW  Elec       q    Type
REMARK                         _______ _______ _______ _____ _____    ______ ____
ROOT
ATOM      1  C   UNL     1       3.127   5.184  18.560  0.00  0.00    +0.000 A 
ATOM      2  C   UNL     1       3.240   6.535  18.134  0.00  0.00    +0.000 A 
ATOM      3  C   UNL     1       4.355   6.949  17.399  0.00  0.00    +0.000 A 
ATOM      4  C   UNL     1       5.419   6.091  17.165  0.00  0.00    +0.000 A 
ATOM      5  C   UNL     1       5.367   4.788  17.645  0.00  0.00    +0.000 A 
ATOM      6  C   UNL     1       4.237   4.314  18.341  0.00  0.00    +0.000 A 
ENDROOT
BRANCH   6   7
ATOM      7  C   UNL     1       4.235   2.883  18.794  0.00  0.00    +0.000 C 
ATOM      8  C   UNL     1       3.443   1.857  18.017  0.00  0.00    +0.000 C 
ATOM      9  O   UNL     1       4.851   2.539  19.808  0.00  0.00    +0.000 OA
ENDBRANCH   6   7
BRANCH   5  10
ATOM     10  O   UNL     1       6.426   3.966  17.372  0.00  0.00    +0.000 OA
ATOM     11  H   UNL     1       7.252   4.396  17.646  0.00  0.00    +0.000 HD
ENDBRANCH   5  10
BRANCH   1  12
ATOM     12  C   UNL     1       1.834   4.696  19.201  0.00  0.00    +0.000 C 
BRANCH  12  14
ATOM     13  C   UNL     1       1.855   3.610  21.486  0.00  0.00    +0.000 C 
ATOM     14  C   UNL     1       1.747   4.923  20.713  0.00  0.00    +0.000 C 
ENDBRANCH  12  14
ENDBRANCH   1  12
BRANCH   2  15
ATOM     15  O   UNL     1       2.216   7.415  18.407  0.00  0.00    +0.000 OA
BRANCH  15  16
ATOM     16  C   UNL     1       2.246   8.654  17.669  0.00  0.00    +0.000 C 
BRANCH  16  17
ATOM     17  C   UNL     1       1.050   9.554  18.008  0.00  0.00    +0.000 C 
BRANCH  17  18
ATOM     18  C   UNL     1       1.065   9.990  19.475  0.00  0.00    +0.000 C 
BRANCH  18  19
ATOM     19  C   UNL     1       0.177   9.106  20.355  0.00  0.00    +0.000 C 
BRANCH  19  20
ATOM     20  C   UNL     1      -0.272   9.867  21.604  0.00  0.00    +0.000 C 
BRANCH  20  21
ATOM     21  C   UNL     1       0.587   9.561  22.809  0.00  0.00    +0.000 C 
ATOM     22  O   UNL     1       1.799   9.435  22.801  0.00  0.00    +0.000 OA
BRANCH  21  23
ATOM     23  O   UNL     1      -0.150   9.427  23.937  0.00  0.00    +0.000 OA
ATOM     24  H   UNL     1      -0.902   8.815  23.846  0.00  0.00    +0.000 HD
ENDBRANCH  21  23
ENDBRANCH  20  21
ENDBRANCH  19  20
ENDBRANCH  18  19
ENDBRANCH  17  18
ENDBRANCH  16  17
ENDBRANCH  15  16
ENDBRANCH   2  15
TORSDOF 12
ENDMDL
MODEL 4
REMARK VINA RESULT:      -6.3      3.686      6.492
REMARK  Name = 
REMARK  14 active torsions:
REMARK  status: ('A' for Active; 'I' for Inactive)
REMARK    1  A    between atoms: C_1  and  C_2
REMARK    2  A    between atoms: C_2  and  C_3
REMARK    3  A    between atoms: C_3  and  C_4
REMARK    4  A    between atoms: C_5  and  O_6
REMARK    5  A    between atoms: O_6  and  C_7
REMARK    6  A    between atoms: C_7  and  C_8
REMARK    7  A    between atoms: C_8  and  C_9
REMARK    8  A    between atoms: C_9  and  C_10
REMARK    9  A    between atoms: C_10  and  C_11
REMARK   10  A    between atoms: C_11  and  C_12
REMARK   11  A    between atoms: C_12  and  O_14
REMARK   12  A    between atoms: C_17  and  O_18
REMARK   13  A    between atoms: C_19  and  C_20
REMARK   14  A    between atoms: C_20  and  C_21
REMARK                            x       y       z     vdW  Elec       q    Type
REMARK                         _______ _______ _______ _____ _____    ______ ____
ROOT
ATOM      1  C   UNL     1       3.062   4.823  18.533  0.00  0.00    +0.000 A 
ATOM      2  C   UNL     1       3.154   6.162  18.069  0.00  0.00    +0.000 A 
ATOM      3  C   UNL     1       4.365   6.653  17.572  0.00  0.00    +0.000 A 
ATOM      4  C   UNL     1       5.521   5.889  17.621  0.00  0.00    +0.000 A 
ATOM      5  C   UNL     1       5.474   4.605  18.147  0.00  0.00    +0.000 A 
ATOM      6  C   UNL     1       4.261   4.052  18.607  0.00  0.00    +0.000 A 
ENDROOT
BRANCH   6   7
ATOM      7  C   UNL     1       4.277   2.644  19.125  0.00  0.00    +0.000 C 
ATOM      8  C   UNL     1       3.537   1.563  18.371  0.00  0.00    +0.000 C 
ATOM      9  O   UNL     1       4.867   2.362  20.174  0.00  0.00    +0.000 OA
ENDBRANCH   6   7
BRANCH   5  10
ATOM     10  O   UNL     1       6.631   3.875  18.154  0.00  0.00    +0.000 OA
ATOM     11  H   UNL     1       6.860   3.637  19.068  0.00  0.00    +0.000 HD
ENDBRANCH   5  10
BRANCH   1  12
ATOM     12  C   UNL     1       1.705   4.239  18.905  0.00  0.00    +0.000 C 
BRANCH  12  14
ATOM     13  C   UNL     1       1.249   3.052  21.091  0.00  0.00    +0.000 C 
ATOM     14  C   UNL     1       1.323   4.400  20.379  0.00  0.00    +0.000 C 
ENDBRANCH  12  14
ENDBRANCH   1  12
BRANCH   2  15
ATOM     15  O   UNL     1       2.025   6.954  18.066  0.00  0.00    +0.000 OA
BRANCH  15  16
ATOM     16  C   UNL     1       2.082   8.123  18.908  0.00  0.00    +0.000 C 
BRANCH  16  17
ATOM     17  C   UNL     1       1.975   9.421  18.095  0.00  0.00    +0.000 C 
BRANCH  17  18
ATOM     18  C   UNL     1       0.520   9.782  17.791  0.00  0.00    +0.000 C 
BRANCH  18  19
ATOM     19  C   UNL     1      -0.282  10.085  19.060  0.00  0.00    +0.000 C 
BRANCH  19  20
ATOM     20  C   UNL     1      -1.248  11.248  18.822  0.00  0.00    +0.000 C 
BRANCH  20  21
ATOM     21  C   UNL     1      -2.428  10.855  17.965  0.00  0.00    +0.000 C 
ATOM     22  O   UNL     1      -2.889   9.730  17.866  0.00  0.00    +0.000 OA
BRANCH  21  23
ATOM     23  O   UNL     1      -2.938  11.911  17.287  0.00  0.00    +0.000 OA
ATOM     24  H   UNL     1      -2.313  12.314  16.660  0.00  0.00    +0.000 HD
ENDBRANCH  21  23
ENDBRANCH  20  21
ENDBRANCH  19  20
ENDBRANCH  18  19
ENDBRANCH  17  18
ENDBRANCH  16  17
ENDBRANCH  15  16
ENDBRANCH   2  15
TORSDOF 12
ENDMDL
MODEL 5
REMARK VINA RESULT:      -6.2      3.585      6.445
REMARK  Name = 
REMARK  14 active torsions:
REMARK  status: ('A' for Active; 'I' for Inactive)
REMARK    1  A    between atoms: C_1  and  C_2
REMARK    2  A    between atoms: C_2  and  C_3
REMARK    3  A    between atoms: C_3  and  C_4
REMARK    4  A    between atoms: C_5  and  O_6
REMARK    5  A    between atoms: O_6  and  C_7
REMARK    6  A    between atoms: C_7  and  C_8
REMARK    7  A    between atoms: C_8  and  C_9
REMARK    8  A    between atoms: C_9  and  C_10
REMARK    9  A    between atoms: C_10  and  C_11
REMARK   10  A    between atoms: C_11  and  C_12
REMARK   11  A    between atoms: C_12  and  O_14
REMARK   12  A    between atoms: C_17  and  O_18
REMARK   13  A    between atoms: C_19  and  C_20
REMARK   14  A    between atoms: C_20  and  C_21
REMARK                            x       y       z     vdW  Elec       q    Type
REMARK                         _______ _______ _______ _____ _____    ______ ____
ROOT
ATOM      1  C   UNL     1       2.910   5.128  18.518  0.00  0.00    +0.000 A 
ATOM      2  C   UNL     1       3.164   6.487  18.192  0.00  0.00    +0.000 A 
ATOM      3  C   UNL     1       4.187   6.816  17.297  0.00  0.00    +0.000 A 
ATOM      4  C   UNL     1       5.041   5.845  16.797  0.00  0.00    +0.000 A 
ATOM      5  C   UNL     1       4.864   4.518  17.167  0.00  0.00    +0.000 A 
ATOM      6  C   UNL     1       3.810   4.137  18.023  0.00  0.00    +0.000 A 
ENDROOT
BRANCH   6   7
ATOM      7  C   UNL     1       3.655   2.679  18.347  0.00  0.00    +0.000 C 
ATOM      8  C   UNL     1       4.306   2.120  19.591  0.00  0.00    +0.000 C 
ATOM      9  O   UNL     1       3.024   1.928  17.597  0.00  0.00    +0.000 OA
ENDBRANCH   6   7
BRANCH   5  10
ATOM     10  O   UNL     1       5.712   3.588  16.632  0.00  0.00    +0.000 OA
ATOM     11  H   UNL     1       6.539   3.570  17.141  0.00  0.00    +0.000 HD
ENDBRANCH   5  10
BRANCH   1  12
ATOM     12  C   UNL     1       1.687   4.762  19.349  0.00  0.00    +0.000 C 
BRANCH  12  14
ATOM     13  C   UNL     1       1.447   3.324  21.416  0.00  0.00    +0.000 C 
ATOM     14  C   UNL     1       1.947   4.652  20.854  0.00  0.00    +0.000 C 
ENDBRANCH  12  14
ENDBRANCH   1  12
BRANCH   2  15
ATOM     15  O   UNL     1       2.359   7.470  18.726  0.00  0.00    +0.000 OA
BRANCH  15  16
ATOM     16  C   UNL     1       1.891   8.466  17.794  0.00  0.00    +0.000 C 
BRANCH  16  17
ATOM     17  C   UNL     1       1.626   9.814  18.479  0.00  0.00    +0.000 C 
BRANCH  17  18
ATOM     18  C   UNL     1       0.785   9.650  19.747  0.00  0.00    +0.000 C 
BRANCH  18  19
ATOM     19  C   UNL     1      -0.682  10.033  19.527  0.00  0.00    +0.000 C 
BRANCH  19  20
ATOM     20  C   UNL     1      -0.810  11.032  18.374  0.00  0.00    +0.000 C 
BRANCH  20  21
ATOM     21  C   UNL     1      -1.971  10.715  17.461  0.00  0.00    +0.000 C 
ATOM     22  O   UNL     1      -2.683   9.728  17.536  0.00  0.00    +0.000 OA
BRANCH  21  23
ATOM     23  O   UNL     1      -2.144  11.665  16.512  0.00  0.00    +0.000 OA
ATOM     24  H   UNL     1      -2.745  12.383  16.779  0.00  0.00    +0.000 HD
ENDBRANCH  21  23
ENDBRANCH  20  21
ENDBRANCH  19  20
ENDBRANCH  18  19
ENDBRANCH  17  18
ENDBRANCH  16  17
ENDBRANCH  15  16
ENDBRANCH   2  15
TORSDOF 12
ENDMDL
MODEL 6
REMARK VINA RESULT:      -6.2      2.153      3.632
REMARK  Name = 
REMARK  14 active torsions:
REMARK  status: ('A' for Active; 'I' for Inactive)
REMARK    1  A    between atoms: C_1  and  C_2
REMARK    2  A    between atoms: C_2  and  C_3
REMARK    3  A    between atoms: C_3  and  C_4
REMARK    4  A    between atoms: C_5  and  O_6
REMARK    5  A    between atoms: O_6  and  C_7
REMARK    6  A    between atoms: C_7  and  C_8
REMARK    7  A    between atoms: C_8  and  C_9
REMARK    8  A    between atoms: C_9  and  C_10
REMARK    9  A    between atoms: C_10  and  C_11
REMARK   10  A    between atoms: C_11  and  C_12
REMARK   11  A    between atoms: C_12  and  O_14
REMARK   12  A    between atoms: C_17  and  O_18
REMARK   13  A    between atoms: C_19  and  C_20
REMARK   14  A    between atoms: C_20  and  C_21
REMARK                            x       y       z     vdW  Elec       q    Type
REMARK                         _______ _______ _______ _____ _____    ______ ____
ROOT
ATOM      1  C   UNL     1       3.164   5.088  18.592  0.00  0.00    +0.000 A 
ATOM      2  C   UNL     1       3.530   6.131  17.700  0.00  0.00    +0.000 A 
ATOM      3  C   UNL     1       3.220   7.460  18.006  0.00  0.00    +0.000 A 
ATOM      4  C   UNL     1       2.459   7.780  19.119  0.00  0.00    +0.000 A 
ATOM      5  C   UNL     1       2.018   6.768  19.963  0.00  0.00    +0.000 A 
ATOM      6  C   UNL     1       2.356   5.421  19.721  0.00  0.00    +0.000 A 
ENDROOT
BRANCH   6   7
ATOM      7  C   UNL     1       1.879   4.386  20.698  0.00  0.00    +0.000 C 
ATOM      8  C   UNL     1       0.743   3.466  20.313  0.00  0.00    +0.000 C 
ATOM      9  O   UNL     1       2.387   4.293  21.820  0.00  0.00    +0.000 OA
ENDBRANCH   6   7
BRANCH   5  10
ATOM     10  O   UNL     1       1.291   7.127  21.064  0.00  0.00    +0.000 OA
ATOM     11  H   UNL     1       1.416   8.074  21.243  0.00  0.00    +0.000 HD
ENDBRANCH   5  10
BRANCH   1  12
ATOM     12  C   UNL     1       3.658   3.669  18.345  0.00  0.00    +0.000 C 
BRANCH  12  14
ATOM     13  C   UNL     1       4.522   2.060  20.095  0.00  0.00    +0.000 C 
ATOM     14  C   UNL     1       4.857   3.253  19.202  0.00  0.00    +0.000 C 
ENDBRANCH  12  14
ENDBRANCH   1  12
BRANCH   2  15
ATOM     15  O   UNL     1       4.239   5.823  16.558  0.00  0.00    +0.000 OA
BRANCH  15  16
ATOM     16  C   UNL     1       5.501   6.505  16.406  0.00  0.00    +0.000 C 
BRANCH  16  17
ATOM     17  C   UNL     1       6.663   5.700  17.005  0.00  0.00    +0.000 C 
BRANCH  17  18
ATOM     18  C   UNL     1       7.114   4.575  16.071  0.00  0.00    +0.000 C 
BRANCH  18  19
ATOM     19  C   UNL     1       6.894   4.919  14.595  0.00  0.00    +0.000 C 
BRANCH  19  20
ATOM     20  C   UNL     1       6.022   3.859  13.919  0.00  0.00    +0.000 C 
BRANCH  20  21
ATOM     21  C   UNL     1       6.470   3.554  12.509  0.00  0.00    +0.000 C 
ATOM     22  O   UNL     1       7.227   4.239  11.842  0.00  0.00    +0.000 OA
BRANCH  21  23
ATOM     23  O   UNL     1       5.922   2.408  12.038  0.00  0.00    +0.000 OA
ATOM     24  H   UNL     1       4.984   2.494  11.790  0.00  0.00    +0.000 HD
ENDBRANCH  21  23
ENDBRANCH  20  21
ENDBRANCH  19  20
ENDBRANCH  18  19
ENDBRANCH  17  18
ENDBRANCH  16  17
ENDBRANCH  15  16
ENDBRANCH   2  15
TORSDOF 12
ENDMDL
MODEL 7
REMARK VINA RESULT:      -6.2      3.722      6.445
REMARK  Name = 
REMARK  14 active torsions:
REMARK  status: ('A' for Active; 'I' for Inactive)
REMARK    1  A    between atoms: C_1  and  C_2
REMARK    2  A    between atoms: C_2  and  C_3
REMARK    3  A    between atoms: C_3  and  C_4
REMARK    4  A    between atoms: C_5  and  O_6
REMARK    5  A    between atoms: O_6  and  C_7
REMARK    6  A    between atoms: C_7  and  C_8
REMARK    7  A    between atoms: C_8  and  C_9
REMARK    8  A    between atoms: C_9  and  C_10
REMARK    9  A    between atoms: C_10  and  C_11
REMARK   10  A    between atoms: C_11  and  C_12
REMARK   11  A    between atoms: C_12  and  O_14
REMARK   12  A    between atoms: C_17  and  O_18
REMARK   13  A    between atoms: C_19  and  C_20
REMARK   14  A    between atoms: C_20  and  C_21
REMARK                            x       y       z     vdW  Elec       q    Type
REMARK                         _______ _______ _______ _____ _____    ______ ____
ROOT
ATOM      1  C   UNL     1       3.019   4.828  18.790  0.00  0.00    +0.000 A 
ATOM      2  C   UNL     1       3.095   6.196  18.414  0.00  0.00    +0.000 A 
ATOM      3  C   UNL     1       4.274   6.711  17.866  0.00  0.00    +0.000 A 
ATOM      4  C   UNL     1       5.421   5.937  17.780  0.00  0.00    +0.000 A 
ATOM      5  C   UNL     1       5.395   4.619  18.219  0.00  0.00    +0.000 A 
ATOM      6  C   UNL     1       4.211   4.046  18.725  0.00  0.00    +0.000 A 
ENDROOT
BRANCH   6   7
ATOM      7  C   UNL     1       4.246   2.604  19.143  0.00  0.00    +0.000 C 
ATOM      8  C   UNL     1       3.539   1.567  18.301  0.00  0.00    +0.000 C 
ATOM      9  O   UNL     1       4.824   2.259  20.180  0.00  0.00    +0.000 OA
ENDBRANCH   6   7
BRANCH   5  10
ATOM     10  O   UNL     1       6.540   3.882  18.094  0.00  0.00    +0.000 OA
ATOM     11  H   UNL     1       6.397   2.993  18.458  0.00  0.00    +0.000 HD
ENDBRANCH   5  10
BRANCH   1  12
ATOM     12  C   UNL     1       1.684   4.231  19.216  0.00  0.00    +0.000 C 
BRANCH  12  14
ATOM     13  C   UNL     1       1.339   2.869  21.319  0.00  0.00    +0.000 C 
ATOM     14  C   UNL     1       1.420   4.272  20.724  0.00  0.00    +0.000 C 
ENDBRANCH  12  14
ENDBRANCH   1  12
BRANCH   2  15
ATOM     15  O   UNL     1       1.979   6.994  18.546  0.00  0.00    +0.000 OA
BRANCH  15  16
ATOM     16  C   UNL     1       1.950   7.836  19.716  0.00  0.00    +0.000 C 
BRANCH  16  17
ATOM     17  C   UNL     1       1.329   9.209  19.421  0.00  0.00    +0.000 C 
BRANCH  17  18
ATOM     18  C   UNL     1       0.949   9.355  17.946  0.00  0.00    +0.000 C 
BRANCH  18  19
ATOM     19  C   UNL     1      -0.481   9.869  17.761  0.00  0.00    +0.000 C 
BRANCH  19  20
ATOM     20  C   UNL     1      -0.807  10.942  18.803  0.00  0.00    +0.000 C 
BRANCH  20  21
ATOM     21  C   UNL     1      -1.242  12.245  18.175  0.00  0.00    +0.000 C 
ATOM     22  O   UNL     1      -0.641  13.304  18.251  0.00  0.00    +0.000 OA
BRANCH  21  23
ATOM     23  O   UNL     1      -2.411  12.120  17.503  0.00  0.00    +0.000 OA
ATOM     24  H   UNL     1      -3.192  12.387  18.019  0.00  0.00    +0.000 HD
ENDBRANCH  21  23
ENDBRANCH  20  21
ENDBRANCH  19  20
ENDBRANCH  18  19
ENDBRANCH  17  18
ENDBRANCH  16  17
ENDBRANCH  15  16
ENDBRANCH   2  15
TORSDOF 12
ENDMDL
MODEL 8
REMARK VINA RESULT:      -6.1      3.168      6.085
REMARK  Name = 
REMARK  14 active torsions:
REMARK  status: ('A' for Active; 'I' for Inactive)
REMARK    1  A    between atoms: C_1  and  C_2
REMARK    2  A    between atoms: C_2  and  C_3
REMARK    3  A    between atoms: C_3  and  C_4
REMARK    4  A    between atoms: C_5  and  O_6
REMARK    5  A    between atoms: O_6  and  C_7
REMARK    6  A    between atoms: C_7  and  C_8
REMARK    7  A    between atoms: C_8  and  C_9
REMARK    8  A    between atoms: C_9  and  C_10
REMARK    9  A    between atoms: C_10  and  C_11
REMARK   10  A    between atoms: C_11  and  C_12
REMARK   11  A    between atoms: C_12  and  O_14
REMARK   12  A    between atoms: C_17  and  O_18
REMARK   13  A    between atoms: C_19  and  C_20
REMARK   14  A    between atoms: C_20  and  C_21
REMARK                            x       y       z     vdW  Elec       q    Type
REMARK                         _______ _______ _______ _____ _____    ______ ____
ROOT
ATOM      1  C   UNL     1       2.958   5.142  18.452  0.00  0.00    +0.000 A 
ATOM      2  C   UNL     1       3.322   6.480  18.144  0.00  0.00    +0.000 A 
ATOM      3  C   UNL     1       4.322   6.738  17.201  0.00  0.00    +0.000 A 
ATOM      4  C   UNL     1       5.051   5.707  16.630  0.00  0.00    +0.000 A 
ATOM      5  C   UNL     1       4.770   4.392  16.979  0.00  0.00    +0.000 A 
ATOM      6  C   UNL     1       3.732   4.086  17.883  0.00  0.00    +0.000 A 
ENDROOT
BRANCH   6   7
ATOM      7  C   UNL     1       3.458   2.641  18.182  0.00  0.00    +0.000 C 
ATOM      8  C   UNL     1       4.161   1.972  19.340  0.00  0.00    +0.000 C 
ATOM      9  O   UNL     1       2.683   1.985  17.477  0.00  0.00    +0.000 OA
ENDBRANCH   6   7
BRANCH   5  10
ATOM     10  O   UNL     1       5.495   3.403  16.374  0.00  0.00    +0.000 OA
ATOM     11  H   UNL     1       6.305   3.779  15.993  0.00  0.00    +0.000 HD
ENDBRANCH   5  10
BRANCH   1  12
ATOM     12  C   UNL     1       1.753   4.868  19.342  0.00  0.00    +0.000 C 
BRANCH  12  14
ATOM     13  C   UNL     1       1.524   3.388  21.380  0.00  0.00    +0.000 C 
ATOM     14  C   UNL     1       2.082   4.697  20.827  0.00  0.00    +0.000 C 
ENDBRANCH  12  14
ENDBRANCH   1  12
BRANCH   2  15
ATOM     15  O   UNL     1       2.644   7.519  18.746  0.00  0.00    +0.000 OA
BRANCH  15  16
ATOM     16  C   UNL     1       1.835   8.326  17.866  0.00  0.00    +0.000 C 
BRANCH  16  17
ATOM     17  C   UNL     1       1.657   9.755  18.401  0.00  0.00    +0.000 C 
BRANCH  17  18
ATOM     18  C   UNL     1       0.295   9.944  19.071  0.00  0.00    +0.000 C 
BRANCH  18  19
ATOM     19  C   UNL     1       0.320   9.576  20.557  0.00  0.00    +0.000 C 
BRANCH  19  20
ATOM     20  C   UNL     1      -0.091  10.774  21.416  0.00  0.00    +0.000 C 
BRANCH  20  21
ATOM     21  C   UNL     1      -0.380  10.389  22.847  0.00  0.00    +0.000 C 
ATOM     22  O   UNL     1       0.349   9.725  23.564  0.00  0.00    +0.000 OA
BRANCH  21  23
ATOM     23  O   UNL     1      -1.577  10.863  23.269  0.00  0.00    +0.000 OA
ATOM     24  H   UNL     1      -2.039  11.409  22.608  0.00  0.00    +0.000 HD
ENDBRANCH  21  23
ENDBRANCH  20  21
ENDBRANCH  19  20
ENDBRANCH  18  19
ENDBRANCH  17  18
ENDBRANCH  16  17
ENDBRANCH  15  16
ENDBRANCH   2  15
TORSDOF 12
ENDMDL
MODEL 9
REMARK VINA RESULT:      -6.1      3.384      6.406
REMARK  Name = 
REMARK  14 active torsions:
REMARK  status: ('A' for Active; 'I' for Inactive)
REMARK    1  A    between atoms: C_1  and  C_2
REMARK    2  A    between atoms: C_2  and  C_3
REMARK    3  A    between atoms: C_3  and  C_4
REMARK    4  A    between atoms: C_5  and  O_6
REMARK    5  A    between atoms: O_6  and  C_7
REMARK    6  A    between atoms: C_7  and  C_8
REMARK    7  A    between atoms: C_8  and  C_9
REMARK    8  A    between atoms: C_9  and  C_10
REMARK    9  A    between atoms: C_10  and  C_11
REMARK   10  A    between atoms: C_11  and  C_12
REMARK   11  A    between atoms: C_12  and  O_14
REMARK   12  A    between atoms: C_17  and  O_18
REMARK   13  A    between atoms: C_19  and  C_20
REMARK   14  A    between atoms: C_20  and  C_21
REMARK                            x       y       z     vdW  Elec       q    Type
REMARK                         _______ _______ _______ _____ _____    ______ ____
ROOT
ATOM      1  C   UNL     1       1.406   8.424  20.559  0.00  0.00    +0.000 A 
ATOM      2  C   UNL     1       1.901   7.142  20.198  0.00  0.00    +0.000 A 
ATOM      3  C   UNL     1       2.409   6.921  18.914  0.00  0.00    +0.000 A 
ATOM      4  C   UNL     1       2.342   7.902  17.938  0.00  0.00    +0.000 A 
ATOM      5  C   UNL     1       1.785   9.137  18.243  0.00  0.00    +0.000 A 
ATOM      6  C   UNL     1       1.313   9.421  19.541  0.00  0.00    +0.000 A 
ENDROOT
BRANCH   6   7
ATOM      7  C   UNL     1       0.762  10.791  19.810  0.00  0.00    +0.000 C 
ATOM      8  C   UNL     1      -0.672  11.102  19.447  0.00  0.00    +0.000 C 
ATOM      9  O   UNL     1       1.473  11.674  20.300  0.00  0.00    +0.000 OA
ENDBRANCH   6   7
BRANCH   5  10
ATOM     10  O   UNL     1       1.761  10.087  17.259  0.00  0.00    +0.000 OA
ATOM     11  H   UNL     1       1.880   9.662  16.394  0.00  0.00    +0.000 HD
ENDBRANCH   5  10
BRANCH   1  12
ATOM     12  C   UNL     1       1.021   8.710  22.004  0.00  0.00    +0.000 C 
BRANCH  12  14
ATOM     13  C   UNL     1      -0.808  10.043  23.135  0.00  0.00    +0.000 C 
ATOM     14  C   UNL     1      -0.485   8.842  22.250  0.00  0.00    +0.000 C 
ENDBRANCH  12  14
ENDBRANCH   1  12
BRANCH   2  15
ATOM     15  O   UNL     1       1.922   6.138  21.142  0.00  0.00    +0.000 OA
BRANCH  15  16
ATOM     16  C   UNL     1       2.397   4.858  20.678  0.00  0.00    +0.000 C 
BRANCH  16  17
ATOM     17  C   UNL     1       1.307   3.780  20.752  0.00  0.00    +0.000 C 
BRANCH  17  18
ATOM     18  C   UNL     1       0.857   3.331  19.360  0.00  0.00    +0.000 C 
BRANCH  18  19
ATOM     19  C   UNL     1       1.790   2.274  18.760  0.00  0.00    +0.000 C 
BRANCH  19  20
ATOM     20  C   UNL     1       2.431   2.792  17.470  0.00  0.00    +0.000 C 
BRANCH  20  21
ATOM     21  C   UNL     1       3.842   3.288  17.684  0.00  0.00    +0.000 C 
ATOM     22  O   UNL     1       4.370   4.207  17.080  0.00  0.00    +0.000 OA
BRANCH  21  23
ATOM     23  O   UNL     1       4.490   2.579  18.639  0.00  0.00    +0.000 OA
ATOM     24  H   UNL     1       4.258   1.634  18.653  0.00  0.00    +0.000 HD
ENDBRANCH  21  23
ENDBRANCH  20  21
ENDBRANCH  19  20
ENDBRANCH  18  19
ENDBRANCH  17  18
ENDBRANCH  16  17
ENDBRANCH  15  16
ENDBRANCH   2  15
TORSDOF 12
ENDMDL
