MODEL 1
REMARK VINA RESULT:      -8.5      0.000      0.000
REMARK  Name = 
REMARK  3 active torsions:
REMARK  status: ('A' for Active; 'I' for Inactive)
REMARK    1  A    between atoms: C_1  and  N_2
REMARK    2  A    between atoms: N_2  and  C_18
REMARK    3  A    between atoms: C_9  and  C_10
REMARK                            x       y       z     vdW  Elec       q    Type
REMARK                         _______ _______ _______ _____ _____    ______ ____
ROOT
ATOM      1  C   UNL     1       1.104  12.771  20.986  0.00  0.00    +0.000 C 
ATOM      2  N   UNL     1       0.238  12.260  19.925  0.00  0.00    +0.000 N 
ATOM      3  C   UNL     1       0.499  11.042  19.287  0.00  0.00    +0.000 C 
ATOM      4  O   UNL     1      -0.031  10.731  18.223  0.00  0.00    +0.000 OA
ATOM      5  N   UNL     1       1.333  10.211  19.989  0.00  0.00    +0.000 N 
ATOM      6  C   UNL     1       1.648   8.921  19.569  0.00  0.00    +0.000 A 
ATOM      7  C   UNL     1       1.902   8.571  18.248  0.00  0.00    +0.000 A 
ATOM      8  N   UNL     1       2.181   7.297  17.870  0.00  0.00    +0.000 NA
ATOM      9  C   UNL     1       2.172   6.359  18.854  0.00  0.00    +0.000 A 
ATOM     10  C   UNL     1       1.908   6.736  20.172  0.00  0.00    +0.000 A 
ATOM     11  N   UNL     1       1.685   8.015  20.564  0.00  0.00    +0.000 NA
ATOM     12  H   UNL     1       1.252  10.257  20.992  0.00  0.00    +0.000 HD
ENDROOT
BRANCH   2  13
ATOM     13  C   UNL     1      -0.904  13.062  19.419  0.00  0.00    +0.000 C 
ATOM     14  C   UNL     1      -2.239  12.291  19.513  0.00  0.00    +0.000 C 
ATOM     15  C   UNL     1      -2.776  12.246  20.936  0.00  0.00    +0.000 C 
ATOM     16  C   UNL     1      -2.990  13.645  21.554  0.00  0.00    +0.000 C 
ATOM     17  C   UNL     1      -1.677  14.448  21.457  0.00  0.00    +0.000 C 
ATOM     18  C   UNL     1      -1.087  14.462  20.040  0.00  0.00    +0.000 C 
ATOM     19  C   UNL     1      -4.118  14.482  20.924  0.00  0.00    +0.000 C 
ATOM     20  C   UNL     1      -5.449  13.901  21.253  0.00  0.00    +0.000 A 
ATOM     21  C   UNL     1      -6.564  14.157  20.471  0.00  0.00    +0.000 A 
ATOM     22  N   UNL     1      -7.789  13.663  20.742  0.00  0.00    +0.000 NA
ATOM     23  C   UNL     1      -7.914  12.889  21.844  0.00  0.00    +0.000 A 
ATOM     24  C   UNL     1      -6.867  12.590  22.698  0.00  0.00    +0.000 A 
ATOM     25  C   UNL     1      -5.618  13.123  22.398  0.00  0.00    +0.000 A 
ATOM     26  C   UNL     1      -4.472  12.873  23.315  0.00  0.00    +0.000 C 
ATOM     27  O   UNL     1      -4.601  12.225  24.343  0.00  0.00    +0.000 OA
ATOM     28  O   UNL     1      -3.289  13.452  22.962  0.00  0.00    +0.000 OA
ENDBRANCH   2  13
BRANCH   9  29
ATOM     29  C   UNL     1       2.455   4.970  18.450  0.00  0.00    +0.000 A 
ATOM     30  C   UNL     1       3.666   4.600  17.832  0.00  0.00    +0.000 A 
ATOM     31  C   UNL     1       3.913   3.283  17.439  0.00  0.00    +0.000 A 
ATOM     32  C   UNL     1       2.953   2.296  17.662  0.00  0.00    +0.000 A 
ATOM     33  C   UNL     1       1.746   2.631  18.267  0.00  0.00    +0.000 A 
ATOM     34  C   UNL     1       1.503   3.950  18.659  0.00  0.00    +0.000 A 
ENDBRANCH   9  29
TORSDOF 2
ENDMDL
MODEL 2
REMARK VINA RESULT:      -8.4      2.346      3.136
REMARK  Name = 
REMARK  3 active torsions:
REMARK  status: ('A' for Active; 'I' for Inactive)
REMARK    1  A    between atoms: C_1  and  N_2
REMARK    2  A    between atoms: N_2  and  C_18
REMARK    3  A    between atoms: C_9  and  C_10
REMARK                            x       y       z     vdW  Elec       q    Type
REMARK                         _______ _______ _______ _____ _____    ______ ____
ROOT
ATOM      1  C   UNL     1      -1.880  11.849  19.513  0.00  0.00    +0.000 C 
ATOM      2  N   UNL     1      -0.802  11.760  20.496  0.00  0.00    +0.000 N 
ATOM      3  C   UNL     1       0.159  10.744  20.443  0.00  0.00    +0.000 C 
ATOM      4  O   UNL     1       0.888  10.479  21.395  0.00  0.00    +0.000 OA
ATOM      5  N   UNL     1       0.256  10.131  19.220  0.00  0.00    +0.000 N 
ATOM      6  C   UNL     1       1.208   9.156  18.935  0.00  0.00    +0.000 A 
ATOM      7  C   UNL     1       1.583   8.149  19.817  0.00  0.00    +0.000 A 
ATOM      8  N   UNL     1       2.534   7.228  19.514  0.00  0.00    +0.000 NA
ATOM      9  C   UNL     1       3.135   7.357  18.301  0.00  0.00    +0.000 A 
ATOM     10  C   UNL     1       2.745   8.380  17.437  0.00  0.00    +0.000 A 
ATOM     11  N   UNL     1       1.756   9.268  17.710  0.00  0.00    +0.000 NA
ATOM     12  H   UNL     1       0.090  10.722  18.422  0.00  0.00    +0.000 HD
ENDROOT
BRANCH   2  13
ATOM     13  C   UNL     1      -0.740  12.694  21.648  0.00  0.00    +0.000 C 
ATOM     14  C   UNL     1      -1.634  13.935  21.437  0.00  0.00    +0.000 C 
ATOM     15  C   UNL     1      -3.109  13.622  21.646  0.00  0.00    +0.000 C 
ATOM     16  C   UNL     1      -3.420  13.045  23.044  0.00  0.00    +0.000 C 
ATOM     17  C   UNL     1      -2.526  11.813  23.294  0.00  0.00    +0.000 C 
ATOM     18  C   UNL     1      -1.038  12.091  23.037  0.00  0.00    +0.000 C 
ATOM     19  C   UNL     1      -3.237  14.022  24.220  0.00  0.00    +0.000 C 
ATOM     20  C   UNL     1      -4.286  15.079  24.190  0.00  0.00    +0.000 A 
ATOM     21  C   UNL     1      -4.101  16.301  24.817  0.00  0.00    +0.000 A 
ATOM     22  N   UNL     1      -5.029  17.278  24.827  0.00  0.00    +0.000 NA
ATOM     23  C   UNL     1      -6.199  17.026  24.194  0.00  0.00    +0.000 A 
ATOM     24  C   UNL     1      -6.488  15.833  23.556  0.00  0.00    +0.000 A 
ATOM     25  C   UNL     1      -5.514  14.840  23.573  0.00  0.00    +0.000 A 
ATOM     26  C   UNL     1      -5.798  13.521  22.945  0.00  0.00    +0.000 C 
ATOM     27  O   UNL     1      -6.877  13.274  22.429  0.00  0.00    +0.000 OA
ATOM     28  O   UNL     1      -4.799  12.595  23.027  0.00  0.00    +0.000 OA
ENDBRANCH   2  13
BRANCH   9  29
ATOM     29  C   UNL     1       4.183   6.374  17.973  0.00  0.00    +0.000 A 
ATOM     30  C   UNL     1       4.611   5.397  18.893  0.00  0.00    +0.000 A 
ATOM     31  C   UNL     1       5.617   4.483  18.573  0.00  0.00    +0.000 A 
ATOM     32  C   UNL     1       6.217   4.517  17.315  0.00  0.00    +0.000 A 
ATOM     33  C   UNL     1       5.818   5.472  16.385  0.00  0.00    +0.000 A 
ATOM     34  C   UNL     1       4.811   6.384  16.710  0.00  0.00    +0.000 A 
ENDBRANCH   9  29
TORSDOF 2
ENDMDL
MODEL 3
REMARK VINA RESULT:      -8.2      8.226     11.647
REMARK  Name = 
REMARK  3 active torsions:
REMARK  status: ('A' for Active; 'I' for Inactive)
REMARK    1  A    between atoms: C_1  and  N_2
REMARK    2  A    between atoms: N_2  and  C_18
REMARK    3  A    between atoms: C_9  and  C_10
REMARK                            x       y       z     vdW  Elec       q    Type
REMARK                         _______ _______ _______ _____ _____    ______ ____
ROOT
ATOM      1  C   UNL     1       8.384   6.439  19.785  0.00  0.00    +0.000 C 
ATOM      2  N   UNL     1       7.876   6.936  18.507  0.00  0.00    +0.000 N 
ATOM      3  C   UNL     1       7.994   8.283  18.144  0.00  0.00    +0.000 C 
ATOM      4  O   UNL     1       7.339   8.775  17.229  0.00  0.00    +0.000 OA
ATOM      5  N   UNL     1       8.948   8.970  18.849  0.00  0.00    +0.000 N 
ATOM      6  C   UNL     1       9.279  10.296  18.582  0.00  0.00    +0.000 A 
ATOM      7  C   UNL     1       8.353  11.284  18.269  0.00  0.00    +0.000 A 
ATOM      8  N   UNL     1       8.715  12.563  17.989  0.00  0.00    +0.000 NA
ATOM      9  C   UNL     1      10.048  12.829  17.999  0.00  0.00    +0.000 A 
ATOM     10  C   UNL     1      10.957  11.818  18.311  0.00  0.00    +0.000 A 
ATOM     11  N   UNL     1      10.599  10.554  18.647  0.00  0.00    +0.000 NA
ATOM     12  H   UNL     1       9.760   8.438  19.116  0.00  0.00    +0.000 HD
ENDROOT
BRANCH   2  13
ATOM     13  C   UNL     1       7.132   6.045  17.582  0.00  0.00    +0.000 C 
ATOM     14  C   UNL     1       6.500   4.844  18.318  0.00  0.00    +0.000 C 
ATOM     15  C   UNL     1       5.252   5.240  19.096  0.00  0.00    +0.000 C 
ATOM     16  C   UNL     1       4.161   5.886  18.214  0.00  0.00    +0.000 C 
ATOM     17  C   UNL     1       4.769   7.079  17.448  0.00  0.00    +0.000 C 
ATOM     18  C   UNL     1       6.059   6.716  16.700  0.00  0.00    +0.000 C 
ATOM     19  C   UNL     1       3.492   4.947  17.194  0.00  0.00    +0.000 C 
ATOM     20  C   UNL     1       2.636   3.945  17.888  0.00  0.00    +0.000 A 
ATOM     21  C   UNL     1       2.302   2.740  17.290  0.00  0.00    +0.000 A 
ATOM     22  N   UNL     1       1.519   1.813  17.876  0.00  0.00    +0.000 NA
ATOM     23  C   UNL     1       1.037   2.099  19.108  0.00  0.00    +0.000 A 
ATOM     24  C   UNL     1       1.297   3.280  19.781  0.00  0.00    +0.000 A 
ATOM     25  C   UNL     1       2.099   4.221  19.145  0.00  0.00    +0.000 A 
ATOM     26  C   UNL     1       2.365   5.528  19.806  0.00  0.00    +0.000 C 
ATOM     27  O   UNL     1       1.878   5.810  20.891  0.00  0.00    +0.000 OA
ATOM     28  O   UNL     1       3.139   6.405  19.104  0.00  0.00    +0.000 OA
ENDBRANCH   2  13
BRANCH   9  29
ATOM     29  C   UNL     1      10.450  14.211  17.677  0.00  0.00    +0.000 A 
ATOM     30  C   UNL     1      11.735  14.525  17.194  0.00  0.00    +0.000 A 
ATOM     31  C   UNL     1      12.107  15.841  16.909  0.00  0.00    +0.000 A 
ATOM     32  C   UNL     1      11.195  16.880  17.094  0.00  0.00    +0.000 A 
ATOM     33  C   UNL     1       9.919  16.601  17.574  0.00  0.00    +0.000 A 
ATOM     34  C   UNL     1       9.552  15.284  17.857  0.00  0.00    +0.000 A 
ENDBRANCH   9  29
TORSDOF 2
ENDMDL
MODEL 4
REMARK VINA RESULT:      -8.1      8.721     11.979
REMARK  Name = 
REMARK  3 active torsions:
REMARK  status: ('A' for Active; 'I' for Inactive)
REMARK    1  A    between atoms: C_1  and  N_2
REMARK    2  A    between atoms: N_2  and  C_18
REMARK    3  A    between atoms: C_9  and  C_10
REMARK                            x       y       z     vdW  Elec       q    Type
REMARK                         _______ _______ _______ _____ _____    ______ ____
ROOT
ATOM      1  C   UNL     1       6.826   6.989  16.223  0.00  0.00    +0.000 C 
ATOM      2  N   UNL     1       7.398   7.003  17.567  0.00  0.00    +0.000 N 
ATOM      3  C   UNL     1       8.149   8.088  18.035  0.00  0.00    +0.000 C 
ATOM      4  O   UNL     1       8.868   8.010  19.028  0.00  0.00    +0.000 OA
ATOM      5  N   UNL     1       7.952   9.248  17.330  0.00  0.00    +0.000 N 
ATOM      6  C   UNL     1       8.539  10.460  17.687  0.00  0.00    +0.000 A 
ATOM      7  C   UNL     1       9.846  10.591  18.140  0.00  0.00    +0.000 A 
ATOM      8  N   UNL     1      10.377  11.787  18.504  0.00  0.00    +0.000 NA
ATOM      9  C   UNL     1       9.549  12.863  18.430  0.00  0.00    +0.000 A 
ATOM     10  C   UNL     1       8.240  12.703  17.977  0.00  0.00    +0.000 A 
ATOM     11  N   UNL     1       7.721  11.522  17.559  0.00  0.00    +0.000 NA
ATOM     12  H   UNL     1       7.022   9.386  16.968  0.00  0.00    +0.000 HD
ENDROOT
BRANCH   2  13
ATOM     13  C   UNL     1       7.282   5.823  18.460  0.00  0.00    +0.000 C 
ATOM     14  C   UNL     1       6.105   5.959  19.451  0.00  0.00    +0.000 C 
ATOM     15  C   UNL     1       4.761   5.708  18.782  0.00  0.00    +0.000 C 
ATOM     16  C   UNL     1       4.660   4.320  18.113  0.00  0.00    +0.000 C 
ATOM     17  C   UNL     1       5.836   4.145  17.131  0.00  0.00    +0.000 C 
ATOM     18  C   UNL     1       7.200   4.446  17.768  0.00  0.00    +0.000 C 
ATOM     19  C   UNL     1       4.651   3.119  19.076  0.00  0.00    +0.000 C 
ATOM     20  C   UNL     1       3.377   3.074  19.846  0.00  0.00    +0.000 A 
ATOM     21  C   UNL     1       3.287   2.413  21.061  0.00  0.00    +0.000 A 
ATOM     22  N   UNL     1       2.151   2.336  21.781  0.00  0.00    +0.000 NA
ATOM     23  C   UNL     1       1.051   2.934  21.268  0.00  0.00    +0.000 A 
ATOM     24  C   UNL     1       1.033   3.602  20.056  0.00  0.00    +0.000 A 
ATOM     25  C   UNL     1       2.219   3.655  19.331  0.00  0.00    +0.000 A 
ATOM     26  C   UNL     1       2.236   4.317  17.998  0.00  0.00    +0.000 C 
ATOM     27  O   UNL     1       1.227   4.802  17.508  0.00  0.00    +0.000 OA
ATOM     28  O   UNL     1       3.431   4.302  17.341  0.00  0.00    +0.000 OA
ENDBRANCH   2  13
BRANCH   9  29
ATOM     29  C   UNL     1      10.113  14.162  18.841  0.00  0.00    +0.000 A 
ATOM     30  C   UNL     1       9.582  15.386  18.391  0.00  0.00    +0.000 A 
ATOM     31  C   UNL     1      10.138  16.608  18.776  0.00  0.00    +0.000 A 
ATOM     32  C   UNL     1      11.238  16.637  19.631  0.00  0.00    +0.000 A 
ATOM     33  C   UNL     1      11.787  15.443  20.090  0.00  0.00    +0.000 A 
ATOM     34  C   UNL     1      11.228  14.223  19.703  0.00  0.00    +0.000 A 
ENDBRANCH   9  29
TORSDOF 2
ENDMDL
MODEL 5
REMARK VINA RESULT:      -7.9      1.141      1.314
REMARK  Name = 
REMARK  3 active torsions:
REMARK  status: ('A' for Active; 'I' for Inactive)
REMARK    1  A    between atoms: C_1  and  N_2
REMARK    2  A    between atoms: N_2  and  C_18
REMARK    3  A    between atoms: C_9  and  C_10
REMARK                            x       y       z     vdW  Elec       q    Type
REMARK                         _______ _______ _______ _____ _____    ______ ____
ROOT
ATOM      1  C   UNL     1       0.587  12.517  21.282  0.00  0.00    +0.000 C 
ATOM      2  N   UNL     1      -0.129  11.987  20.123  0.00  0.00    +0.000 N 
ATOM      3  C   UNL     1       0.279  10.812  19.482  0.00  0.00    +0.000 C 
ATOM      4  O   UNL     1      -0.117  10.505  18.360  0.00  0.00    +0.000 OA
ATOM      5  N   UNL     1       1.093  10.014  20.243  0.00  0.00    +0.000 N 
ATOM      6  C   UNL     1       1.537   8.763  19.822  0.00  0.00    +0.000 A 
ATOM      7  C   UNL     1       1.948   8.476  18.525  0.00  0.00    +0.000 A 
ATOM      8  N   UNL     1       2.351   7.237  18.143  0.00  0.00    +0.000 NA
ATOM      9  C   UNL     1       2.306   6.267  19.095  0.00  0.00    +0.000 A 
ATOM     10  C   UNL     1       1.885   6.580  20.387  0.00  0.00    +0.000 A 
ATOM     11  N   UNL     1       1.535   7.827  20.790  0.00  0.00    +0.000 NA
ATOM     12  H   UNL     1       0.907  10.020  21.233  0.00  0.00    +0.000 HD
ENDROOT
BRANCH   2  13
ATOM     13  C   UNL     1      -1.266  12.729  19.523  0.00  0.00    +0.000 C 
ATOM     14  C   UNL     1      -2.618  12.319  20.146  0.00  0.00    +0.000 C 
ATOM     15  C   UNL     1      -2.822  12.928  21.526  0.00  0.00    +0.000 C 
ATOM     16  C   UNL     1      -2.745  14.470  21.532  0.00  0.00    +0.000 C 
ATOM     17  C   UNL     1      -1.411  14.913  20.896  0.00  0.00    +0.000 C 
ATOM     18  C   UNL     1      -1.158  14.268  19.526  0.00  0.00    +0.000 C 
ATOM     19  C   UNL     1      -3.892  15.194  20.804  0.00  0.00    +0.000 C 
ATOM     20  C   UNL     1      -5.168  15.045  21.558  0.00  0.00    +0.000 A 
ATOM     21  C   UNL     1      -6.398  15.183  20.934  0.00  0.00    +0.000 A 
ATOM     22  N   UNL     1      -7.574  15.070  21.582  0.00  0.00    +0.000 NA
ATOM     23  C   UNL     1      -7.528  14.819  22.911  0.00  0.00    +0.000 A 
ATOM     24  C   UNL     1      -6.352  14.684  23.628  0.00  0.00    +0.000 A 
ATOM     25  C   UNL     1      -5.154  14.816  22.933  0.00  0.00    +0.000 A 
ATOM     26  C   UNL     1      -3.863  14.730  23.670  0.00  0.00    +0.000 C 
ATOM     27  O   UNL     1      -3.824  14.566  24.880  0.00  0.00    +0.000 OA
ATOM     28  O   UNL     1      -2.737  14.896  22.919  0.00  0.00    +0.000 OA
ENDBRANCH   2  13
BRANCH   9  29
ATOM     29  C   UNL     1       2.725   4.915  18.683  0.00  0.00    +0.000 A 
ATOM     30  C   UNL     1       1.974   4.140  17.777  0.00  0.00    +0.000 A 
ATOM     31  C   UNL     1       2.374   2.854  17.409  0.00  0.00    +0.000 A 
ATOM     32  C   UNL     1       3.546   2.310  17.935  0.00  0.00    +0.000 A 
ATOM     33  C   UNL     1       4.307   3.050  18.835  0.00  0.00    +0.000 A 
ATOM     34  C   UNL     1       3.903   4.336  19.199  0.00  0.00    +0.000 A 
ENDBRANCH   9  29
TORSDOF 2
ENDMDL
MODEL 6
REMARK VINA RESULT:      -7.8      4.182      7.585
REMARK  Name = 
REMARK  3 active torsions:
REMARK  status: ('A' for Active; 'I' for Inactive)
REMARK    1  A    between atoms: C_1  and  N_2
REMARK    2  A    between atoms: N_2  and  C_18
REMARK    3  A    between atoms: C_9  and  C_10
REMARK                            x       y       z     vdW  Elec       q    Type
REMARK                         _______ _______ _______ _____ _____    ______ ____
ROOT
ATOM      1  C   UNL     1      -0.329  13.200  18.413  0.00  0.00    +0.000 C 
ATOM      2  N   UNL     1       0.568  13.050  19.558  0.00  0.00    +0.000 N 
ATOM      3  C   UNL     1       0.952  11.788  20.029  0.00  0.00    +0.000 C 
ATOM      4  O   UNL     1       1.459  11.627  21.136  0.00  0.00    +0.000 OA
ATOM      5  N   UNL     1       0.778  10.776  19.121  0.00  0.00    +0.000 N 
ATOM      6  C   UNL     1       1.177   9.464  19.362  0.00  0.00    +0.000 A 
ATOM      7  C   UNL     1       1.028   8.815  20.582  0.00  0.00    +0.000 A 
ATOM      8  N   UNL     1       1.452   7.541  20.789  0.00  0.00    +0.000 NA
ATOM      9  C   UNL     1       2.067   6.932  19.741  0.00  0.00    +0.000 A 
ATOM     10  C   UNL     1       2.209   7.608  18.528  0.00  0.00    +0.000 A 
ATOM     11  N   UNL     1       1.737   8.858  18.298  0.00  0.00    +0.000 NA
ATOM     12  H   UNL     1       0.918  11.028  18.155  0.00  0.00    +0.000 HD
ENDROOT
BRANCH   2  13
ATOM     13  C   UNL     1       1.034  14.232  20.325  0.00  0.00    +0.000 C 
ATOM     14  C   UNL     1       2.456  14.032  20.891  0.00  0.00    +0.000 C 
ATOM     15  C   UNL     1       3.527  14.183  19.819  0.00  0.00    +0.000 C 
ATOM     16  C   UNL     1       3.488  15.552  19.106  0.00  0.00    +0.000 C 
ATOM     17  C   UNL     1       2.070  15.791  18.545  0.00  0.00    +0.000 C 
ATOM     18  C   UNL     1       0.969  15.590  19.596  0.00  0.00    +0.000 C 
ATOM     19  C   UNL     1       3.876  16.763  19.973  0.00  0.00    +0.000 C 
ATOM     20  C   UNL     1       5.330  16.734  20.292  0.00  0.00    +0.000 A 
ATOM     21  C   UNL     1       5.844  17.405  21.391  0.00  0.00    +0.000 A 
ATOM     22  N   UNL     1       7.154  17.416  21.707  0.00  0.00    +0.000 NA
ATOM     23  C   UNL     1       7.994  16.739  20.889  0.00  0.00    +0.000 A 
ATOM     24  C   UNL     1       7.582  16.054  19.759  0.00  0.00    +0.000 A 
ATOM     25  C   UNL     1       6.226  16.071  19.454  0.00  0.00    +0.000 A 
ATOM     26  C   UNL     1       5.742  15.392  18.220  0.00  0.00    +0.000 C 
ATOM     27  O   UNL     1       6.509  14.834  17.450  0.00  0.00    +0.000 OA
ATOM     28  O   UNL     1       4.402  15.477  17.980  0.00  0.00    +0.000 OA
ENDBRANCH   2  13
BRANCH   9  29
ATOM     29  C   UNL     1       2.548   5.556  19.963  0.00  0.00    +0.000 A 
ATOM     30  C   UNL     1       3.699   5.051  19.328  0.00  0.00    +0.000 A 
ATOM     31  C   UNL     1       4.132   3.740  19.535  0.00  0.00    +0.000 A 
ATOM     32  C   UNL     1       3.427   2.899  20.395  0.00  0.00    +0.000 A 
ATOM     33  C   UNL     1       2.283   3.368  21.035  0.00  0.00    +0.000 A 
ATOM     34  C   UNL     1       1.854   4.680  20.825  0.00  0.00    +0.000 A 
ENDBRANCH   9  29
TORSDOF 2
ENDMDL
MODEL 7
REMARK VINA RESULT:      -7.8      4.217     11.503
REMARK  Name = 
REMARK  3 active torsions:
REMARK  status: ('A' for Active; 'I' for Inactive)
REMARK    1  A    between atoms: C_1  and  N_2
REMARK    2  A    between atoms: N_2  and  C_18
REMARK    3  A    between atoms: C_9  and  C_10
REMARK                            x       y       z     vdW  Elec       q    Type
REMARK                         _______ _______ _______ _____ _____    ______ ____
ROOT
ATOM      1  C   UNL     1       1.826   8.108  21.187  0.00  0.00    +0.000 C 
ATOM      2  N   UNL     1       1.477   8.290  19.779  0.00  0.00    +0.000 N 
ATOM      3  C   UNL     1       1.051   9.527  19.282  0.00  0.00    +0.000 C 
ATOM      4  O   UNL     1       0.489   9.640  18.195  0.00  0.00    +0.000 OA
ATOM      5  N   UNL     1       1.380  10.593  20.079  0.00  0.00    +0.000 N 
ATOM      6  C   UNL     1       1.123  11.914  19.722  0.00  0.00    +0.000 A 
ATOM      7  C   UNL     1      -0.044  12.342  19.100  0.00  0.00    +0.000 A 
ATOM      8  N   UNL     1      -0.251  13.636  18.743  0.00  0.00    +0.000 NA
ATOM      9  C   UNL     1       0.765  14.502  18.999  0.00  0.00    +0.000 A 
ATOM     10  C   UNL     1       1.929  14.046  19.620  0.00  0.00    +0.000 A 
ATOM     11  N   UNL     1       2.118  12.768  20.030  0.00  0.00    +0.000 NA
ATOM     12  H   UNL     1       2.253  10.513  20.575  0.00  0.00    +0.000 HD
ENDROOT
BRANCH   2  13
ATOM     13  C   UNL     1       1.474   7.142  18.838  0.00  0.00    +0.000 C 
ATOM     14  C   UNL     1       2.424   7.370  17.643  0.00  0.00    +0.000 C 
ATOM     15  C   UNL     1       3.885   7.177  18.027  0.00  0.00    +0.000 C 
ATOM     16  C   UNL     1       4.184   5.779  18.612  0.00  0.00    +0.000 C 
ATOM     17  C   UNL     1       3.234   5.513  19.798  0.00  0.00    +0.000 C 
ATOM     18  C   UNL     1       1.759   5.754  19.449  0.00  0.00    +0.000 C 
ATOM     19  C   UNL     1       4.063   4.606  17.622  0.00  0.00    +0.000 C 
ATOM     20  C   UNL     1       5.161   4.653  16.617  0.00  0.00    +0.000 A 
ATOM     21  C   UNL     1       5.043   4.031  15.385  0.00  0.00    +0.000 A 
ATOM     22  N   UNL     1       6.018   4.036  14.454  0.00  0.00    +0.000 NA
ATOM     23  C   UNL     1       7.167   4.681  14.765  0.00  0.00    +0.000 A 
ATOM     24  C   UNL     1       7.389   5.317  15.974  0.00  0.00    +0.000 A 
ATOM     25  C   UNL     1       6.368   5.284  16.918  0.00  0.00    +0.000 A 
ATOM     26  C   UNL     1       6.580   5.909  18.252  0.00  0.00    +0.000 C 
ATOM     27  O   UNL     1       7.641   6.436  18.554  0.00  0.00    +0.000 OA
ATOM     28  O   UNL     1       5.540   5.810  19.128  0.00  0.00    +0.000 OA
ENDBRANCH   2  13
BRANCH   9  29
ATOM     29  C   UNL     1       0.557  15.905  18.598  0.00  0.00    +0.000 A 
ATOM     30  C   UNL     1      -0.713  16.514  18.628  0.00  0.00    +0.000 A 
ATOM     31  C   UNL     1      -0.898  17.839  18.228  0.00  0.00    +0.000 A 
ATOM     32  C   UNL     1       0.190  18.596  17.793  0.00  0.00    +0.000 A 
ATOM     33  C   UNL     1       1.457  18.021  17.749  0.00  0.00    +0.000 A 
ATOM     34  C   UNL     1       1.637  16.695  18.150  0.00  0.00    +0.000 A 
ENDBRANCH   9  29
TORSDOF 2
ENDMDL
MODEL 8
REMARK VINA RESULT:      -7.6      1.466      1.539
REMARK  Name = 
REMARK  3 active torsions:
REMARK  status: ('A' for Active; 'I' for Inactive)
REMARK    1  A    between atoms: C_1  and  N_2
REMARK    2  A    between atoms: N_2  and  C_18
REMARK    3  A    between atoms: C_9  and  C_10
REMARK                            x       y       z     vdW  Elec       q    Type
REMARK                         _______ _______ _______ _____ _____    ______ ____
ROOT
ATOM      1  C   UNL     1       0.290  12.663  21.531  0.00  0.00    +0.000 C 
ATOM      2  N   UNL     1      -0.349  12.221  20.293  0.00  0.00    +0.000 N 
ATOM      3  C   UNL     1       0.142  11.133  19.560  0.00  0.00    +0.000 C 
ATOM      4  O   UNL     1      -0.189  10.922  18.396  0.00  0.00    +0.000 OA
ATOM      5  N   UNL     1       0.958  10.299  20.279  0.00  0.00    +0.000 N 
ATOM      6  C   UNL     1       1.479   9.116  19.761  0.00  0.00    +0.000 A 
ATOM      7  C   UNL     1       1.960   8.977  18.464  0.00  0.00    +0.000 A 
ATOM      8  N   UNL     1       2.437   7.801  17.983  0.00  0.00    +0.000 NA
ATOM      9  C   UNL     1       2.396   6.740  18.832  0.00  0.00    +0.000 A 
ATOM     10  C   UNL     1       1.904   6.905  20.127  0.00  0.00    +0.000 A 
ATOM     11  N   UNL     1       1.478   8.089  20.632  0.00  0.00    +0.000 NA
ATOM     12  H   UNL     1       0.729  10.199  21.255  0.00  0.00    +0.000 HD
ENDROOT
BRANCH   2  13
ATOM     13  C   UNL     1      -1.492  12.970  19.713  0.00  0.00    +0.000 C 
ATOM     14  C   UNL     1      -2.816  12.664  20.447  0.00  0.00    +0.000 C 
ATOM     15  C   UNL     1      -2.905  13.375  21.790  0.00  0.00    +0.000 C 
ATOM     16  C   UNL     1      -2.765  14.909  21.680  0.00  0.00    +0.000 C 
ATOM     17  C   UNL     1      -1.459  15.247  20.932  0.00  0.00    +0.000 C 
ATOM     18  C   UNL     1      -1.322  14.499  19.599  0.00  0.00    +0.000 C 
ATOM     19  C   UNL     1      -3.928  15.632  20.975  0.00  0.00    +0.000 C 
ATOM     20  C   UNL     1      -5.156  15.592  21.816  0.00  0.00    +0.000 A 
ATOM     21  C   UNL     1      -6.418  15.741  21.262  0.00  0.00    +0.000 A 
ATOM     22  N   UNL     1      -7.553  15.726  21.988  0.00  0.00    +0.000 NA
ATOM     23  C   UNL     1      -7.430  15.565  23.326  0.00  0.00    +0.000 A 
ATOM     24  C   UNL     1      -6.216  15.427  23.976  0.00  0.00    +0.000 A 
ATOM     25  C   UNL     1      -5.062  15.458  23.200  0.00  0.00    +0.000 A 
ATOM     26  C   UNL     1      -3.730  15.365  23.860  0.00  0.00    +0.000 C 
ATOM     27  O   UNL     1      -3.619  15.283  25.074  0.00  0.00    +0.000 OA
ATOM     28  O   UNL     1      -2.649  15.429  23.030  0.00  0.00    +0.000 OA
ENDBRANCH   2  13
BRANCH   9  29
ATOM     29  C   UNL     1       2.895   5.454  18.312  0.00  0.00    +0.000 A 
ATOM     30  C   UNL     1       4.271   5.173  18.198  0.00  0.00    +0.000 A 
ATOM     31  C   UNL     1       4.729   3.957  17.687  0.00  0.00    +0.000 A 
ATOM     32  C   UNL     1       3.817   2.982  17.282  0.00  0.00    +0.000 A 
ATOM     33  C   UNL     1       2.451   3.231  17.379  0.00  0.00    +0.000 A 
ATOM     34  C   UNL     1       1.999   4.449  17.892  0.00  0.00    +0.000 A 
ENDBRANCH   9  29
TORSDOF 2
ENDMDL
MODEL 9
REMARK VINA RESULT:      -7.5      6.059      7.091
REMARK  Name = 
REMARK  3 active torsions:
REMARK  status: ('A' for Active; 'I' for Inactive)
REMARK    1  A    between atoms: C_1  and  N_2
REMARK    2  A    between atoms: N_2  and  C_18
REMARK    3  A    between atoms: C_9  and  C_10
REMARK                            x       y       z     vdW  Elec       q    Type
REMARK                         _______ _______ _______ _____ _____    ______ ____
ROOT
ATOM      1  C   UNL     1       2.135  17.320  19.663  0.00  0.00    +0.000 C 
ATOM      2  N   UNL     1       2.070  15.968  19.111  0.00  0.00    +0.000 N 
ATOM      3  C   UNL     1       3.221  15.291  18.690  0.00  0.00    +0.000 C 
ATOM      4  O   UNL     1       3.171  14.294  17.974  0.00  0.00    +0.000 OA
ATOM      5  N   UNL     1       4.386  15.796  19.206  0.00  0.00    +0.000 N 
ATOM      6  C   UNL     1       5.631  15.213  18.979  0.00  0.00    +0.000 A 
ATOM      7  C   UNL     1       6.035  14.686  17.758  0.00  0.00    +0.000 A 
ATOM      8  N   UNL     1       7.248  14.102  17.580  0.00  0.00    +0.000 NA
ATOM      9  C   UNL     1       8.050  14.028  18.675  0.00  0.00    +0.000 A 
ATOM     10  C   UNL     1       7.618  14.560  19.891  0.00  0.00    +0.000 A 
ATOM     11  N   UNL     1       6.432  15.195  20.062  0.00  0.00    +0.000 NA
ATOM     12  H   UNL     1       4.324  16.170  20.139  0.00  0.00    +0.000 HD
ENDROOT
BRANCH   2  13
ATOM     13  C   UNL     1       0.766  15.295  18.889  0.00  0.00    +0.000 C 
ATOM     14  C   UNL     1       0.465  14.242  19.978  0.00  0.00    +0.000 C 
ATOM     15  C   UNL     1       0.023  14.881  21.287  0.00  0.00    +0.000 C 
ATOM     16  C   UNL     1      -1.223  15.780  21.138  0.00  0.00    +0.000 C 
ATOM     17  C   UNL     1      -0.961  16.833  20.041  0.00  0.00    +0.000 C 
ATOM     18  C   UNL     1      -0.461  16.216  18.727  0.00  0.00    +0.000 C 
ATOM     19  C   UNL     1      -2.534  15.047  20.802  0.00  0.00    +0.000 C 
ATOM     20  C   UNL     1      -2.996  14.239  21.964  0.00  0.00    +0.000 A 
ATOM     21  C   UNL     1      -3.848  13.158  21.803  0.00  0.00    +0.000 A 
ATOM     22  N   UNL     1      -4.300  12.410  22.829  0.00  0.00    +0.000 NA
ATOM     23  C   UNL     1      -3.896  12.757  24.073  0.00  0.00    +0.000 A 
ATOM     24  C   UNL     1      -3.063  13.829  24.340  0.00  0.00    +0.000 A 
ATOM     25  C   UNL     1      -2.622  14.588  23.262  0.00  0.00    +0.000 A 
ATOM     26  C   UNL     1      -1.766  15.781  23.504  0.00  0.00    +0.000 C 
ATOM     27  O   UNL     1      -1.453  16.130  24.633  0.00  0.00    +0.000 OA
ATOM     28  O   UNL     1      -1.398  16.485  22.395  0.00  0.00    +0.000 OA
ENDBRANCH   2  13
BRANCH   9  29
ATOM     29  C   UNL     1       9.361  13.378  18.495  0.00  0.00    +0.000 A 
ATOM     30  C   UNL     1      10.572  14.041  18.773  0.00  0.00    +0.000 A 
ATOM     31  C   UNL     1      11.806  13.417  18.580  0.00  0.00    +0.000 A 
ATOM     32  C   UNL     1      11.861  12.105  18.111  0.00  0.00    +0.000 A 
ATOM     33  C   UNL     1      10.681  11.425  17.824  0.00  0.00    +0.000 A 
ATOM     34  C   UNL     1       9.449  12.053  18.018  0.00  0.00    +0.000 A 
ENDBRANCH   9  29
TORSDOF 2
ENDMDL
