MODEL 1
REMARK VINA RESULT:      -8.6      0.000      0.000
REMARK  Name = 
REMARK  4 active torsions:
REMARK  status: ('A' for Active; 'I' for Inactive)
REMARK    1  A    between atoms: C_1  and  C_2
REMARK    2  A    between atoms: C_2  and  C_3
REMARK    3  A    between atoms: C_3  and  C_4
REMARK    4  A    between atoms: C_7  and  C_8
REMARK                            x       y       z     vdW  Elec       q    Type
REMARK                         _______ _______ _______ _____ _____    ______ ____
ROOT
ATOM      1  C   UNL     1       3.789   4.618  18.047  0.00  0.00    +0.000 C 
ATOM      2  C   UNL     1       4.918   4.056  18.921  0.00  0.00    +0.000 C 
ATOM      3  O   UNL     1       5.849   4.741  19.350  0.00  0.00    +0.000 OA
ATOM      4  N   UNL     1       4.881   2.726  19.239  0.00  0.00    +0.000 N 
ATOM      5  C   UNL     1       3.976   1.815  18.810  0.00  0.00    +0.000 C 
ATOM      6  O   UNL     1       4.077   0.627  19.095  0.00  0.00    +0.000 OA
ATOM      7  N   UNL     1       2.959   2.277  18.040  0.00  0.00    +0.000 N 
ATOM      8  C   UNL     1       2.769   3.562  17.616  0.00  0.00    +0.000 C 
ATOM      9  O   UNL     1       1.817   3.809  16.872  0.00  0.00    +0.000 OA
ATOM     10  H   UNL     1       5.640   2.378  19.807  0.00  0.00    +0.000 HD
ATOM     11  H   UNL     1       2.294   1.592  17.711  0.00  0.00    +0.000 HD
ENDROOT
BRANCH   1  12
ATOM     12  C   UNL     1       3.048   5.755  18.803  0.00  0.00    +0.000 A 
ATOM     13  C   UNL     1       2.488   5.547  20.072  0.00  0.00    +0.000 A 
ATOM     14  C   UNL     1       1.774   6.554  20.732  0.00  0.00    +0.000 A 
ATOM     15  C   UNL     1       1.615   7.832  20.180  0.00  0.00    +0.000 A 
ATOM     16  C   UNL     1       2.218   8.056  18.933  0.00  0.00    +0.000 A 
ATOM     17  C   UNL     1       2.925   7.045  18.259  0.00  0.00    +0.000 A 
BRANCH  15  18
ATOM     18  C   UNL     1       0.842   8.881  20.888  0.00  0.00    +0.000 A 
ATOM     19  C   UNL     1       0.664   8.840  22.283  0.00  0.00    +0.000 A 
ATOM     20  C   UNL     1      -0.100   9.799  22.955  0.00  0.00    +0.000 A 
ATOM     21  C   UNL     1      -0.692  10.837  22.246  0.00  0.00    +0.000 A 
ATOM     22  C   UNL     1      -0.521  10.914  20.867  0.00  0.00    +0.000 A 
ATOM     23  C   UNL     1       0.232   9.945  20.196  0.00  0.00    +0.000 A 
ENDBRANCH  15  18
ENDBRANCH   1  12
BRANCH   1  25
ATOM     24  C   UNL     1       5.263   4.130  15.937  0.00  0.00    +0.000 C 
ATOM     25  C   UNL     1       4.469   5.155  16.743  0.00  0.00    +0.000 C 
ENDBRANCH   1  25
TORSDOF 3
ENDMDL
MODEL 2
REMARK VINA RESULT:      -8.5      0.113      1.006
REMARK  Name = 
REMARK  4 active torsions:
REMARK  status: ('A' for Active; 'I' for Inactive)
REMARK    1  A    between atoms: C_1  and  C_2
REMARK    2  A    between atoms: C_2  and  C_3
REMARK    3  A    between atoms: C_3  and  C_4
REMARK    4  A    between atoms: C_7  and  C_8
REMARK                            x       y       z     vdW  Elec       q    Type
REMARK                         _______ _______ _______ _____ _____    ______ ____
ROOT
ATOM      1  C   UNL     1       3.753   4.696  18.097  0.00  0.00    +0.000 C 
ATOM      2  C   UNL     1       4.893   4.151  18.967  0.00  0.00    +0.000 C 
ATOM      3  O   UNL     1       5.816   4.849  19.392  0.00  0.00    +0.000 OA
ATOM      4  N   UNL     1       4.874   2.820  19.288  0.00  0.00    +0.000 N 
ATOM      5  C   UNL     1       3.980   1.897  18.864  0.00  0.00    +0.000 C 
ATOM      6  O   UNL     1       4.098   0.711  19.150  0.00  0.00    +0.000 OA
ATOM      7  N   UNL     1       2.955   2.344  18.097  0.00  0.00    +0.000 N 
ATOM      8  C   UNL     1       2.745   3.626  17.671  0.00  0.00    +0.000 C 
ATOM      9  O   UNL     1       1.788   3.859  16.930  0.00  0.00    +0.000 OA
ATOM     10  H   UNL     1       5.640   2.484  19.853  0.00  0.00    +0.000 HD
ATOM     11  H   UNL     1       2.297   1.649  17.771  0.00  0.00    +0.000 HD
ENDROOT
BRANCH   1  12
ATOM     12  C   UNL     1       3.000   5.824  18.853  0.00  0.00    +0.000 A 
ATOM     13  C   UNL     1       2.441   5.609  20.122  0.00  0.00    +0.000 A 
ATOM     14  C   UNL     1       1.716   6.608  20.783  0.00  0.00    +0.000 A 
ATOM     15  C   UNL     1       1.543   7.884  20.231  0.00  0.00    +0.000 A 
ATOM     16  C   UNL     1       2.144   8.116  18.985  0.00  0.00    +0.000 A 
ATOM     17  C   UNL     1       2.862   7.113  18.311  0.00  0.00    +0.000 A 
BRANCH  15  18
ATOM     18  C   UNL     1       0.759   8.924  20.940  0.00  0.00    +0.000 A 
ATOM     19  C   UNL     1       0.261  10.052  20.261  0.00  0.00    +0.000 A 
ATOM     20  C   UNL     1      -0.442  11.060  20.928  0.00  0.00    +0.000 A 
ATOM     21  C   UNL     1      -0.681  10.954  22.293  0.00  0.00    +0.000 A 
ATOM     22  C   UNL     1      -0.217   9.842  22.988  0.00  0.00    +0.000 A 
ATOM     23  C   UNL     1       0.499   8.842  22.321  0.00  0.00    +0.000 A 
ENDBRANCH  15  18
ENDBRANCH   1  12
BRANCH   1  25
ATOM     24  C   UNL     1       5.179   4.211  15.954  0.00  0.00    +0.000 C 
ATOM     25  C   UNL     1       4.421   5.239  16.790  0.00  0.00    +0.000 C 
ENDBRANCH   1  25
TORSDOF 3
ENDMDL
MODEL 3
REMARK VINA RESULT:      -8.5      0.371      1.063
REMARK  Name = 
REMARK  4 active torsions:
REMARK  status: ('A' for Active; 'I' for Inactive)
REMARK    1  A    between atoms: C_1  and  C_2
REMARK    2  A    between atoms: C_2  and  C_3
REMARK    3  A    between atoms: C_3  and  C_4
REMARK    4  A    between atoms: C_7  and  C_8
REMARK                            x       y       z     vdW  Elec       q    Type
REMARK                         _______ _______ _______ _____ _____    ______ ____
ROOT
ATOM      1  C   UNL     1       3.719   4.867  18.202  0.00  0.00    +0.000 C 
ATOM      2  C   UNL     1       4.923   4.458  19.060  0.00  0.00    +0.000 C 
ATOM      3  O   UNL     1       5.796   5.248  19.425  0.00  0.00    +0.000 OA
ATOM      4  N   UNL     1       5.024   3.146  19.438  0.00  0.00    +0.000 N 
ATOM      5  C   UNL     1       4.199   2.134  19.083  0.00  0.00    +0.000 C 
ATOM      6  O   UNL     1       4.423   0.976  19.417  0.00  0.00    +0.000 OA
ATOM      7  N   UNL     1       3.119   2.460  18.329  0.00  0.00    +0.000 N 
ATOM      8  C   UNL     1       2.793   3.699  17.854  0.00  0.00    +0.000 C 
ATOM      9  O   UNL     1       1.800   3.818  17.134  0.00  0.00    +0.000 OA
ATOM     10  H   UNL     1       5.831   2.900  19.994  0.00  0.00    +0.000 HD
ATOM     11  H   UNL     1       2.514   1.699  18.054  0.00  0.00    +0.000 HD
ENDROOT
BRANCH   1  12
ATOM     12  C   UNL     1       2.895   5.963  18.931  0.00  0.00    +0.000 A 
ATOM     13  C   UNL     1       2.731   7.243  18.381  0.00  0.00    +0.000 A 
ATOM     14  C   UNL     1       2.034   8.250  19.059  0.00  0.00    +0.000 A 
ATOM     15  C   UNL     1       1.430   8.021  20.304  0.00  0.00    +0.000 A 
ATOM     16  C   UNL     1       1.551   6.727  20.831  0.00  0.00    +0.000 A 
ATOM     17  C   UNL     1       2.260   5.716  20.160  0.00  0.00    +0.000 A 
BRANCH  15  18
ATOM     18  C   UNL     1       0.709   9.105  21.014  0.00  0.00    +0.000 A 
ATOM     19  C   UNL     1       0.340   8.971  22.366  0.00  0.00    +0.000 A 
ATOM     20  C   UNL     1      -0.379   9.967  23.033  0.00  0.00    +0.000 A 
ATOM     21  C   UNL     1      -0.730  11.135  22.367  0.00  0.00    +0.000 A 
ATOM     22  C   UNL     1      -0.364  11.304  21.035  0.00  0.00    +0.000 A 
ATOM     23  C   UNL     1       0.342  10.298  20.366  0.00  0.00    +0.000 A 
ENDBRANCH  15  18
ENDBRANCH   1  12
BRANCH   1  25
ATOM     24  C   UNL     1       5.117   4.401  16.036  0.00  0.00    +0.000 C 
ATOM     25  C   UNL     1       4.303   5.402  16.852  0.00  0.00    +0.000 C 
ENDBRANCH   1  25
TORSDOF 3
ENDMDL
MODEL 4
REMARK VINA RESULT:      -8.5      0.404      1.453
REMARK  Name = 
REMARK  4 active torsions:
REMARK  status: ('A' for Active; 'I' for Inactive)
REMARK    1  A    between atoms: C_1  and  C_2
REMARK    2  A    between atoms: C_2  and  C_3
REMARK    3  A    between atoms: C_3  and  C_4
REMARK    4  A    between atoms: C_7  and  C_8
REMARK                            x       y       z     vdW  Elec       q    Type
REMARK                         _______ _______ _______ _____ _____    ______ ____
ROOT
ATOM      1  C   UNL     1       3.724   4.886  18.194  0.00  0.00    +0.000 C 
ATOM      2  C   UNL     1       4.922   4.475  19.060  0.00  0.00    +0.000 C 
ATOM      3  O   UNL     1       5.794   5.264  19.430  0.00  0.00    +0.000 OA
ATOM      4  N   UNL     1       5.018   3.163  19.440  0.00  0.00    +0.000 N 
ATOM      5  C   UNL     1       4.194   2.153  19.080  0.00  0.00    +0.000 C 
ATOM      6  O   UNL     1       4.413   0.995  19.416  0.00  0.00    +0.000 OA
ATOM      7  N   UNL     1       3.120   2.480  18.319  0.00  0.00    +0.000 N 
ATOM      8  C   UNL     1       2.798   3.720  17.841  0.00  0.00    +0.000 C 
ATOM      9  O   UNL     1       1.810   3.841  17.115  0.00  0.00    +0.000 OA
ATOM     10  H   UNL     1       5.821   2.916  20.001  0.00  0.00    +0.000 HD
ATOM     11  H   UNL     1       2.514   1.720  18.040  0.00  0.00    +0.000 HD
ENDROOT
BRANCH   1  12
ATOM     12  C   UNL     1       2.898   5.984  18.917  0.00  0.00    +0.000 A 
ATOM     13  C   UNL     1       2.730   7.261  18.360  0.00  0.00    +0.000 A 
ATOM     14  C   UNL     1       2.031   8.269  19.033  0.00  0.00    +0.000 A 
ATOM     15  C   UNL     1       1.428   8.046  20.279  0.00  0.00    +0.000 A 
ATOM     16  C   UNL     1       1.553   6.756  20.814  0.00  0.00    +0.000 A 
ATOM     17  C   UNL     1       2.265   5.742  20.148  0.00  0.00    +0.000 A 
BRANCH  15  18
ATOM     18  C   UNL     1       0.705   9.132  20.984  0.00  0.00    +0.000 A 
ATOM     19  C   UNL     1       0.477  10.377  20.368  0.00  0.00    +0.000 A 
ATOM     20  C   UNL     1      -0.165  11.422  21.039  0.00  0.00    +0.000 A 
ATOM     21  C   UNL     1      -0.613  11.239  22.342  0.00  0.00    +0.000 A 
ATOM     22  C   UNL     1      -0.418  10.014  22.972  0.00  0.00    +0.000 A 
ATOM     23  C   UNL     1       0.238   8.975  22.303  0.00  0.00    +0.000 A 
ENDBRANCH  15  18
ENDBRANCH   1  12
BRANCH   1  25
ATOM     24  C   UNL     1       5.120   4.411  16.029  0.00  0.00    +0.000 C 
ATOM     25  C   UNL     1       4.319   5.420  16.848  0.00  0.00    +0.000 C 
ENDBRANCH   1  25
TORSDOF 3
ENDMDL
MODEL 5
REMARK VINA RESULT:      -8.3      1.044      1.260
REMARK  Name = 
REMARK  4 active torsions:
REMARK  status: ('A' for Active; 'I' for Inactive)
REMARK    1  A    between atoms: C_1  and  C_2
REMARK    2  A    between atoms: C_2  and  C_3
REMARK    3  A    between atoms: C_3  and  C_4
REMARK    4  A    between atoms: C_7  and  C_8
REMARK                            x       y       z     vdW  Elec       q    Type
REMARK                         _______ _______ _______ _____ _____    ______ ____
ROOT
ATOM      1  C   UNL     1       4.124   4.988  17.920  0.00  0.00    +0.000 C 
ATOM      2  C   UNL     1       5.345   4.816  18.832  0.00  0.00    +0.000 C 
ATOM      3  O   UNL     1       6.220   5.675  18.963  0.00  0.00    +0.000 OA
ATOM      4  N   UNL     1       5.460   3.649  19.537  0.00  0.00    +0.000 N 
ATOM      5  C   UNL     1       4.635   2.579  19.472  0.00  0.00    +0.000 C 
ATOM      6  O   UNL     1       4.870   1.548  20.092  0.00  0.00    +0.000 OA
ATOM      7  N   UNL     1       3.540   2.696  18.680  0.00  0.00    +0.000 N 
ATOM      8  C   UNL     1       3.198   3.769  17.905  0.00  0.00    +0.000 C 
ATOM      9  O   UNL     1       2.192   3.696  17.197  0.00  0.00    +0.000 OA
ATOM     10  H   UNL     1       6.278   3.556  20.123  0.00  0.00    +0.000 HD
ATOM     11  H   UNL     1       2.934   1.890  18.623  0.00  0.00    +0.000 HD
ENDROOT
BRANCH   1  12
ATOM     12  C   UNL     1       3.307   6.235  18.353  0.00  0.00    +0.000 A 
ATOM     13  C   UNL     1       2.698   6.309  19.615  0.00  0.00    +0.000 A 
ATOM     14  C   UNL     1       1.917   7.409  19.988  0.00  0.00    +0.000 A 
ATOM     15  C   UNL     1       1.735   8.510  19.140  0.00  0.00    +0.000 A 
ATOM     16  C   UNL     1       2.385   8.459  17.898  0.00  0.00    +0.000 A 
ATOM     17  C   UNL     1       3.160   7.351  17.512  0.00  0.00    +0.000 A 
BRANCH  15  18
ATOM     18  C   UNL     1       0.891   9.659  19.547  0.00  0.00    +0.000 A 
ATOM     19  C   UNL     1       0.789  10.047  20.897  0.00  0.00    +0.000 A 
ATOM     20  C   UNL     1      -0.039  11.100  21.297  0.00  0.00    +0.000 A 
ATOM     21  C   UNL     1      -0.771  11.807  20.351  0.00  0.00    +0.000 A 
ATOM     22  C   UNL     1      -0.677  11.459  19.007  0.00  0.00    +0.000 A 
ATOM     23  C   UNL     1       0.140  10.394  18.611  0.00  0.00    +0.000 A 
ENDBRANCH  15  18
ENDBRANCH   1  12
BRANCH   1  25
ATOM     24  C   UNL     1       5.512   3.987  15.935  0.00  0.00    +0.000 C 
ATOM     25  C   UNL     1       4.682   5.154  16.467  0.00  0.00    +0.000 C 
ENDBRANCH   1  25
TORSDOF 3
ENDMDL
MODEL 6
REMARK VINA RESULT:      -8.3      1.064      1.603
REMARK  Name = 
REMARK  4 active torsions:
REMARK  status: ('A' for Active; 'I' for Inactive)
REMARK    1  A    between atoms: C_1  and  C_2
REMARK    2  A    between atoms: C_2  and  C_3
REMARK    3  A    between atoms: C_3  and  C_4
REMARK    4  A    between atoms: C_7  and  C_8
REMARK                            x       y       z     vdW  Elec       q    Type
REMARK                         _______ _______ _______ _____ _____    ______ ____
ROOT
ATOM      1  C   UNL     1       4.119   4.992  17.916  0.00  0.00    +0.000 C 
ATOM      2  C   UNL     1       5.343   4.825  18.826  0.00  0.00    +0.000 C 
ATOM      3  O   UNL     1       6.215   5.687  18.954  0.00  0.00    +0.000 OA
ATOM      4  N   UNL     1       5.463   3.658  19.530  0.00  0.00    +0.000 N 
ATOM      5  C   UNL     1       4.641   2.585  19.468  0.00  0.00    +0.000 C 
ATOM      6  O   UNL     1       4.882   1.555  20.087  0.00  0.00    +0.000 OA
ATOM      7  N   UNL     1       3.544   2.699  18.678  0.00  0.00    +0.000 N 
ATOM      8  C   UNL     1       3.197   3.770  17.904  0.00  0.00    +0.000 C 
ATOM      9  O   UNL     1       2.190   3.693  17.197  0.00  0.00    +0.000 OA
ATOM     10  H   UNL     1       6.282   3.569  20.115  0.00  0.00    +0.000 HD
ATOM     11  H   UNL     1       2.941   1.890  18.623  0.00  0.00    +0.000 HD
ENDROOT
BRANCH   1  12
ATOM     12  C   UNL     1       3.298   6.237  18.351  0.00  0.00    +0.000 A 
ATOM     13  C   UNL     1       2.690   6.308  19.613  0.00  0.00    +0.000 A 
ATOM     14  C   UNL     1       1.905   7.406  19.988  0.00  0.00    +0.000 A 
ATOM     15  C   UNL     1       1.720   8.506  19.140  0.00  0.00    +0.000 A 
ATOM     16  C   UNL     1       2.369   8.458  17.897  0.00  0.00    +0.000 A 
ATOM     17  C   UNL     1       3.147   7.353  17.510  0.00  0.00    +0.000 A 
BRANCH  15  18
ATOM     18  C   UNL     1       0.873   9.652  19.549  0.00  0.00    +0.000 A 
ATOM     19  C   UNL     1       0.116  10.374  18.606  0.00  0.00    +0.000 A 
ATOM     20  C   UNL     1      -0.651  11.484  18.974  0.00  0.00    +0.000 A 
ATOM     21  C   UNL     1      -0.695  11.888  20.303  0.00  0.00    +0.000 A 
ATOM     22  C   UNL     1       0.029  11.185  21.261  0.00  0.00    +0.000 A 
ATOM     23  C   UNL     1       0.807  10.084  20.887  0.00  0.00    +0.000 A 
ENDBRANCH  15  18
ENDBRANCH   1  12
BRANCH   1  25
ATOM     24  C   UNL     1       5.515   4.001  15.933  0.00  0.00    +0.000 C 
ATOM     25  C   UNL     1       4.673   5.160  16.462  0.00  0.00    +0.000 C 
ENDBRANCH   1  25
TORSDOF 3
ENDMDL
MODEL 7
REMARK VINA RESULT:      -8.2      1.084      1.707
REMARK  Name = 
REMARK  4 active torsions:
REMARK  status: ('A' for Active; 'I' for Inactive)
REMARK    1  A    between atoms: C_1  and  C_2
REMARK    2  A    between atoms: C_2  and  C_3
REMARK    3  A    between atoms: C_3  and  C_4
REMARK    4  A    between atoms: C_7  and  C_8
REMARK                            x       y       z     vdW  Elec       q    Type
REMARK                         _______ _______ _______ _____ _____    ______ ____
ROOT
ATOM      1  C   UNL     1       4.139   4.943  17.894  0.00  0.00    +0.000 C 
ATOM      2  C   UNL     1       5.347   4.795  18.828  0.00  0.00    +0.000 C 
ATOM      3  O   UNL     1       6.212   5.663  18.961  0.00  0.00    +0.000 OA
ATOM      4  N   UNL     1       5.460   3.639  19.551  0.00  0.00    +0.000 N 
ATOM      5  C   UNL     1       4.645   2.561  19.489  0.00  0.00    +0.000 C 
ATOM      6  O   UNL     1       4.879   1.541  20.127  0.00  0.00    +0.000 OA
ATOM      7  N   UNL     1       3.562   2.658  18.677  0.00  0.00    +0.000 N 
ATOM      8  C   UNL     1       3.224   3.716  17.882  0.00  0.00    +0.000 C 
ATOM      9  O   UNL     1       2.230   3.625  17.159  0.00  0.00    +0.000 OA
ATOM     10  H   UNL     1       6.269   3.562  20.152  0.00  0.00    +0.000 HD
ATOM     11  H   UNL     1       2.963   1.845  18.622  0.00  0.00    +0.000 HD
ENDROOT
BRANCH   1  12
ATOM     12  C   UNL     1       3.305   6.190  18.297  0.00  0.00    +0.000 A 
ATOM     13  C   UNL     1       3.146   7.277  17.425  0.00  0.00    +0.000 A 
ATOM     14  C   UNL     1       2.439   8.425  17.804  0.00  0.00    +0.000 A 
ATOM     15  C   UNL     1       1.821   8.532  19.058  0.00  0.00    +0.000 A 
ATOM     16  C   UNL     1       1.937   7.424  19.911  0.00  0.00    +0.000 A 
ATOM     17  C   UNL     1       2.656   6.275  19.540  0.00  0.00    +0.000 A 
BRANCH  15  18
ATOM     18  C   UNL     1       1.090   9.761  19.448  0.00  0.00    +0.000 A 
ATOM     19  C   UNL     1       0.167   9.756  20.511  0.00  0.00    +0.000 A 
ATOM     20  C   UNL     1      -0.560  10.898  20.858  0.00  0.00    +0.000 A 
ATOM     21  C   UNL     1      -0.367  12.084  20.159  0.00  0.00    +0.000 A 
ATOM     22  C   UNL     1       0.551  12.125  19.115  0.00  0.00    +0.000 A 
ATOM     23  C   UNL     1       1.266  10.976  18.760  0.00  0.00    +0.000 A 
ENDBRANCH  15  18
ENDBRANCH   1  12
BRANCH   1  25
ATOM     24  C   UNL     1       5.581   3.935  15.953  0.00  0.00    +0.000 C 
ATOM     25  C   UNL     1       4.719   5.094  16.448  0.00  0.00    +0.000 C 
ENDBRANCH   1  25
TORSDOF 3
ENDMDL
MODEL 8
REMARK VINA RESULT:      -8.1      1.283      2.839
REMARK  Name = 
REMARK  4 active torsions:
REMARK  status: ('A' for Active; 'I' for Inactive)
REMARK    1  A    between atoms: C_1  and  C_2
REMARK    2  A    between atoms: C_2  and  C_3
REMARK    3  A    between atoms: C_3  and  C_4
REMARK    4  A    between atoms: C_7  and  C_8
REMARK                            x       y       z     vdW  Elec       q    Type
REMARK                         _______ _______ _______ _____ _____    ______ ____
ROOT
ATOM      1  C   UNL     1       3.798   4.069  18.634  0.00  0.00    +0.000 C 
ATOM      2  C   UNL     1       3.326   3.755  17.208  0.00  0.00    +0.000 C 
ATOM      3  O   UNL     1       2.158   3.482  16.925  0.00  0.00    +0.000 OA
ATOM      4  N   UNL     1       4.256   3.784  16.205  0.00  0.00    +0.000 N 
ATOM      5  C   UNL     1       5.585   4.003  16.337  0.00  0.00    +0.000 C 
ATOM      6  O   UNL     1       6.346   3.933  15.378  0.00  0.00    +0.000 OA
ATOM      7  N   UNL     1       6.038   4.290  17.584  0.00  0.00    +0.000 N 
ATOM      8  C   UNL     1       5.300   4.345  18.732  0.00  0.00    +0.000 C 
ATOM      9  O   UNL     1       5.875   4.568  19.799  0.00  0.00    +0.000 OA
ATOM     10  H   UNL     1       3.923   3.565  15.277  0.00  0.00    +0.000 HD
ATOM     11  H   UNL     1       7.033   4.438  17.681  0.00  0.00    +0.000 HD
ENDROOT
BRANCH   1  12
ATOM     12  C   UNL     1       3.023   5.293  19.193  0.00  0.00    +0.000 A 
ATOM     13  C   UNL     1       3.027   6.528  18.528  0.00  0.00    +0.000 A 
ATOM     14  C   UNL     1       2.373   7.648  19.056  0.00  0.00    +0.000 A 
ATOM     15  C   UNL     1       1.649   7.585  20.254  0.00  0.00    +0.000 A 
ATOM     16  C   UNL     1       1.603   6.338  20.894  0.00  0.00    +0.000 A 
ATOM     17  C   UNL     1       2.268   5.213  20.375  0.00  0.00    +0.000 A 
BRANCH  15  18
ATOM     18  C   UNL     1       0.977   8.786  20.805  0.00  0.00    +0.000 A 
ATOM     19  C   UNL     1       0.605   8.856  22.161  0.00  0.00    +0.000 A 
ATOM     20  C   UNL     1      -0.069   9.965  22.682  0.00  0.00    +0.000 A 
ATOM     21  C   UNL     1      -0.372  11.043  21.858  0.00  0.00    +0.000 A 
ATOM     22  C   UNL     1      -0.003  11.010  20.518  0.00  0.00    +0.000 A 
ATOM     23  C   UNL     1       0.658   9.893  19.997  0.00  0.00    +0.000 A 
ENDBRANCH  15  18
ENDBRANCH   1  12
BRANCH   1  25
ATOM     24  C   UNL     1       3.870   1.456  18.819  0.00  0.00    +0.000 C 
ATOM     25  C   UNL     1       3.514   2.784  19.482  0.00  0.00    +0.000 C 
ENDBRANCH   1  25
TORSDOF 3
ENDMDL
MODEL 9
REMARK VINA RESULT:      -8.1      1.274      2.831
REMARK  Name = 
REMARK  4 active torsions:
REMARK  status: ('A' for Active; 'I' for Inactive)
REMARK    1  A    between atoms: C_1  and  C_2
REMARK    2  A    between atoms: C_2  and  C_3
REMARK    3  A    between atoms: C_3  and  C_4
REMARK    4  A    between atoms: C_7  and  C_8
REMARK                            x       y       z     vdW  Elec       q    Type
REMARK                         _______ _______ _______ _____ _____    ______ ____
ROOT
ATOM      1  C   UNL     1       3.771   4.061  18.653  0.00  0.00    +0.000 C 
ATOM      2  C   UNL     1       3.263   3.767  17.235  0.00  0.00    +0.000 C 
ATOM      3  O   UNL     1       2.082   3.533  16.973  0.00  0.00    +0.000 OA
ATOM      4  N   UNL     1       4.175   3.769  16.215  0.00  0.00    +0.000 N 
ATOM      5  C   UNL     1       5.512   3.943  16.323  0.00  0.00    +0.000 C 
ATOM      6  O   UNL     1       6.253   3.852  15.350  0.00  0.00    +0.000 OA
ATOM      7  N   UNL     1       5.997   4.212  17.561  0.00  0.00    +0.000 N 
ATOM      8  C   UNL     1       5.283   4.288  18.724  0.00  0.00    +0.000 C 
ATOM      9  O   UNL     1       5.885   4.489  19.780  0.00  0.00    +0.000 OA
ATOM     10  H   UNL     1       3.818   3.563  15.292  0.00  0.00    +0.000 HD
ATOM     11  H   UNL     1       6.998   4.327  17.640  0.00  0.00    +0.000 HD
ENDROOT
BRANCH   1  12
ATOM     12  C   UNL     1       3.047   5.308  19.229  0.00  0.00    +0.000 A 
ATOM     13  C   UNL     1       2.343   5.251  20.441  0.00  0.00    +0.000 A 
ATOM     14  C   UNL     1       1.645   6.359  20.937  0.00  0.00    +0.000 A 
ATOM     15  C   UNL     1       1.645   7.592  20.270  0.00  0.00    +0.000 A 
ATOM     16  C   UNL     1       2.390   7.663  19.084  0.00  0.00    +0.000 A 
ATOM     17  C   UNL     1       3.082   6.551  18.574  0.00  0.00    +0.000 A 
BRANCH  15  18
ATOM     18  C   UNL     1       0.886   8.749  20.802  0.00  0.00    +0.000 A 
ATOM     19  C   UNL     1       0.509   9.820  19.970  0.00  0.00    +0.000 A 
ATOM     20  C   UNL     1      -0.167  10.937  20.471  0.00  0.00    +0.000 A 
ATOM     21  C   UNL     1      -0.501  11.000  21.819  0.00  0.00    +0.000 A 
ATOM     22  C   UNL     1      -0.157   9.949  22.663  0.00  0.00    +0.000 A 
ATOM     23  C   UNL     1       0.533   8.840  22.162  0.00  0.00    +0.000 A 
ENDBRANCH  15  18
ENDBRANCH   1  12
BRANCH   1  25
ATOM     24  C   UNL     1       3.791   1.448  18.842  0.00  0.00    +0.000 C 
ATOM     25  C   UNL     1       3.462   2.784  19.503  0.00  0.00    +0.000 C 
ENDBRANCH   1  25
TORSDOF 3
ENDMDL
