MODEL 1
REMARK VINA RESULT:      -7.7      0.000      0.000
REMARK  Name = 
REMARK  4 active torsions:
REMARK  status: ('A' for Active; 'I' for Inactive)
REMARK    1  A    between atoms: C_1  and  O_2
REMARK    2  A    between atoms: O_2  and  C_3
REMARK    3  A    between atoms: C_6  and  C_7
REMARK    4  A    between atoms: C_13  and  C_14
REMARK                            x       y       z     vdW  Elec       q    Type
REMARK                         _______ _______ _______ _____ _____    ______ ____
ROOT
ATOM      1  C   UNL     1       4.423   3.998  18.417  0.00  0.00    +0.000 A 
ATOM      2  C   UNL     1       4.311   2.838  19.179  0.00  0.00    +0.000 A 
ATOM      3  N   UNL     1       3.427   2.971  20.217  0.00  0.00    +0.000 NA
ATOM      4  C   UNL     1       2.987   4.200  20.094  0.00  0.00    +0.000 A 
ATOM      5  C   UNL     1       2.056   4.890  20.940  0.00  0.00    +0.000 A 
ATOM      6  N   UNL     1       1.682   6.118  20.703  0.00  0.00    +0.000 NA
ATOM      7  C   UNL     1       2.209   6.735  19.576  0.00  0.00    +0.000 A 
ATOM      8  C   UNL     1       3.077   6.145  18.731  0.00  0.00    +0.000 A 
ATOM      9  N   UNL     1       3.508   4.857  19.008  0.00  0.00    +0.000 N 
ENDROOT
BRANCH   1  13
ATOM     10  C   UNL     1       7.010   4.953  15.121  0.00  0.00    +0.000 A 
ATOM     11  C   UNL     1       7.386   5.237  16.433  0.00  0.00    +0.000 A 
ATOM     12  C   UNL     1       6.554   4.891  17.502  0.00  0.00    +0.000 A 
ATOM     13  C   UNL     1       5.311   4.278  17.282  0.00  0.00    +0.000 A 
ATOM     14  C   UNL     1       4.931   4.032  15.956  0.00  0.00    +0.000 A 
ATOM     15  C   UNL     1       5.777   4.352  14.884  0.00  0.00    +0.000 A 
BRANCH  10  17
ATOM     16  C   UNL     1       7.574   4.977  12.826  0.00  0.00    +0.000 C 
ATOM     17  O   UNL     1       7.896   5.353  14.160  0.00  0.00    +0.000 OA
ENDBRANCH  10  17
ENDBRANCH   1  13
BRANCH   7  18
ATOM     18  C   UNL     1       1.809   8.092  19.346  0.00  0.00    +0.000 A 
ATOM     19  C   UNL     1       1.926   8.866  18.194  0.00  0.00    +0.000 A 
ATOM     20  C   UNL     1       1.362  10.136  18.452  0.00  0.00    +0.000 A 
ATOM     21  C   UNL     1       0.925  10.093  19.749  0.00  0.00    +0.000 A 
ATOM     22  O   UNL     1       1.185   8.880  20.296  0.00  0.00    +0.000 OA
ENDBRANCH   7  18
TORSDOF 3
ENDMDL
MODEL 2
REMARK VINA RESULT:      -7.5      0.241      1.031
REMARK  Name = 
REMARK  4 active torsions:
REMARK  status: ('A' for Active; 'I' for Inactive)
REMARK    1  A    between atoms: C_1  and  O_2
REMARK    2  A    between atoms: O_2  and  C_3
REMARK    3  A    between atoms: C_6  and  C_7
REMARK    4  A    between atoms: C_13  and  C_14
REMARK                            x       y       z     vdW  Elec       q    Type
REMARK                         _______ _______ _______ _____ _____    ______ ____
ROOT
ATOM      1  C   UNL     1       4.413   4.052  18.422  0.00  0.00    +0.000 A 
ATOM      2  C   UNL     1       4.310   2.855  19.126  0.00  0.00    +0.000 A 
ATOM      3  N   UNL     1       3.416   2.927  20.162  0.00  0.00    +0.000 NA
ATOM      4  C   UNL     1       2.962   4.155  20.095  0.00  0.00    +0.000 A 
ATOM      5  C   UNL     1       2.015   4.792  20.965  0.00  0.00    +0.000 A 
ATOM      6  N   UNL     1       1.628   6.026  20.785  0.00  0.00    +0.000 NA
ATOM      7  C   UNL     1       2.157   6.703  19.694  0.00  0.00    +0.000 A 
ATOM      8  C   UNL     1       3.039   6.165  18.829  0.00  0.00    +0.000 A 
ATOM      9  N   UNL     1       3.484   4.870  19.046  0.00  0.00    +0.000 N 
ENDROOT
BRANCH   1  13
ATOM     10  C   UNL     1       7.012   4.934  15.116  0.00  0.00    +0.000 A 
ATOM     11  C   UNL     1       5.659   4.667  14.912  0.00  0.00    +0.000 A 
ATOM     12  C   UNL     1       4.813   4.416  15.997  0.00  0.00    +0.000 A 
ATOM     13  C   UNL     1       5.307   4.398  17.310  0.00  0.00    +0.000 A 
ATOM     14  C   UNL     1       6.676   4.632  17.495  0.00  0.00    +0.000 A 
ATOM     15  C   UNL     1       7.520   4.913  16.411  0.00  0.00    +0.000 A 
BRANCH  10  17
ATOM     16  C   UNL     1       7.200   4.602  12.783  0.00  0.00    +0.000 C 
ATOM     17  O   UNL     1       7.742   5.148  13.979  0.00  0.00    +0.000 OA
ENDBRANCH  10  17
ENDBRANCH   1  13
BRANCH   7  18
ATOM     18  C   UNL     1       1.742   8.065  19.526  0.00  0.00    +0.000 A 
ATOM     19  C   UNL     1       1.817   8.880  18.401  0.00  0.00    +0.000 A 
ATOM     20  C   UNL     1       1.255  10.137  18.723  0.00  0.00    +0.000 A 
ATOM     21  C   UNL     1       0.861  10.044  20.031  0.00  0.00    +0.000 A 
ATOM     22  O   UNL     1       1.145   8.814  20.525  0.00  0.00    +0.000 OA
ENDBRANCH   7  18
TORSDOF 3
ENDMDL
MODEL 3
REMARK VINA RESULT:      -7.1      1.384      6.466
REMARK  Name = 
REMARK  4 active torsions:
REMARK  status: ('A' for Active; 'I' for Inactive)
REMARK    1  A    between atoms: C_1  and  O_2
REMARK    2  A    between atoms: O_2  and  C_3
REMARK    3  A    between atoms: C_6  and  C_7
REMARK    4  A    between atoms: C_13  and  C_14
REMARK                            x       y       z     vdW  Elec       q    Type
REMARK                         _______ _______ _______ _____ _____    ______ ____
ROOT
ATOM      1  C   UNL     1       2.390   6.139  19.779  0.00  0.00    +0.000 A 
ATOM      2  C   UNL     1       1.921   5.341  20.818  0.00  0.00    +0.000 A 
ATOM      3  N   UNL     1       2.398   4.057  20.756  0.00  0.00    +0.000 NA
ATOM      4  C   UNL     1       3.165   4.064  19.693  0.00  0.00    +0.000 A 
ATOM      5  C   UNL     1       3.900   2.966  19.131  0.00  0.00    +0.000 A 
ATOM      6  N   UNL     1       4.646   3.103  18.068  0.00  0.00    +0.000 NA
ATOM      7  C   UNL     1       4.720   4.369  17.504  0.00  0.00    +0.000 A 
ATOM      8  C   UNL     1       4.068   5.447  17.984  0.00  0.00    +0.000 A 
ATOM      9  N   UNL     1       3.241   5.292  19.086  0.00  0.00    +0.000 N 
ENDROOT
BRANCH   1  13
ATOM     10  C   UNL     1       1.265  10.181  18.850  0.00  0.00    +0.000 A 
ATOM     11  C   UNL     1       1.033   9.646  20.115  0.00  0.00    +0.000 A 
ATOM     12  C   UNL     1       1.434   8.341  20.421  0.00  0.00    +0.000 A 
ATOM     13  C   UNL     1       2.052   7.531  19.456  0.00  0.00    +0.000 A 
ATOM     14  C   UNL     1       2.245   8.071  18.178  0.00  0.00    +0.000 A 
ATOM     15  C   UNL     1       1.870   9.389  17.879  0.00  0.00    +0.000 A 
BRANCH  10  17
ATOM     16  C   UNL     1       1.819  12.460  18.553  0.00  0.00    +0.000 C 
ATOM     17  O   UNL     1       0.815  11.459  18.664  0.00  0.00    +0.000 OA
ENDBRANCH  10  17
ENDBRANCH   1  13
BRANCH   7  18
ATOM     18  C   UNL     1       5.522   4.495  16.322  0.00  0.00    +0.000 A 
ATOM     19  C   UNL     1       6.780   5.068  16.164  0.00  0.00    +0.000 A 
ATOM     20  C   UNL     1       7.168   4.926  14.812  0.00  0.00    +0.000 A 
ATOM     21  C   UNL     1       6.132   4.276  14.195  0.00  0.00    +0.000 A 
ATOM     22  O   UNL     1       5.142   4.012  15.083  0.00  0.00    +0.000 OA
ENDBRANCH   7  18
TORSDOF 3
ENDMDL
MODEL 4
REMARK VINA RESULT:      -6.9      3.331      8.279
REMARK  Name = 
REMARK  4 active torsions:
REMARK  status: ('A' for Active; 'I' for Inactive)
REMARK    1  A    between atoms: C_1  and  O_2
REMARK    2  A    between atoms: O_2  and  C_3
REMARK    3  A    between atoms: C_6  and  C_7
REMARK    4  A    between atoms: C_13  and  C_14
REMARK                            x       y       z     vdW  Elec       q    Type
REMARK                         _______ _______ _______ _____ _____    ______ ____
ROOT
ATOM      1  C   UNL     1       1.474   9.142  19.252  0.00  0.00    +0.000 A 
ATOM      2  C   UNL     1       1.882   9.843  18.120  0.00  0.00    +0.000 A 
ATOM      3  N   UNL     1       2.709   9.106  17.313  0.00  0.00    +0.000 NA
ATOM      4  C   UNL     1       2.805   7.956  17.934  0.00  0.00    +0.000 A 
ATOM      5  C   UNL     1       3.579   6.811  17.549  0.00  0.00    +0.000 A 
ATOM      6  N   UNL     1       3.581   5.708  18.249  0.00  0.00    +0.000 NA
ATOM      7  C   UNL     1       2.781   5.676  19.384  0.00  0.00    +0.000 A 
ATOM      8  C   UNL     1       2.020   6.708  19.798  0.00  0.00    +0.000 A 
ATOM      9  N   UNL     1       2.052   7.893  19.079  0.00  0.00    +0.000 N 
ENDROOT
BRANCH   1  13
ATOM     10  C   UNL     1      -0.851  10.617  22.551  0.00  0.00    +0.000 A 
ATOM     11  C   UNL     1      -1.009  11.145  21.271  0.00  0.00    +0.000 A 
ATOM     12  C   UNL     1      -0.274  10.635  20.196  0.00  0.00    +0.000 A 
ATOM     13  C   UNL     1       0.659   9.603  20.383  0.00  0.00    +0.000 A 
ATOM     14  C   UNL     1       0.833   9.108  21.682  0.00  0.00    +0.000 A 
ATOM     15  C   UNL     1       0.075   9.599  22.755  0.00  0.00    +0.000 A 
BRANCH  10  17
ATOM     16  C   UNL     1      -2.595  12.127  23.068  0.00  0.00    +0.000 C 
ATOM     17  O   UNL     1      -1.610  11.207  23.524  0.00  0.00    +0.000 OA
ENDBRANCH  10  17
ENDBRANCH   1  13
BRANCH   7  18
ATOM     18  C   UNL     1       2.816   4.468  20.155  0.00  0.00    +0.000 A 
ATOM     19  C   UNL     1       2.006   4.072  21.215  0.00  0.00    +0.000 A 
ATOM     20  C   UNL     1       2.415   2.785  21.631  0.00  0.00    +0.000 A 
ATOM     21  C   UNL     1       3.460   2.444  20.813  0.00  0.00    +0.000 A 
ATOM     22  O   UNL     1       3.711   3.438  19.927  0.00  0.00    +0.000 OA
ENDBRANCH   7  18
TORSDOF 3
ENDMDL
MODEL 5
REMARK VINA RESULT:      -6.8      1.382      6.520
REMARK  Name = 
REMARK  4 active torsions:
REMARK  status: ('A' for Active; 'I' for Inactive)
REMARK    1  A    between atoms: C_1  and  O_2
REMARK    2  A    between atoms: O_2  and  C_3
REMARK    3  A    between atoms: C_6  and  C_7
REMARK    4  A    between atoms: C_13  and  C_14
REMARK                            x       y       z     vdW  Elec       q    Type
REMARK                         _______ _______ _______ _____ _____    ______ ____
ROOT
ATOM      1  C   UNL     1       2.346   6.016  19.902  0.00  0.00    +0.000 A 
ATOM      2  C   UNL     1       1.909   5.212  20.952  0.00  0.00    +0.000 A 
ATOM      3  N   UNL     1       2.432   3.946  20.900  0.00  0.00    +0.000 NA
ATOM      4  C   UNL     1       3.194   3.969  19.835  0.00  0.00    +0.000 A 
ATOM      5  C   UNL     1       3.965   2.892  19.281  0.00  0.00    +0.000 A 
ATOM      6  N   UNL     1       4.703   3.044  18.215  0.00  0.00    +0.000 NA
ATOM      7  C   UNL     1       4.730   4.307  17.637  0.00  0.00    +0.000 A 
ATOM      8  C   UNL     1       4.042   5.366  18.108  0.00  0.00    +0.000 A 
ATOM      9  N   UNL     1       3.225   5.193  19.215  0.00  0.00    +0.000 N 
ENDROOT
BRANCH   1  13
ATOM     10  C   UNL     1       1.344  10.074  18.906  0.00  0.00    +0.000 A 
ATOM     11  C   UNL     1       1.962   9.240  17.976  0.00  0.00    +0.000 A 
ATOM     12  C   UNL     1       2.253   7.910  18.296  0.00  0.00    +0.000 A 
ATOM     13  C   UNL     1       1.958   7.391  19.566  0.00  0.00    +0.000 A 
ATOM     14  C   UNL     1       1.370   8.253  20.502  0.00  0.00    +0.000 A 
ATOM     15  C   UNL     1       1.051   9.578  20.173  0.00  0.00    +0.000 A 
BRANCH  10  17
ATOM     16  C   UNL     1       0.849  12.306  19.509  0.00  0.00    +0.000 C 
ATOM     17  O   UNL     1       1.125  11.357  18.485  0.00  0.00    +0.000 OA
ENDBRANCH  10  17
ENDBRANCH   1  13
BRANCH   7  18
ATOM     18  C   UNL     1       5.523   4.449  16.451  0.00  0.00    +0.000 A 
ATOM     19  C   UNL     1       6.831   4.903  16.311  0.00  0.00    +0.000 A 
ATOM     20  C   UNL     1       7.182   4.835  14.944  0.00  0.00    +0.000 A 
ATOM     21  C   UNL     1       6.076   4.346  14.300  0.00  0.00    +0.000 A 
ATOM     22  O   UNL     1       5.078   4.111  15.186  0.00  0.00    +0.000 OA
ENDBRANCH   7  18
TORSDOF 3
ENDMDL
MODEL 6
REMARK VINA RESULT:      -6.7      3.668      6.130
REMARK  Name = 
REMARK  4 active torsions:
REMARK  status: ('A' for Active; 'I' for Inactive)
REMARK    1  A    between atoms: C_1  and  O_2
REMARK    2  A    between atoms: O_2  and  C_3
REMARK    3  A    between atoms: C_6  and  C_7
REMARK    4  A    between atoms: C_13  and  C_14
REMARK                            x       y       z     vdW  Elec       q    Type
REMARK                         _______ _______ _______ _____ _____    ______ ____
ROOT
ATOM      1  C   UNL     1       1.105   8.784  20.781  0.00  0.00    +0.000 A 
ATOM      2  C   UNL     1       1.415   9.315  22.031  0.00  0.00    +0.000 A 
ATOM      3  N   UNL     1       0.692  10.444  22.319  0.00  0.00    +0.000 NA
ATOM      4  C   UNL     1      -0.065  10.605  21.262  0.00  0.00    +0.000 A 
ATOM      5  C   UNL     1      -1.006  11.658  21.005  0.00  0.00    +0.000 A 
ATOM      6  N   UNL     1      -1.718  11.701  19.912  0.00  0.00    +0.000 NA
ATOM      7  C   UNL     1      -1.545  10.667  19.001  0.00  0.00    +0.000 A 
ATOM      8  C   UNL     1      -0.689   9.641  19.180  0.00  0.00    +0.000 A 
ATOM      9  N   UNL     1       0.098   9.619  20.321  0.00  0.00    +0.000 N 
ENDROOT
BRANCH   1  13
ATOM     10  C   UNL     1       2.968   5.428  18.848  0.00  0.00    +0.000 A 
ATOM     11  C   UNL     1       2.345   5.286  20.087  0.00  0.00    +0.000 A 
ATOM     12  C   UNL     1       1.710   6.376  20.693  0.00  0.00    +0.000 A 
ATOM     13  C   UNL     1       1.709   7.641  20.086  0.00  0.00    +0.000 A 
ATOM     14  C   UNL     1       2.371   7.775  18.858  0.00  0.00    +0.000 A 
ATOM     15  C   UNL     1       2.982   6.678  18.236  0.00  0.00    +0.000 A 
BRANCH  10  17
ATOM     16  C   UNL     1       4.923   4.103  18.751  0.00  0.00    +0.000 C 
ATOM     17  O   UNL     1       3.568   4.299  18.364  0.00  0.00    +0.000 OA
ENDBRANCH  10  17
ENDBRANCH   1  13
BRANCH   7  18
ATOM     18  C   UNL     1      -2.314  10.745  17.794  0.00  0.00    +0.000 A 
ATOM     19  C   UNL     1      -2.164  10.040  16.603  0.00  0.00    +0.000 A 
ATOM     20  C   UNL     1      -3.183  10.448  15.713  0.00  0.00    +0.000 A 
ATOM     21  C   UNL     1      -3.913  11.389  16.390  0.00  0.00    +0.000 A 
ATOM     22  O   UNL     1      -3.407  11.577  17.633  0.00  0.00    +0.000 OA
ENDBRANCH   7  18
TORSDOF 3
ENDMDL
MODEL 7
REMARK VINA RESULT:      -6.7      3.527      6.071
REMARK  Name = 
REMARK  4 active torsions:
REMARK  status: ('A' for Active; 'I' for Inactive)
REMARK    1  A    between atoms: C_1  and  O_2
REMARK    2  A    between atoms: O_2  and  C_3
REMARK    3  A    between atoms: C_6  and  C_7
REMARK    4  A    between atoms: C_13  and  C_14
REMARK                            x       y       z     vdW  Elec       q    Type
REMARK                         _______ _______ _______ _____ _____    ______ ____
ROOT
ATOM      1  C   UNL     1       1.116   8.784  20.810  0.00  0.00    +0.000 A 
ATOM      2  C   UNL     1       1.420   9.313  22.061  0.00  0.00    +0.000 A 
ATOM      3  N   UNL     1       0.693  10.438  22.351  0.00  0.00    +0.000 NA
ATOM      4  C   UNL     1      -0.064  10.598  21.293  0.00  0.00    +0.000 A 
ATOM      5  C   UNL     1      -1.009  11.648  21.038  0.00  0.00    +0.000 A 
ATOM      6  N   UNL     1      -1.718  11.691  19.943  0.00  0.00    +0.000 NA
ATOM      7  C   UNL     1      -1.539  10.660  19.030  0.00  0.00    +0.000 A 
ATOM      8  C   UNL     1      -0.680   9.637  19.208  0.00  0.00    +0.000 A 
ATOM      9  N   UNL     1       0.106   9.616  20.350  0.00  0.00    +0.000 N 
ENDROOT
BRANCH   1  13
ATOM     10  C   UNL     1       2.807   5.463  18.670  0.00  0.00    +0.000 A 
ATOM     11  C   UNL     1       2.822   6.747  18.129  0.00  0.00    +0.000 A 
ATOM     12  C   UNL     1       2.302   7.829  18.847  0.00  0.00    +0.000 A 
ATOM     13  C   UNL     1       1.726   7.645  20.113  0.00  0.00    +0.000 A 
ATOM     14  C   UNL     1       1.685   6.343  20.628  0.00  0.00    +0.000 A 
ATOM     15  C   UNL     1       2.233   5.263  19.922  0.00  0.00    +0.000 A 
BRANCH  10  17
ATOM     16  C   UNL     1       4.414   4.878  17.038  0.00  0.00    +0.000 C 
ATOM     17  O   UNL     1       3.328   4.485  17.869  0.00  0.00    +0.000 OA
ENDBRANCH  10  17
ENDBRANCH   1  13
BRANCH   7  18
ATOM     18  C   UNL     1      -2.306  10.738  17.821  0.00  0.00    +0.000 A 
ATOM     19  C   UNL     1      -2.121  10.073  16.612  0.00  0.00    +0.000 A 
ATOM     20  C   UNL     1      -3.153  10.462  15.728  0.00  0.00    +0.000 A 
ATOM     21  C   UNL     1      -3.927  11.350  16.427  0.00  0.00    +0.000 A 
ATOM     22  O   UNL     1      -3.435  11.525  17.678  0.00  0.00    +0.000 OA
ENDBRANCH   7  18
TORSDOF 3
ENDMDL
MODEL 8
REMARK VINA RESULT:      -6.7      3.434      7.446
REMARK  Name = 
REMARK  4 active torsions:
REMARK  status: ('A' for Active; 'I' for Inactive)
REMARK    1  A    between atoms: C_1  and  O_2
REMARK    2  A    between atoms: O_2  and  C_3
REMARK    3  A    between atoms: C_6  and  C_7
REMARK    4  A    between atoms: C_13  and  C_14
REMARK                            x       y       z     vdW  Elec       q    Type
REMARK                         _______ _______ _______ _____ _____    ______ ____
ROOT
ATOM      1  C   UNL     1       5.549   5.199  17.515  0.00  0.00    +0.000 A 
ATOM      2  C   UNL     1       6.517   6.058  18.028  0.00  0.00    +0.000 A 
ATOM      3  N   UNL     1       7.494   6.357  17.114  0.00  0.00    +0.000 NA
ATOM      4  C   UNL     1       7.129   5.698  16.042  0.00  0.00    +0.000 A 
ATOM      5  C   UNL     1       7.809   5.623  14.780  0.00  0.00    +0.000 A 
ATOM      6  N   UNL     1       7.332   4.939  13.775  0.00  0.00    +0.000 NA
ATOM      7  C   UNL     1       6.118   4.293  13.966  0.00  0.00    +0.000 A 
ATOM      8  C   UNL     1       5.418   4.330  15.118  0.00  0.00    +0.000 A 
ATOM      9  N   UNL     1       5.946   5.019  16.199  0.00  0.00    +0.000 N 
ENDROOT
BRANCH   1  13
ATOM     10  C   UNL     1       2.217   3.298  19.453  0.00  0.00    +0.000 A 
ATOM     11  C   UNL     1       3.527   2.993  19.817  0.00  0.00    +0.000 A 
ATOM     12  C   UNL     1       4.605   3.642  19.206  0.00  0.00    +0.000 A 
ATOM     13  C   UNL     1       4.398   4.591  18.195  0.00  0.00    +0.000 A 
ATOM     14  C   UNL     1       3.076   4.860  17.814  0.00  0.00    +0.000 A 
ATOM     15  C   UNL     1       1.994   4.232  18.446  0.00  0.00    +0.000 A 
BRANCH  10  17
ATOM     16  C   UNL     1       1.319   2.607  21.527  0.00  0.00    +0.000 C 
ATOM     17  O   UNL     1       1.249   2.587  20.106  0.00  0.00    +0.000 OA
ENDBRANCH  10  17
ENDBRANCH   1  13
BRANCH   7  18
ATOM     18  C   UNL     1       5.623   3.525  12.862  0.00  0.00    +0.000 A 
ATOM     19  C   UNL     1       4.434   3.661  12.152  0.00  0.00    +0.000 A 
ATOM     20  C   UNL     1       4.409   2.682  11.133  0.00  0.00    +0.000 A 
ATOM     21  C   UNL     1       5.580   1.983  11.260  0.00  0.00    +0.000 A 
ATOM     22  O   UNL     1       6.315   2.474  12.287  0.00  0.00    +0.000 OA
ENDBRANCH   7  18
TORSDOF 3
ENDMDL
MODEL 9
REMARK VINA RESULT:      -6.6      3.353      7.524
REMARK  Name = 
REMARK  4 active torsions:
REMARK  status: ('A' for Active; 'I' for Inactive)
REMARK    1  A    between atoms: C_1  and  O_2
REMARK    2  A    between atoms: O_2  and  C_3
REMARK    3  A    between atoms: C_6  and  C_7
REMARK    4  A    between atoms: C_13  and  C_14
REMARK                            x       y       z     vdW  Elec       q    Type
REMARK                         _______ _______ _______ _____ _____    ______ ____
ROOT
ATOM      1  C   UNL     1       5.572   5.144  17.475  0.00  0.00    +0.000 A 
ATOM      2  C   UNL     1       6.512   6.040  17.976  0.00  0.00    +0.000 A 
ATOM      3  N   UNL     1       7.462   6.383  17.049  0.00  0.00    +0.000 NA
ATOM      4  C   UNL     1       7.108   5.713  15.980  0.00  0.00    +0.000 A 
ATOM      5  C   UNL     1       7.771   5.670  14.708  0.00  0.00    +0.000 A 
ATOM      6  N   UNL     1       7.308   4.970  13.708  0.00  0.00    +0.000 NA
ATOM      7  C   UNL     1       6.125   4.275  13.914  0.00  0.00    +0.000 A 
ATOM      8  C   UNL     1       5.442   4.278  15.076  0.00  0.00    +0.000 A 
ATOM      9  N   UNL     1       5.957   4.985  16.152  0.00  0.00    +0.000 N 
ENDROOT
BRANCH   1  13
ATOM     10  C   UNL     1       2.293   3.336  19.584  0.00  0.00    +0.000 A 
ATOM     11  C   UNL     1       2.095   4.451  18.771  0.00  0.00    +0.000 A 
ATOM     12  C   UNL     1       3.161   5.012  18.060  0.00  0.00    +0.000 A 
ATOM     13  C   UNL     1       4.457   4.487  18.169  0.00  0.00    +0.000 A 
ATOM     14  C   UNL     1       4.648   3.389  19.018  0.00  0.00    +0.000 A 
ATOM     15  C   UNL     1       3.574   2.807  19.708  0.00  0.00    +0.000 A 
BRANCH  10  17
ATOM     16  C   UNL     1       1.327   2.695  21.643  0.00  0.00    +0.000 C 
ATOM     17  O   UNL     1       1.181   2.887  20.241  0.00  0.00    +0.000 OA
ENDBRANCH  10  17
ENDBRANCH   1  13
BRANCH   7  18
ATOM     18  C   UNL     1       5.646   3.490  12.814  0.00  0.00    +0.000 A 
ATOM     19  C   UNL     1       4.460   3.607  12.095  0.00  0.00    +0.000 A 
ATOM     20  C   UNL     1       4.452   2.618  11.086  0.00  0.00    +0.000 A 
ATOM     21  C   UNL     1       5.630   1.933  11.227  0.00  0.00    +0.000 A 
ATOM     22  O   UNL     1       6.353   2.441  12.254  0.00  0.00    +0.000 OA
ENDBRANCH   7  18
TORSDOF 3
ENDMDL
