MODEL 1
REMARK VINA RESULT:      -6.4      0.000      0.000
REMARK  Name = 
REMARK  7 active torsions:
REMARK  status: ('A' for Active; 'I' for Inactive)
REMARK    1  A    between atoms: C_1  and  C_2
REMARK    2  A    between atoms: C_2  and  O_3
REMARK    3  A    between atoms: O_3  and  C_4
REMARK    4  A    between atoms: C_7  and  C_8
REMARK    5  A    between atoms: C_8  and  C_10
REMARK    6  A    between atoms: C_10  and  N_11
REMARK    7  A    between atoms: N_14  and  C_15
REMARK                            x       y       z     vdW  Elec       q    Type
REMARK                         _______ _______ _______ _____ _____    ______ ____
ROOT
ATOM      1  C   UNL     1       2.243   4.529  18.794  0.00  0.00    +0.000 A 
ATOM      2  C   UNL     1       2.605   3.372  18.101  0.00  0.00    +0.000 A 
ATOM      3  C   UNL     1       3.609   3.409  17.137  0.00  0.00    +0.000 A 
ATOM      4  C   UNL     1       4.256   4.616  16.858  0.00  0.00    +0.000 A 
ATOM      5  C   UNL     1       3.836   5.794  17.490  0.00  0.00    +0.000 A 
ATOM      6  C   UNL     1       2.826   5.747  18.454  0.00  0.00    +0.000 A 
ENDROOT
BRANCH   4   7
ATOM      7  C   UNL     1       5.378   4.616  15.888  0.00  0.00    +0.000 C 
ATOM      8  O   UNL     1       5.178   4.868  14.699  0.00  0.00    +0.000 OA
BRANCH   7   9
ATOM      9  C   UNL     1       6.775   4.291  16.389  0.00  0.00    +0.000 C 
BRANCH   9  10
ATOM     10  N   UNL     1       7.268   5.372  17.257  0.00  0.00    +0.000 N 
ATOM     11  C   UNL     1       7.688   5.253  18.570  0.00  0.00    +0.000 A 
ATOM     12  C   UNL     1       8.035   6.509  18.984  0.00  0.00    +0.000 A 
ATOM     13  N   UNL     1       7.822   7.357  17.913  0.00  0.00    +0.000 N 
ATOM     14  C   UNL     1       8.056   8.795  17.884  0.00  0.00    +0.000 C 
ATOM     15  C   UNL     1       7.332   6.658  16.876  0.00  0.00    +0.000 A 
ENDBRANCH   9  10
ENDBRANCH   7   9
ENDBRANCH   4   7
BRANCH   1  16
ATOM     16  O   UNL     1       1.316   4.344  19.774  0.00  0.00    +0.000 OA
BRANCH  16  18
ATOM     17  C   UNL     1       1.478   2.760  21.543  0.00  0.00    +0.000 C 
ATOM     18  C   UNL     1       1.003   2.995  20.121  0.00  0.00    +0.000 C 
ENDBRANCH  16  18
ENDBRANCH   1  16
TORSDOF 5
ENDMDL
MODEL 2
REMARK VINA RESULT:      -6.2      2.813      6.226
REMARK  Name = 
REMARK  7 active torsions:
REMARK  status: ('A' for Active; 'I' for Inactive)
REMARK    1  A    between atoms: C_1  and  C_2
REMARK    2  A    between atoms: C_2  and  O_3
REMARK    3  A    between atoms: O_3  and  C_4
REMARK    4  A    between atoms: C_7  and  C_8
REMARK    5  A    between atoms: C_8  and  C_10
REMARK    6  A    between atoms: C_10  and  N_11
REMARK    7  A    between atoms: N_14  and  C_15
REMARK                            x       y       z     vdW  Elec       q    Type
REMARK                         _______ _______ _______ _____ _____    ______ ____
ROOT
ATOM      1  C   UNL     1       6.271   5.023  14.837  0.00  0.00    +0.000 A 
ATOM      2  C   UNL     1       6.974   4.300  15.804  0.00  0.00    +0.000 A 
ATOM      3  C   UNL     1       6.644   4.417  17.153  0.00  0.00    +0.000 A 
ATOM      4  C   UNL     1       5.607   5.269  17.540  0.00  0.00    +0.000 A 
ATOM      5  C   UNL     1       4.958   6.059  16.581  0.00  0.00    +0.000 A 
ATOM      6  C   UNL     1       5.297   5.936  15.231  0.00  0.00    +0.000 A 
ENDROOT
BRANCH   4   7
ATOM      7  C   UNL     1       5.219   5.315  18.971  0.00  0.00    +0.000 C 
ATOM      8  O   UNL     1       5.942   4.813  19.832  0.00  0.00    +0.000 OA
BRANCH   7   9
ATOM      9  C   UNL     1       3.910   5.986  19.350  0.00  0.00    +0.000 C 
BRANCH   9  10
ATOM     10  N   UNL     1       2.891   4.972  19.664  0.00  0.00    +0.000 N 
ATOM     11  C   UNL     1       2.303   4.742  20.896  0.00  0.00    +0.000 A 
ATOM     12  C   UNL     1       1.438   3.696  20.725  0.00  0.00    +0.000 A 
ATOM     13  N   UNL     1       1.519   3.321  19.398  0.00  0.00    +0.000 N 
ATOM     14  C   UNL     1       0.774   2.248  18.751  0.00  0.00    +0.000 C 
ATOM     15  C   UNL     1       2.424   4.087  18.768  0.00  0.00    +0.000 A 
ENDBRANCH   9  10
ENDBRANCH   7   9
ENDBRANCH   4   7
BRANCH   1  16
ATOM     16  O   UNL     1       6.624   4.752  13.550  0.00  0.00    +0.000 OA
BRANCH  16  18
ATOM     17  C   UNL     1       5.150   3.553  12.117  0.00  0.00    +0.000 C 
ATOM     18  C   UNL     1       6.332   3.442  13.062  0.00  0.00    +0.000 C 
ENDBRANCH  16  18
ENDBRANCH   1  16
TORSDOF 5
ENDMDL
MODEL 3
REMARK VINA RESULT:      -6.2      2.515      3.944
REMARK  Name = 
REMARK  7 active torsions:
REMARK  status: ('A' for Active; 'I' for Inactive)
REMARK    1  A    between atoms: C_1  and  C_2
REMARK    2  A    between atoms: C_2  and  O_3
REMARK    3  A    between atoms: O_3  and  C_4
REMARK    4  A    between atoms: C_7  and  C_8
REMARK    5  A    between atoms: C_8  and  C_10
REMARK    6  A    between atoms: C_10  and  N_11
REMARK    7  A    between atoms: N_14  and  C_15
REMARK                            x       y       z     vdW  Elec       q    Type
REMARK                         _______ _______ _______ _____ _____    ______ ____
ROOT
ATOM      1  C   UNL     1       3.429   5.176  19.672  0.00  0.00    +0.000 A 
ATOM      2  C   UNL     1       3.082   6.256  18.857  0.00  0.00    +0.000 A 
ATOM      3  C   UNL     1       3.801   6.525  17.695  0.00  0.00    +0.000 A 
ATOM      4  C   UNL     1       4.881   5.711  17.346  0.00  0.00    +0.000 A 
ATOM      5  C   UNL     1       5.284   4.680  18.205  0.00  0.00    +0.000 A 
ATOM      6  C   UNL     1       4.558   4.419  19.370  0.00  0.00    +0.000 A 
ENDROOT
BRANCH   4   7
ATOM      7  C   UNL     1       5.581   5.966  16.063  0.00  0.00    +0.000 C 
ATOM      8  O   UNL     1       5.132   6.782  15.256  0.00  0.00    +0.000 OA
BRANCH   7   9
ATOM      9  C   UNL     1       6.855   5.195  15.760  0.00  0.00    +0.000 C 
BRANCH   9  10
ATOM     10  N   UNL     1       6.834   4.703  14.374  0.00  0.00    +0.000 N 
ATOM     11  C   UNL     1       7.632   5.138  13.329  0.00  0.00    +0.000 A 
ATOM     12  C   UNL     1       7.253   4.423  12.227  0.00  0.00    +0.000 A 
ATOM     13  N   UNL     1       6.241   3.572  12.628  0.00  0.00    +0.000 N 
ATOM     14  C   UNL     1       5.528   2.615  11.792  0.00  0.00    +0.000 C 
ATOM     15  C   UNL     1       5.977   3.769  13.930  0.00  0.00    +0.000 A 
ENDBRANCH   9  10
ENDBRANCH   7   9
ENDBRANCH   4   7
BRANCH   1  16
ATOM     16  O   UNL     1       2.594   4.961  20.726  0.00  0.00    +0.000 OA
BRANCH  16  18
ATOM     17  C   UNL     1       1.157   3.114  20.294  0.00  0.00    +0.000 C 
ATOM     18  C   UNL     1       1.241   4.624  20.420  0.00  0.00    +0.000 C 
ENDBRANCH  16  18
ENDBRANCH   1  16
TORSDOF 5
ENDMDL
MODEL 4
REMARK VINA RESULT:      -6.2      2.513      3.839
REMARK  Name = 
REMARK  7 active torsions:
REMARK  status: ('A' for Active; 'I' for Inactive)
REMARK    1  A    between atoms: C_1  and  C_2
REMARK    2  A    between atoms: C_2  and  O_3
REMARK    3  A    between atoms: O_3  and  C_4
REMARK    4  A    between atoms: C_7  and  C_8
REMARK    5  A    between atoms: C_8  and  C_10
REMARK    6  A    between atoms: C_10  and  N_11
REMARK    7  A    between atoms: N_14  and  C_15
REMARK                            x       y       z     vdW  Elec       q    Type
REMARK                         _______ _______ _______ _____ _____    ______ ____
ROOT
ATOM      1  C   UNL     1       3.455   4.490  19.314  0.00  0.00    +0.000 A 
ATOM      2  C   UNL     1       4.391   3.682  18.664  0.00  0.00    +0.000 A 
ATOM      3  C   UNL     1       5.064   4.145  17.536  0.00  0.00    +0.000 A 
ATOM      4  C   UNL     1       4.796   5.426  17.049  0.00  0.00    +0.000 A 
ATOM      5  C   UNL     1       3.796   6.205  17.646  0.00  0.00    +0.000 A 
ATOM      6  C   UNL     1       3.125   5.731  18.776  0.00  0.00    +0.000 A 
ENDROOT
BRANCH   4   7
ATOM      7  C   UNL     1       5.584   5.929  15.897  0.00  0.00    +0.000 C 
ATOM      8  O   UNL     1       5.177   6.880  15.228  0.00  0.00    +0.000 OA
BRANCH   7   9
ATOM      9  C   UNL     1       6.895   5.243  15.554  0.00  0.00    +0.000 C 
BRANCH   9  10
ATOM     10  N   UNL     1       6.839   4.689  14.192  0.00  0.00    +0.000 N 
ATOM     11  C   UNL     1       7.628   5.055  13.115  0.00  0.00    +0.000 A 
ATOM     12  C   UNL     1       7.213   4.301  12.053  0.00  0.00    +0.000 A 
ATOM     13  N   UNL     1       6.187   3.495  12.510  0.00  0.00    +0.000 N 
ATOM     14  C   UNL     1       5.435   2.519  11.730  0.00  0.00    +0.000 C 
ATOM     15  C   UNL     1       5.951   3.758  13.806  0.00  0.00    +0.000 A 
ENDBRANCH   9  10
ENDBRANCH   7   9
ENDBRANCH   4   7
BRANCH   1  16
ATOM     16  O   UNL     1       2.935   3.961  20.456  0.00  0.00    +0.000 OA
BRANCH  16  18
ATOM     17  C   UNL     1       1.332   2.669  21.650  0.00  0.00    +0.000 C 
ATOM     18  C   UNL     1       1.596   3.469  20.388  0.00  0.00    +0.000 C 
ENDBRANCH  16  18
ENDBRANCH   1  16
TORSDOF 5
ENDMDL
MODEL 5
REMARK VINA RESULT:      -6.1      2.893      6.291
REMARK  Name = 
REMARK  7 active torsions:
REMARK  status: ('A' for Active; 'I' for Inactive)
REMARK    1  A    between atoms: C_1  and  C_2
REMARK    2  A    between atoms: C_2  and  O_3
REMARK    3  A    between atoms: O_3  and  C_4
REMARK    4  A    between atoms: C_7  and  C_8
REMARK    5  A    between atoms: C_8  and  C_10
REMARK    6  A    between atoms: C_10  and  N_11
REMARK    7  A    between atoms: N_14  and  C_15
REMARK                            x       y       z     vdW  Elec       q    Type
REMARK                         _______ _______ _______ _____ _____    ______ ____
ROOT
ATOM      1  C   UNL     1       6.401   4.193  14.381  0.00  0.00    +0.000 A 
ATOM      2  C   UNL     1       5.233   3.684  14.953  0.00  0.00    +0.000 A 
ATOM      3  C   UNL     1       4.921   3.952  16.284  0.00  0.00    +0.000 A 
ATOM      4  C   UNL     1       5.788   4.733  17.053  0.00  0.00    +0.000 A 
ATOM      5  C   UNL     1       7.001   5.172  16.507  0.00  0.00    +0.000 A 
ATOM      6  C   UNL     1       7.306   4.897  15.172  0.00  0.00    +0.000 A 
ENDROOT
BRANCH   4   7
ATOM      7  C   UNL     1       5.395   5.074  18.442  0.00  0.00    +0.000 C 
ATOM      8  O   UNL     1       6.112   4.756  19.391  0.00  0.00    +0.000 OA
BRANCH   7   9
ATOM      9  C   UNL     1       4.089   5.816  18.670  0.00  0.00    +0.000 C 
BRANCH   9  10
ATOM     10  N   UNL     1       3.030   4.872  19.060  0.00  0.00    +0.000 N 
ATOM     11  C   UNL     1       1.980   4.434  18.271  0.00  0.00    +0.000 A 
ATOM     12  C   UNL     1       1.236   3.590  19.048  0.00  0.00    +0.000 A 
ATOM     13  N   UNL     1       1.852   3.534  20.284  0.00  0.00    +0.000 N 
ATOM     14  C   UNL     1       1.417   2.756  21.438  0.00  0.00    +0.000 C 
ATOM     15  C   UNL     1       2.928   4.337  20.287  0.00  0.00    +0.000 A 
ENDBRANCH   9  10
ENDBRANCH   7   9
ENDBRANCH   4   7
BRANCH   1  16
ATOM     16  O   UNL     1       6.547   3.940  13.051  0.00  0.00    +0.000 OA
BRANCH  16  18
ATOM     17  C   UNL     1       5.834   2.214  11.575  0.00  0.00    +0.000 C 
ATOM     18  C   UNL     1       5.402   3.438  12.361  0.00  0.00    +0.000 C 
ENDBRANCH  16  18
ENDBRANCH   1  16
TORSDOF 5
ENDMDL
MODEL 6
REMARK VINA RESULT:      -6.1      2.742      4.013
REMARK  Name = 
REMARK  7 active torsions:
REMARK  status: ('A' for Active; 'I' for Inactive)
REMARK    1  A    between atoms: C_1  and  C_2
REMARK    2  A    between atoms: C_2  and  O_3
REMARK    3  A    between atoms: O_3  and  C_4
REMARK    4  A    between atoms: C_7  and  C_8
REMARK    5  A    between atoms: C_8  and  C_10
REMARK    6  A    between atoms: C_10  and  N_11
REMARK    7  A    between atoms: N_14  and  C_15
REMARK                            x       y       z     vdW  Elec       q    Type
REMARK                         _______ _______ _______ _____ _____    ______ ____
ROOT
ATOM      1  C   UNL     1       1.723   7.649  20.150  0.00  0.00    +0.000 A 
ATOM      2  C   UNL     1       2.277   7.689  18.869  0.00  0.00    +0.000 A 
ATOM      3  C   UNL     1       2.601   6.511  18.201  0.00  0.00    +0.000 A 
ATOM      4  C   UNL     1       2.374   5.280  18.821  0.00  0.00    +0.000 A 
ATOM      5  C   UNL     1       1.899   5.239  20.139  0.00  0.00    +0.000 A 
ATOM      6  C   UNL     1       1.579   6.426  20.801  0.00  0.00    +0.000 A 
ENDROOT
BRANCH   4   7
ATOM      7  C   UNL     1       2.650   4.037  18.059  0.00  0.00    +0.000 C 
ATOM      8  O   UNL     1       1.855   3.635  17.208  0.00  0.00    +0.000 OA
BRANCH   7   9
ATOM      9  C   UNL     1       3.925   3.266  18.357  0.00  0.00    +0.000 C 
BRANCH   9  10
ATOM     10  N   UNL     1       5.073   3.911  17.701  0.00  0.00    +0.000 N 
ATOM     11  C   UNL     1       6.076   4.640  18.317  0.00  0.00    +0.000 A 
ATOM     12  C   UNL     1       6.913   5.067  17.323  0.00  0.00    +0.000 A 
ATOM     13  N   UNL     1       6.402   4.586  16.133  0.00  0.00    +0.000 N 
ATOM     14  C   UNL     1       6.961   4.787  14.802  0.00  0.00    +0.000 C 
ATOM     15  C   UNL     1       5.269   3.905  16.373  0.00  0.00    +0.000 A 
ENDBRANCH   9  10
ENDBRANCH   7   9
ENDBRANCH   4   7
BRANCH   1  16
ATOM     16  O   UNL     1       1.364   8.860  20.659  0.00  0.00    +0.000 OA
BRANCH  16  18
ATOM     17  C   UNL     1      -0.044   9.381  22.505  0.00  0.00    +0.000 C 
ATOM     18  C   UNL     1       1.359   8.988  22.081  0.00  0.00    +0.000 C 
ENDBRANCH  16  18
ENDBRANCH   1  16
TORSDOF 5
ENDMDL
MODEL 7
REMARK VINA RESULT:      -6.0      2.859      6.308
REMARK  Name = 
REMARK  7 active torsions:
REMARK  status: ('A' for Active; 'I' for Inactive)
REMARK    1  A    between atoms: C_1  and  C_2
REMARK    2  A    between atoms: C_2  and  O_3
REMARK    3  A    between atoms: O_3  and  C_4
REMARK    4  A    between atoms: C_7  and  C_8
REMARK    5  A    between atoms: C_8  and  C_10
REMARK    6  A    between atoms: C_10  and  N_11
REMARK    7  A    between atoms: N_14  and  C_15
REMARK                            x       y       z     vdW  Elec       q    Type
REMARK                         _______ _______ _______ _____ _____    ______ ____
ROOT
ATOM      1  C   UNL     1       6.335   4.745  14.814  0.00  0.00    +0.000 A 
ATOM      2  C   UNL     1       7.171   4.319  15.849  0.00  0.00    +0.000 A 
ATOM      3  C   UNL     1       6.843   4.579  17.177  0.00  0.00    +0.000 A 
ATOM      4  C   UNL     1       5.670   5.276  17.475  0.00  0.00    +0.000 A 
ATOM      5  C   UNL     1       4.874   5.780  16.437  0.00  0.00    +0.000 A 
ATOM      6  C   UNL     1       5.213   5.515  15.108  0.00  0.00    +0.000 A 
ENDROOT
BRANCH   4   7
ATOM      7  C   UNL     1       5.297   5.470  18.898  0.00  0.00    +0.000 C 
ATOM      8  O   UNL     1       6.084   5.172  19.797  0.00  0.00    +0.000 OA
BRANCH   7   9
ATOM      9  C   UNL     1       3.924   6.035  19.223  0.00  0.00    +0.000 C 
BRANCH   9  10
ATOM     10  N   UNL     1       2.971   4.942  19.472  0.00  0.00    +0.000 N 
ATOM     11  C   UNL     1       2.139   4.341  18.544  0.00  0.00    +0.000 A 
ATOM     12  C   UNL     1       1.417   3.397  19.221  0.00  0.00    +0.000 A 
ATOM     13  N   UNL     1       1.830   3.446  20.539  0.00  0.00    +0.000 N 
ATOM     14  C   UNL     1       1.339   2.619  21.635  0.00  0.00    +0.000 C 
ATOM     15  C   UNL     1       2.758   4.406  20.685  0.00  0.00    +0.000 A 
ENDBRANCH   9  10
ENDBRANCH   7   9
ENDBRANCH   4   7
BRANCH   1  16
ATOM     16  O   UNL     1       6.717   4.349  13.568  0.00  0.00    +0.000 OA
BRANCH  16  18
ATOM     17  C   UNL     1       6.402   2.706  11.875  0.00  0.00    +0.000 C 
ATOM     18  C   UNL     1       5.717   3.741  12.750  0.00  0.00    +0.000 C 
ENDBRANCH  16  18
ENDBRANCH   1  16
TORSDOF 5
ENDMDL
MODEL 8
REMARK VINA RESULT:      -6.0      2.890      5.971
REMARK  Name = 
REMARK  7 active torsions:
REMARK  status: ('A' for Active; 'I' for Inactive)
REMARK    1  A    between atoms: C_1  and  C_2
REMARK    2  A    between atoms: C_2  and  O_3
REMARK    3  A    between atoms: O_3  and  C_4
REMARK    4  A    between atoms: C_7  and  C_8
REMARK    5  A    between atoms: C_8  and  C_10
REMARK    6  A    between atoms: C_10  and  N_11
REMARK    7  A    between atoms: N_14  and  C_15
REMARK                            x       y       z     vdW  Elec       q    Type
REMARK                         _______ _______ _______ _____ _____    ______ ____
ROOT
ATOM      1  C   UNL     1       6.241   4.038  13.607  0.00  0.00    +0.000 A 
ATOM      2  C   UNL     1       7.267   4.888  14.026  0.00  0.00    +0.000 A 
ATOM      3  C   UNL     1       7.438   5.179  15.377  0.00  0.00    +0.000 A 
ATOM      4  C   UNL     1       6.571   4.620  16.320  0.00  0.00    +0.000 A 
ATOM      5  C   UNL     1       5.489   3.838  15.895  0.00  0.00    +0.000 A 
ATOM      6  C   UNL     1       5.325   3.552  14.538  0.00  0.00    +0.000 A 
ENDROOT
BRANCH   4   7
ATOM      7  C   UNL     1       6.822   4.878  17.759  0.00  0.00    +0.000 C 
ATOM      8  O   UNL     1       7.793   4.375  18.325  0.00  0.00    +0.000 OA
BRANCH   7   9
ATOM      9  C   UNL     1       5.852   5.766  18.521  0.00  0.00    +0.000 C 
BRANCH   9  10
ATOM     10  N   UNL     1       4.788   4.952  19.130  0.00  0.00    +0.000 N 
ATOM     11  C   UNL     1       4.789   3.577  19.294  0.00  0.00    +0.000 A 
ATOM     12  C   UNL     1       3.596   3.255  19.880  0.00  0.00    +0.000 A 
ATOM     13  N   UNL     1       2.904   4.438  20.059  0.00  0.00    +0.000 N 
ATOM     14  C   UNL     1       1.581   4.589  20.652  0.00  0.00    +0.000 C 
ATOM     15  C   UNL     1       3.629   5.461  19.576  0.00  0.00    +0.000 A 
ENDBRANCH   9  10
ENDBRANCH   7   9
ENDBRANCH   4   7
BRANCH   1  16
ATOM     16  O   UNL     1       6.236   3.757  12.275  0.00  0.00    +0.000 OA
BRANCH  16  18
ATOM     17  C   UNL     1       4.168   3.202  11.234  0.00  0.00    +0.000 C 
ATOM     18  C   UNL     1       5.440   2.650  11.852  0.00  0.00    +0.000 C 
ENDBRANCH  16  18
ENDBRANCH   1  16
TORSDOF 5
ENDMDL
MODEL 9
REMARK VINA RESULT:      -6.0      2.812      6.346
REMARK  Name = 
REMARK  7 active torsions:
REMARK  status: ('A' for Active; 'I' for Inactive)
REMARK    1  A    between atoms: C_1  and  C_2
REMARK    2  A    between atoms: C_2  and  O_3
REMARK    3  A    between atoms: O_3  and  C_4
REMARK    4  A    between atoms: C_7  and  C_8
REMARK    5  A    between atoms: C_8  and  C_10
REMARK    6  A    between atoms: C_10  and  N_11
REMARK    7  A    between atoms: N_14  and  C_15
REMARK                            x       y       z     vdW  Elec       q    Type
REMARK                         _______ _______ _______ _____ _____    ______ ____
ROOT
ATOM      1  C   UNL     1       6.505   4.989  14.894  0.00  0.00    +0.000 A 
ATOM      2  C   UNL     1       5.256   5.520  15.223  0.00  0.00    +0.000 A 
ATOM      3  C   UNL     1       4.830   5.559  16.548  0.00  0.00    +0.000 A 
ATOM      4  C   UNL     1       5.657   5.057  17.556  0.00  0.00    +0.000 A 
ATOM      5  C   UNL     1       6.873   4.446  17.220  0.00  0.00    +0.000 A 
ATOM      6  C   UNL     1       7.291   4.410  15.888  0.00  0.00    +0.000 A 
ENDROOT
BRANCH   4   7
ATOM      7  C   UNL     1       5.219   5.184  18.967  0.00  0.00    +0.000 C 
ATOM      8  O   UNL     1       5.890   4.696  19.877  0.00  0.00    +0.000 OA
BRANCH   7   9
ATOM      9  C   UNL     1       3.923   5.919  19.265  0.00  0.00    +0.000 C 
BRANCH   9  10
ATOM     10  N   UNL     1       2.868   4.962  19.634  0.00  0.00    +0.000 N 
ATOM     11  C   UNL     1       2.272   4.824  20.876  0.00  0.00    +0.000 A 
ATOM     12  C   UNL     1       1.370   3.802  20.764  0.00  0.00    +0.000 A 
ATOM     13  N   UNL     1       1.439   3.348  19.460  0.00  0.00    +0.000 N 
ATOM     14  C   UNL     1       0.656   2.267  18.874  0.00  0.00    +0.000 C 
ATOM     15  C   UNL     1       2.371   4.044  18.789  0.00  0.00    +0.000 A 
ENDBRANCH   9  10
ENDBRANCH   7   9
ENDBRANCH   4   7
BRANCH   1  16
ATOM     16  O   UNL     1       6.845   5.093  13.580  0.00  0.00    +0.000 OA
BRANCH  16  18
ATOM     17  C   UNL     1       5.523   3.509  12.393  0.00  0.00    +0.000 C 
ATOM     18  C   UNL     1       6.927   3.876  12.836  0.00  0.00    +0.000 C 
ENDBRANCH  16  18
ENDBRANCH   1  16
TORSDOF 5
ENDMDL
