MODEL 1
REMARK VINA RESULT:      -7.7      0.000      0.000
REMARK  Name = 
REMARK  13 active torsions:
REMARK  status: ('A' for Active; 'I' for Inactive)
REMARK    1  A    between atoms: C_1  and  C_2
REMARK    2  A    between atoms: C_4  and  C_5
REMARK    3  A    between atoms: C_6  and  C_7
REMARK    4  A    between atoms: C_7  and  O_9
REMARK    5  A    between atoms: O_9  and  C_10
REMARK    6  A    between atoms: C_10  and  C_11
REMARK    7  A    between atoms: C_11  and  S_12
REMARK    8  A    between atoms: S_12  and  C_13
REMARK    9  A    between atoms: C_19  and  C_20
REMARK   10  A    between atoms: C_22  and  O_23
REMARK   11  A    between atoms: C_22  and  O_24
REMARK   12  A    between atoms: O_24  and  C_25
REMARK   13  A    between atoms: C_25  and  C_26
REMARK                            x       y       z     vdW  Elec       q    Type
REMARK                         _______ _______ _______ _____ _____    ______ ____
ROOT
ATOM      1  C   UNL     1       1.188   8.740  21.538  0.00  0.00    +0.000 C 
ATOM      2  C   UNL     1       1.578   7.708  20.496  0.00  0.00    +0.000 C 
ATOM      3  N   UNL     1       1.670   6.504  20.954  0.00  0.00    +0.000 NA
ATOM      4  C   UNL     1       1.954   5.446  20.130  0.00  0.00    +0.000 C 
ATOM      5  C   UNL     1       1.938   4.120  20.855  0.00  0.00    +0.000 C 
ATOM      6  C   UNL     1       2.233   5.590  18.818  0.00  0.00    +0.000 C 
ATOM      7  C   UNL     1       2.335   6.961  18.185  0.00  0.00    +0.000 C 
ATOM      8  C   UNL     1       3.803   7.259  17.826  0.00  0.00    +0.000 C 
ATOM      9  C   UNL     1       1.807   8.097  19.053  0.00  0.00    +0.000 C 
ATOM     10  C   UNL     1       1.607   9.354  18.581  0.00  0.00    +0.000 C 
ENDROOT
BRANCH   6  11
ATOM     11  C   UNL     1       2.547   4.400  17.967  0.00  0.00    +0.000 C 
ATOM     12  O   UNL     1       1.731   3.766  17.318  0.00  0.00    +0.000 OA
BRANCH  11  13
ATOM     13  O   UNL     1       3.855   4.051  18.106  0.00  0.00    +0.000 OA
BRANCH  13  14
ATOM     14  C   UNL     1       4.404   3.324  16.988  0.00  0.00    +0.000 C 
BRANCH  14  15
ATOM     15  C   UNL     1       4.741   4.237  15.814  0.00  0.00    +0.000 C 
BRANCH  15  16
ATOM     16  S   UNL     1       6.558   4.230  15.591  0.00  0.00    +0.000 S 
BRANCH  16  17
ATOM     17  C   UNL     1       7.168   5.289  16.894  0.00  0.00    +0.000 A 
ATOM     18  C   UNL     1       7.603   4.842  18.143  0.00  0.00    +0.000 A 
ATOM     19  C   UNL     1       8.070   5.747  19.102  0.00  0.00    +0.000 A 
ATOM     20  C   UNL     1       8.109   7.111  18.820  0.00  0.00    +0.000 A 
ATOM     21  C   UNL     1       7.679   7.571  17.580  0.00  0.00    +0.000 A 
ATOM     22  C   UNL     1       7.210   6.665  16.624  0.00  0.00    +0.000 A 
ENDBRANCH  16  17
ENDBRANCH  15  16
ENDBRANCH  14  15
ENDBRANCH  13  14
ENDBRANCH  11  13
ENDBRANCH   6  11
BRANCH  10  23
ATOM     23  O   UNL     1       1.782   9.695  17.254  0.00  0.00    +0.000 OA
ATOM     24  H   UNL     1       2.280  10.522  17.174  0.00  0.00    +0.000 HD
ENDBRANCH  10  23
BRANCH  10  25
ATOM     25  O   UNL     1       1.245  10.362  19.437  0.00  0.00    +0.000 OA
BRANCH  25  26
ATOM     26  C   UNL     1       1.348  11.696  18.938  0.00  0.00    +0.000 C 
BRANCH  26  27
ATOM     27  C   UNL     1      -0.027  12.338  19.109  0.00  0.00    +0.000 C 
ATOM     28  C   UNL     1      -0.544  12.236  20.533  0.00  0.00    +0.000 C 
ATOM     29  C   UNL     1      -2.026  12.404  20.335  0.00  0.00    +0.000 C 
ATOM     30  C   UNL     1      -2.263  11.714  19.006  0.00  0.00    +0.000 C 
ATOM     31  O   UNL     1      -1.019  11.713  18.284  0.00  0.00    +0.000 OA
ENDBRANCH  26  27
ENDBRANCH  25  26
ENDBRANCH  10  25
TORSDOF 10
ENDMDL
MODEL 2
REMARK VINA RESULT:      -7.4      0.909      1.430
REMARK  Name = 
REMARK  13 active torsions:
REMARK  status: ('A' for Active; 'I' for Inactive)
REMARK    1  A    between atoms: C_1  and  C_2
REMARK    2  A    between atoms: C_4  and  C_5
REMARK    3  A    between atoms: C_6  and  C_7
REMARK    4  A    between atoms: C_7  and  O_9
REMARK    5  A    between atoms: O_9  and  C_10
REMARK    6  A    between atoms: C_10  and  C_11
REMARK    7  A    between atoms: C_11  and  S_12
REMARK    8  A    between atoms: S_12  and  C_13
REMARK    9  A    between atoms: C_19  and  C_20
REMARK   10  A    between atoms: C_22  and  O_23
REMARK   11  A    between atoms: C_22  and  O_24
REMARK   12  A    between atoms: O_24  and  C_25
REMARK   13  A    between atoms: C_25  and  C_26
REMARK                            x       y       z     vdW  Elec       q    Type
REMARK                         _______ _______ _______ _____ _____    ______ ____
ROOT
ATOM      1  C   UNL     1       1.215   8.785  21.541  0.00  0.00    +0.000 C 
ATOM      2  C   UNL     1       1.601   7.772  20.479  0.00  0.00    +0.000 C 
ATOM      3  N   UNL     1       1.710   6.562  20.918  0.00  0.00    +0.000 NA
ATOM      4  C   UNL     1       1.993   5.519  20.075  0.00  0.00    +0.000 C 
ATOM      5  C   UNL     1       1.998   4.183  20.780  0.00  0.00    +0.000 C 
ATOM      6  C   UNL     1       2.253   5.686  18.762  0.00  0.00    +0.000 C 
ATOM      7  C   UNL     1       2.334   7.066  18.148  0.00  0.00    +0.000 C 
ATOM      8  C   UNL     1       3.796   7.383  17.775  0.00  0.00    +0.000 C 
ATOM      9  C   UNL     1       1.808   8.184  19.039  0.00  0.00    +0.000 C 
ATOM     10  C   UNL     1       1.591   9.446  18.589  0.00  0.00    +0.000 C 
ENDROOT
BRANCH   6  11
ATOM     11  C   UNL     1       2.567   4.511  17.890  0.00  0.00    +0.000 C 
ATOM     12  O   UNL     1       1.741   3.834  17.300  0.00  0.00    +0.000 OA
BRANCH  11  13
ATOM     13  O   UNL     1       3.898   4.231  17.933  0.00  0.00    +0.000 OA
BRANCH  13  14
ATOM     14  C   UNL     1       4.368   3.379  16.869  0.00  0.00    +0.000 C 
BRANCH  14  15
ATOM     15  C   UNL     1       4.804   4.174  15.642  0.00  0.00    +0.000 C 
BRANCH  15  16
ATOM     16  S   UNL     1       6.631   4.102  15.539  0.00  0.00    +0.000 S 
BRANCH  16  17
ATOM     17  C   UNL     1       7.192   5.183  16.845  0.00  0.00    +0.000 A 
ATOM     18  C   UNL     1       7.640   4.752  18.096  0.00  0.00    +0.000 A 
ATOM     19  C   UNL     1       8.065   5.674  19.057  0.00  0.00    +0.000 A 
ATOM     20  C   UNL     1       8.050   7.039  18.777  0.00  0.00    +0.000 A 
ATOM     21  C   UNL     1       7.607   7.483  17.536  0.00  0.00    +0.000 A 
ATOM     22  C   UNL     1       7.179   6.560  16.577  0.00  0.00    +0.000 A 
ENDBRANCH  16  17
ENDBRANCH  15  16
ENDBRANCH  14  15
ENDBRANCH  13  14
ENDBRANCH  11  13
ENDBRANCH   6  11
BRANCH  10  23
ATOM     23  O   UNL     1       1.745   9.809  17.265  0.00  0.00    +0.000 OA
ATOM     24  H   UNL     1       2.618  10.201  17.115  0.00  0.00    +0.000 HD
ENDBRANCH  10  23
BRANCH  10  25
ATOM     25  O   UNL     1       1.231  10.438  19.464  0.00  0.00    +0.000 OA
BRANCH  25  26
ATOM     26  C   UNL     1       0.065  11.194  19.136  0.00  0.00    +0.000 C 
BRANCH  26  27
ATOM     27  C   UNL     1       0.325  12.627  19.591  0.00  0.00    +0.000 C 
ATOM     28  C   UNL     1       0.003  13.648  18.515  0.00  0.00    +0.000 C 
ATOM     29  C   UNL     1       0.819  14.831  18.959  0.00  0.00    +0.000 C 
ATOM     30  C   UNL     1       2.054  14.179  19.549  0.00  0.00    +0.000 C 
ATOM     31  O   UNL     1       1.700  12.841  19.938  0.00  0.00    +0.000 OA
ENDBRANCH  26  27
ENDBRANCH  25  26
ENDBRANCH  10  25
TORSDOF 10
ENDMDL
MODEL 3
REMARK VINA RESULT:      -6.9      0.482      1.004
REMARK  Name = 
REMARK  13 active torsions:
REMARK  status: ('A' for Active; 'I' for Inactive)
REMARK    1  A    between atoms: C_1  and  C_2
REMARK    2  A    between atoms: C_4  and  C_5
REMARK    3  A    between atoms: C_6  and  C_7
REMARK    4  A    between atoms: C_7  and  O_9
REMARK    5  A    between atoms: O_9  and  C_10
REMARK    6  A    between atoms: C_10  and  C_11
REMARK    7  A    between atoms: C_11  and  S_12
REMARK    8  A    between atoms: S_12  and  C_13
REMARK    9  A    between atoms: C_19  and  C_20
REMARK   10  A    between atoms: C_22  and  O_23
REMARK   11  A    between atoms: C_22  and  O_24
REMARK   12  A    between atoms: O_24  and  C_25
REMARK   13  A    between atoms: C_25  and  C_26
REMARK                            x       y       z     vdW  Elec       q    Type
REMARK                         _______ _______ _______ _____ _____    ______ ____
ROOT
ATOM      1  C   UNL     1       1.318   8.689  21.627  0.00  0.00    +0.000 C 
ATOM      2  C   UNL     1       1.583   7.624  20.579  0.00  0.00    +0.000 C 
ATOM      3  N   UNL     1       1.617   6.420  21.047  0.00  0.00    +0.000 NA
ATOM      4  C   UNL     1       1.786   5.337  20.223  0.00  0.00    +0.000 C 
ATOM      5  C   UNL     1       1.717   4.023  20.964  0.00  0.00    +0.000 C 
ATOM      6  C   UNL     1       2.006   5.451  18.897  0.00  0.00    +0.000 C 
ATOM      7  C   UNL     1       2.167   6.806  18.242  0.00  0.00    +0.000 C 
ATOM      8  C   UNL     1       3.633   7.000  17.806  0.00  0.00    +0.000 C 
ATOM      9  C   UNL     1       1.763   7.983  19.121  0.00  0.00    +0.000 C 
ATOM     10  C   UNL     1       1.625   9.246  18.645  0.00  0.00    +0.000 C 
ENDROOT
BRANCH   6  11
ATOM     11  C   UNL     1       2.194   4.235  18.046  0.00  0.00    +0.000 C 
ATOM     12  O   UNL     1       1.537   3.962  17.055  0.00  0.00    +0.000 OA
BRANCH  11  13
ATOM     13  O   UNL     1       3.129   3.412  18.597  0.00  0.00    +0.000 OA
BRANCH  13  14
ATOM     14  C   UNL     1       4.460   3.579  18.069  0.00  0.00    +0.000 C 
BRANCH  14  15
ATOM     15  C   UNL     1       4.454   3.947  16.589  0.00  0.00    +0.000 C 
BRANCH  15  16
ATOM     16  S   UNL     1       6.191   4.010  16.011  0.00  0.00    +0.000 S 
BRANCH  16  17
ATOM     17  C   UNL     1       6.934   5.311  16.982  0.00  0.00    +0.000 A 
ATOM     18  C   UNL     1       6.967   6.657  16.614  0.00  0.00    +0.000 A 
ATOM     19  C   UNL     1       7.570   7.609  17.444  0.00  0.00    +0.000 A 
ATOM     20  C   UNL     1       8.144   7.224  18.653  0.00  0.00    +0.000 A 
ATOM     21  C   UNL     1       8.119   5.886  19.033  0.00  0.00    +0.000 A 
ATOM     22  C   UNL     1       7.519   4.936  18.202  0.00  0.00    +0.000 A 
ENDBRANCH  16  17
ENDBRANCH  15  16
ENDBRANCH  14  15
ENDBRANCH  13  14
ENDBRANCH  11  13
ENDBRANCH   6  11
BRANCH  10  23
ATOM     23  O   UNL     1       1.754   9.563  17.306  0.00  0.00    +0.000 OA
ATOM     24  H   UNL     1       0.897   9.516  16.857  0.00  0.00    +0.000 HD
ENDBRANCH  10  23
BRANCH  10  25
ATOM     25  O   UNL     1       1.377  10.284  19.505  0.00  0.00    +0.000 OA
BRANCH  25  26
ATOM     26  C   UNL     1       1.346  11.595  18.939  0.00  0.00    +0.000 C 
BRANCH  26  27
ATOM     27  C   UNL     1       0.167  12.324  19.578  0.00  0.00    +0.000 C 
ATOM     28  C   UNL     1      -0.438  11.551  20.736  0.00  0.00    +0.000 C 
ATOM     29  C   UNL     1      -1.818  12.145  20.815  0.00  0.00    +0.000 C 
ATOM     30  C   UNL     1      -2.144  12.420  19.361  0.00  0.00    +0.000 C 
ATOM     31  O   UNL     1      -0.901  12.540  18.647  0.00  0.00    +0.000 OA
ENDBRANCH  26  27
ENDBRANCH  25  26
ENDBRANCH  10  25
TORSDOF 10
ENDMDL
MODEL 4
REMARK VINA RESULT:      -6.6      4.456      6.913
REMARK  Name = 
REMARK  13 active torsions:
REMARK  status: ('A' for Active; 'I' for Inactive)
REMARK    1  A    between atoms: C_1  and  C_2
REMARK    2  A    between atoms: C_4  and  C_5
REMARK    3  A    between atoms: C_6  and  C_7
REMARK    4  A    between atoms: C_7  and  O_9
REMARK    5  A    between atoms: O_9  and  C_10
REMARK    6  A    between atoms: C_10  and  C_11
REMARK    7  A    between atoms: C_11  and  S_12
REMARK    8  A    between atoms: S_12  and  C_13
REMARK    9  A    between atoms: C_19  and  C_20
REMARK   10  A    between atoms: C_22  and  O_23
REMARK   11  A    between atoms: C_22  and  O_24
REMARK   12  A    between atoms: O_24  and  C_25
REMARK   13  A    between atoms: C_25  and  C_26
REMARK                            x       y       z     vdW  Elec       q    Type
REMARK                         _______ _______ _______ _____ _____    ______ ____
ROOT
ATOM      1  C   UNL     1       4.495   2.479  20.105  0.00  0.00    +0.000 C 
ATOM      2  C   UNL     1       5.002   3.525  19.130  0.00  0.00    +0.000 C 
ATOM      3  N   UNL     1       6.138   4.046  19.459  0.00  0.00    +0.000 NA
ATOM      4  C   UNL     1       6.763   4.963  18.654  0.00  0.00    +0.000 C 
ATOM      5  C   UNL     1       8.112   5.383  19.187  0.00  0.00    +0.000 C 
ATOM      6  C   UNL     1       6.212   5.442  17.520  0.00  0.00    +0.000 C 
ATOM      7  C   UNL     1       4.809   5.053  17.106  0.00  0.00    +0.000 C 
ATOM      8  C   UNL     1       3.868   6.263  17.260  0.00  0.00    +0.000 C 
ATOM      9  C   UNL     1       4.224   3.881  17.884  0.00  0.00    +0.000 C 
ATOM     10  C   UNL     1       3.082   3.247  17.514  0.00  0.00    +0.000 C 
ENDROOT
BRANCH   6  11
ATOM     11  C   UNL     1       6.935   6.450  16.685  0.00  0.00    +0.000 C 
ATOM     12  O   UNL     1       7.576   6.199  15.678  0.00  0.00    +0.000 OA
BRANCH  11  13
ATOM     13  O   UNL     1       6.874   7.679  17.268  0.00  0.00    +0.000 OA
BRANCH  13  14
ATOM     14  C   UNL     1       8.118   8.135  17.839  0.00  0.00    +0.000 C 
BRANCH  14  15
ATOM     15  C   UNL     1       8.205   9.656  17.894  0.00  0.00    +0.000 C 
BRANCH  15  16
ATOM     16  S   UNL     1       9.161  10.118  19.387  0.00  0.00    +0.000 S 
BRANCH  16  17
ATOM     17  C   UNL     1       9.998  11.627  18.928  0.00  0.00    +0.000 A 
ATOM     18  C   UNL     1      10.197  12.716  19.780  0.00  0.00    +0.000 A 
ATOM     19  C   UNL     1      10.870  13.857  19.332  0.00  0.00    +0.000 A 
ATOM     20  C   UNL     1      11.354  13.922  18.028  0.00  0.00    +0.000 A 
ATOM     21  C   UNL     1      11.163  12.845  17.167  0.00  0.00    +0.000 A 
ATOM     22  C   UNL     1      10.488  11.706  17.615  0.00  0.00    +0.000 A 
ENDBRANCH  16  17
ENDBRANCH  15  16
ENDBRANCH  14  15
ENDBRANCH  13  14
ENDBRANCH  11  13
ENDBRANCH   6  11
BRANCH  10  23
ATOM     23  O   UNL     1       2.395   3.551  16.355  0.00  0.00    +0.000 OA
ATOM     24  H   UNL     1       1.577   4.028  16.555  0.00  0.00    +0.000 HD
ENDBRANCH  10  23
BRANCH  10  25
ATOM     25  O   UNL     1       2.540   2.279  18.319  0.00  0.00    +0.000 OA
BRANCH  25  26
ATOM     26  C   UNL     1       1.126   2.325  18.518  0.00  0.00    +0.000 C 
BRANCH  26  27
ATOM     27  C   UNL     1       0.883   3.186  19.755  0.00  0.00    +0.000 C 
ATOM     28  C   UNL     1       1.446   4.588  19.610  0.00  0.00    +0.000 C 
ATOM     29  C   UNL     1       1.583   5.015  21.046  0.00  0.00    +0.000 C 
ATOM     30  C   UNL     1       1.963   3.722  21.741  0.00  0.00    +0.000 C 
ATOM     31  O   UNL     1       1.499   2.632  20.926  0.00  0.00    +0.000 OA
ENDBRANCH  26  27
ENDBRANCH  25  26
ENDBRANCH  10  25
TORSDOF 10
ENDMDL
MODEL 5
REMARK VINA RESULT:      -6.6      3.560      9.694
REMARK  Name = 
REMARK  13 active torsions:
REMARK  status: ('A' for Active; 'I' for Inactive)
REMARK    1  A    between atoms: C_1  and  C_2
REMARK    2  A    between atoms: C_4  and  C_5
REMARK    3  A    between atoms: C_6  and  C_7
REMARK    4  A    between atoms: C_7  and  O_9
REMARK    5  A    between atoms: O_9  and  C_10
REMARK    6  A    between atoms: C_10  and  C_11
REMARK    7  A    between atoms: C_11  and  S_12
REMARK    8  A    between atoms: S_12  and  C_13
REMARK    9  A    between atoms: C_19  and  C_20
REMARK   10  A    between atoms: C_22  and  O_23
REMARK   11  A    between atoms: C_22  and  O_24
REMARK   12  A    between atoms: O_24  and  C_25
REMARK   13  A    between atoms: C_25  and  C_26
REMARK                            x       y       z     vdW  Elec       q    Type
REMARK                         _______ _______ _______ _____ _____    ______ ____
ROOT
ATOM      1  C   UNL     1       1.862   5.897  20.590  0.00  0.00    +0.000 C 
ATOM      2  C   UNL     1       1.511   7.367  20.463  0.00  0.00    +0.000 C 
ATOM      3  N   UNL     1       0.876   7.848  21.480  0.00  0.00    +0.000 NA
ATOM      4  C   UNL     1       0.538   9.175  21.550  0.00  0.00    +0.000 C 
ATOM      5  C   UNL     1      -0.128   9.540  22.855  0.00  0.00    +0.000 C 
ATOM      6  C   UNL     1       0.767  10.045  20.545  0.00  0.00    +0.000 C 
ATOM      7  C   UNL     1       1.343   9.583  19.224  0.00  0.00    +0.000 C 
ATOM      8  C   UNL     1       0.262   9.665  18.129  0.00  0.00    +0.000 C 
ATOM      9  C   UNL     1       1.908   8.168  19.243  0.00  0.00    +0.000 C 
ATOM     10  C   UNL     1       2.660   7.660  18.234  0.00  0.00    +0.000 C 
ENDROOT
BRANCH   6  11
ATOM     11  C   UNL     1       0.367  11.481  20.671  0.00  0.00    +0.000 C 
ATOM     12  O   UNL     1       1.083  12.375  21.094  0.00  0.00    +0.000 OA
BRANCH  11  13
ATOM     13  O   UNL     1      -0.947  11.636  20.354  0.00  0.00    +0.000 OA
BRANCH  13  14
ATOM     14  C   UNL     1      -1.535  12.870  20.815  0.00  0.00    +0.000 C 
BRANCH  14  15
ATOM     15  C   UNL     1      -2.772  12.635  21.675  0.00  0.00    +0.000 C 
BRANCH  15  16
ATOM     16  S   UNL     1      -4.146  13.626  20.977  0.00  0.00    +0.000 S 
BRANCH  16  17
ATOM     17  C   UNL     1      -5.121  12.446  20.058  0.00  0.00    +0.000 A 
ATOM     18  C   UNL     1      -4.785  11.949  18.796  0.00  0.00    +0.000 A 
ATOM     19  C   UNL     1      -5.611  11.021  18.153  0.00  0.00    +0.000 A 
ATOM     20  C   UNL     1      -6.780  10.577  18.766  0.00  0.00    +0.000 A 
ATOM     21  C   UNL     1      -7.128  11.063  20.023  0.00  0.00    +0.000 A 
ATOM     22  C   UNL     1      -6.303  11.993  20.662  0.00  0.00    +0.000 A 
ENDBRANCH  16  17
ENDBRANCH  15  16
ENDBRANCH  14  15
ENDBRANCH  13  14
ENDBRANCH  11  13
ENDBRANCH   6  11
BRANCH  10  23
ATOM     23  O   UNL     1       3.052   8.407  17.140  0.00  0.00    +0.000 OA
ATOM     24  H   UNL     1       2.295   8.868  16.749  0.00  0.00    +0.000 HD
ENDBRANCH  10  23
BRANCH  10  25
ATOM     25  O   UNL     1       3.040   6.343  18.252  0.00  0.00    +0.000 OA
BRANCH  25  26
ATOM     26  C   UNL     1       4.068   5.958  17.339  0.00  0.00    +0.000 C 
BRANCH  26  27
ATOM     27  C   UNL     1       4.376   4.489  17.617  0.00  0.00    +0.000 C 
ATOM     28  C   UNL     1       3.227   3.571  17.242  0.00  0.00    +0.000 C 
ATOM     29  C   UNL     1       3.520   2.353  18.075  0.00  0.00    +0.000 C 
ATOM     30  C   UNL     1       4.110   2.950  19.338  0.00  0.00    +0.000 C 
ATOM     31  O   UNL     1       4.637   4.246  19.006  0.00  0.00    +0.000 OA
ENDBRANCH  26  27
ENDBRANCH  25  26
ENDBRANCH  10  25
TORSDOF 10
ENDMDL
MODEL 6
REMARK VINA RESULT:      -6.6      3.808      9.059
REMARK  Name = 
REMARK  13 active torsions:
REMARK  status: ('A' for Active; 'I' for Inactive)
REMARK    1  A    between atoms: C_1  and  C_2
REMARK    2  A    between atoms: C_4  and  C_5
REMARK    3  A    between atoms: C_6  and  C_7
REMARK    4  A    between atoms: C_7  and  O_9
REMARK    5  A    between atoms: O_9  and  C_10
REMARK    6  A    between atoms: C_10  and  C_11
REMARK    7  A    between atoms: C_11  and  S_12
REMARK    8  A    between atoms: S_12  and  C_13
REMARK    9  A    between atoms: C_19  and  C_20
REMARK   10  A    between atoms: C_22  and  O_23
REMARK   11  A    between atoms: C_22  and  O_24
REMARK   12  A    between atoms: O_24  and  C_25
REMARK   13  A    between atoms: C_25  and  C_26
REMARK                            x       y       z     vdW  Elec       q    Type
REMARK                         _______ _______ _______ _____ _____    ______ ____
ROOT
ATOM      1  C   UNL     1       2.552   8.539  17.542  0.00  0.00    +0.000 C 
ATOM      2  C   UNL     1       1.795   9.225  18.664  0.00  0.00    +0.000 C 
ATOM      3  N   UNL     1       1.478  10.453  18.414  0.00  0.00    +0.000 NA
ATOM      4  C   UNL     1       0.740  11.195  19.299  0.00  0.00    +0.000 C 
ATOM      5  C   UNL     1       0.416  12.574  18.777  0.00  0.00    +0.000 C 
ATOM      6  C   UNL     1       0.366  10.734  20.510  0.00  0.00    +0.000 C 
ATOM      7  C   UNL     1       0.818   9.378  21.008  0.00  0.00    +0.000 C 
ATOM      8  C   UNL     1       1.834   9.558  22.153  0.00  0.00    +0.000 C 
ATOM      9  C   UNL     1       1.444   8.491  19.938  0.00  0.00    +0.000 C 
ATOM     10  C   UNL     1       1.704   7.173  20.133  0.00  0.00    +0.000 C 
ENDROOT
BRANCH   6  11
ATOM     11  C   UNL     1      -0.431  11.592  21.442  0.00  0.00    +0.000 C 
ATOM     12  O   UNL     1       0.039  12.370  22.256  0.00  0.00    +0.000 OA
BRANCH  11  13
ATOM     13  O   UNL     1      -1.757  11.303  21.334  0.00  0.00    +0.000 OA
BRANCH  13  14
ATOM     14  C   UNL     1      -2.633  12.440  21.479  0.00  0.00    +0.000 C 
BRANCH  14  15
ATOM     15  C   UNL     1      -2.992  13.067  20.137  0.00  0.00    +0.000 C 
BRANCH  15  16
ATOM     16  S   UNL     1      -4.405  12.138  19.434  0.00  0.00    +0.000 S 
BRANCH  16  17
ATOM     17  C   UNL     1      -3.740  11.363  17.968  0.00  0.00    +0.000 A 
ATOM     18  C   UNL     1      -4.250  11.532  16.679  0.00  0.00    +0.000 A 
ATOM     19  C   UNL     1      -3.658  10.887  15.588  0.00  0.00    +0.000 A 
ATOM     20  C   UNL     1      -2.548  10.067  15.774  0.00  0.00    +0.000 A 
ATOM     21  C   UNL     1      -2.029   9.888  17.053  0.00  0.00    +0.000 A 
ATOM     22  C   UNL     1      -2.623  10.531  18.142  0.00  0.00    +0.000 A 
ENDBRANCH  16  17
ENDBRANCH  15  16
ENDBRANCH  14  15
ENDBRANCH  13  14
ENDBRANCH  11  13
ENDBRANCH   6  11
BRANCH  10  23
ATOM     23  O   UNL     1       1.348   6.499  21.285  0.00  0.00    +0.000 OA
ATOM     24  H   UNL     1       0.561   5.955  21.135  0.00  0.00    +0.000 HD
ENDBRANCH  10  23
BRANCH  10  25
ATOM     25  O   UNL     1       2.377   6.456  19.179  0.00  0.00    +0.000 OA
BRANCH  25  26
ATOM     26  C   UNL     1       3.444   5.622  19.634  0.00  0.00    +0.000 C 
BRANCH  26  27
ATOM     27  C   UNL     1       3.567   4.477  18.633  0.00  0.00    +0.000 C 
ATOM     28  C   UNL     1       2.293   4.259  17.837  0.00  0.00    +0.000 C 
ATOM     29  C   UNL     1       2.457   2.836  17.377  0.00  0.00    +0.000 C 
ATOM     30  C   UNL     1       3.169   2.189  18.548  0.00  0.00    +0.000 C 
ATOM     31  O   UNL     1       3.849   3.226  19.277  0.00  0.00    +0.000 OA
ENDBRANCH  26  27
ENDBRANCH  25  26
ENDBRANCH  10  25
TORSDOF 10
ENDMDL
MODEL 7
REMARK VINA RESULT:      -6.6      2.001      3.043
REMARK  Name = 
REMARK  13 active torsions:
REMARK  status: ('A' for Active; 'I' for Inactive)
REMARK    1  A    between atoms: C_1  and  C_2
REMARK    2  A    between atoms: C_4  and  C_5
REMARK    3  A    between atoms: C_6  and  C_7
REMARK    4  A    between atoms: C_7  and  O_9
REMARK    5  A    between atoms: O_9  and  C_10
REMARK    6  A    between atoms: C_10  and  C_11
REMARK    7  A    between atoms: C_11  and  S_12
REMARK    8  A    between atoms: S_12  and  C_13
REMARK    9  A    between atoms: C_19  and  C_20
REMARK   10  A    between atoms: C_22  and  O_23
REMARK   11  A    between atoms: C_22  and  O_24
REMARK   12  A    between atoms: O_24  and  C_25
REMARK   13  A    between atoms: C_25  and  C_26
REMARK                            x       y       z     vdW  Elec       q    Type
REMARK                         _______ _______ _______ _____ _____    ______ ____
ROOT
ATOM      1  C   UNL     1       1.097   8.891  21.643  0.00  0.00    +0.000 C 
ATOM      2  C   UNL     1       1.489   7.870  20.591  0.00  0.00    +0.000 C 
ATOM      3  N   UNL     1       1.588   6.662  21.038  0.00  0.00    +0.000 NA
ATOM      4  C   UNL     1       1.874   5.612  20.204  0.00  0.00    +0.000 C 
ATOM      5  C   UNL     1       1.866   4.281  20.917  0.00  0.00    +0.000 C 
ATOM      6  C   UNL     1       2.149   5.770  18.893  0.00  0.00    +0.000 C 
ATOM      7  C   UNL     1       2.243   7.147  18.272  0.00  0.00    +0.000 C 
ATOM      8  C   UNL     1       3.710   7.455  17.912  0.00  0.00    +0.000 C 
ATOM      9  C   UNL     1       1.713   8.273  19.151  0.00  0.00    +0.000 C 
ATOM     10  C   UNL     1       1.506   9.533  18.691  0.00  0.00    +0.000 C 
ENDROOT
BRANCH   6  11
ATOM     11  C   UNL     1       2.466   4.589  18.030  0.00  0.00    +0.000 C 
ATOM     12  O   UNL     1       1.653   3.963  17.371  0.00  0.00    +0.000 OA
BRANCH  11  13
ATOM     13  O   UNL     1       3.773   4.237  18.171  0.00  0.00    +0.000 OA
BRANCH  13  14
ATOM     14  C   UNL     1       4.418   3.821  16.950  0.00  0.00    +0.000 C 
BRANCH  14  15
ATOM     15  C   UNL     1       5.927   4.030  16.993  0.00  0.00    +0.000 C 
BRANCH  15  16
ATOM     16  S   UNL     1       6.324   5.517  16.001  0.00  0.00    +0.000 S 
BRANCH  16  17
ATOM     17  C   UNL     1       6.585   4.892  14.349  0.00  0.00    +0.000 A 
ATOM     18  C   UNL     1       7.635   5.275  13.511  0.00  0.00    +0.000 A 
ATOM     19  C   UNL     1       7.762   4.726  12.231  0.00  0.00    +0.000 A 
ATOM     20  C   UNL     1       6.841   3.785  11.775  0.00  0.00    +0.000 A 
ATOM     21  C   UNL     1       5.790   3.394  12.598  0.00  0.00    +0.000 A 
ATOM     22  C   UNL     1       5.663   3.946  13.876  0.00  0.00    +0.000 A 
ENDBRANCH  16  17
ENDBRANCH  15  16
ENDBRANCH  14  15
ENDBRANCH  13  14
ENDBRANCH  11  13
ENDBRANCH   6  11
BRANCH  10  23
ATOM     23  O   UNL     1       1.676   9.887  17.366  0.00  0.00    +0.000 OA
ATOM     24  H   UNL     1       1.976   9.128  16.843  0.00  0.00    +0.000 HD
ENDBRANCH  10  23
BRANCH  10  25
ATOM     25  O   UNL     1       1.143  10.532  19.556  0.00  0.00    +0.000 OA
BRANCH  25  26
ATOM     26  C   UNL     1       1.305  11.873  19.095  0.00  0.00    +0.000 C 
BRANCH  26  27
ATOM     27  C   UNL     1       0.853  12.788  20.230  0.00  0.00    +0.000 C 
ATOM     28  C   UNL     1       0.353  14.132  19.732  0.00  0.00    +0.000 C 
ATOM     29  C   UNL     1       0.502  14.990  20.958  0.00  0.00    +0.000 C 
ATOM     30  C   UNL     1       1.755  14.432  21.604  0.00  0.00    +0.000 C 
ATOM     31  O   UNL     1       1.920  13.079  21.144  0.00  0.00    +0.000 OA
ENDBRANCH  26  27
ENDBRANCH  25  26
ENDBRANCH  10  25
TORSDOF 10
ENDMDL
MODEL 8
REMARK VINA RESULT:      -6.6      3.240      9.263
REMARK  Name = 
REMARK  13 active torsions:
REMARK  status: ('A' for Active; 'I' for Inactive)
REMARK    1  A    between atoms: C_1  and  C_2
REMARK    2  A    between atoms: C_4  and  C_5
REMARK    3  A    between atoms: C_6  and  C_7
REMARK    4  A    between atoms: C_7  and  O_9
REMARK    5  A    between atoms: O_9  and  C_10
REMARK    6  A    between atoms: C_10  and  C_11
REMARK    7  A    between atoms: C_11  and  S_12
REMARK    8  A    between atoms: S_12  and  C_13
REMARK    9  A    between atoms: C_19  and  C_20
REMARK   10  A    between atoms: C_22  and  O_23
REMARK   11  A    between atoms: C_22  and  O_24
REMARK   12  A    between atoms: O_24  and  C_25
REMARK   13  A    between atoms: C_25  and  C_26
REMARK                            x       y       z     vdW  Elec       q    Type
REMARK                         _______ _______ _______ _____ _____    ______ ____
ROOT
ATOM      1  C   UNL     1       2.214   5.425  20.710  0.00  0.00    +0.000 C 
ATOM      2  C   UNL     1       1.839   6.849  20.342  0.00  0.00    +0.000 C 
ATOM      3  N   UNL     1       1.039   7.418  21.182  0.00  0.00    +0.000 NA
ATOM      4  C   UNL     1       0.651   8.724  21.026  0.00  0.00    +0.000 C 
ATOM      5  C   UNL     1      -0.221   9.212  22.159  0.00  0.00    +0.000 C 
ATOM      6  C   UNL     1       1.005   9.473  19.963  0.00  0.00    +0.000 C 
ATOM      7  C   UNL     1       1.794   8.883  18.815  0.00  0.00    +0.000 C 
ATOM      8  C   UNL     1       0.894   8.772  17.569  0.00  0.00    +0.000 C 
ATOM      9  C   UNL     1       2.395   7.512  19.103  0.00  0.00    +0.000 C 
ATOM     10  C   UNL     1       3.311   6.923  18.292  0.00  0.00    +0.000 C 
ENDROOT
BRANCH   6  11
ATOM     11  C   UNL     1       0.544  10.892  19.840  0.00  0.00    +0.000 C 
ATOM     12  O   UNL     1       1.269  11.872  19.885  0.00  0.00    +0.000 OA
BRANCH  11  13
ATOM     13  O   UNL     1      -0.815  10.944  19.782  0.00  0.00    +0.000 OA
BRANCH  13  14
ATOM     14  C   UNL     1      -1.345  11.384  18.515  0.00  0.00    +0.000 C 
BRANCH  14  15
ATOM     15  C   UNL     1      -2.379  10.414  17.954  0.00  0.00    +0.000 C 
BRANCH  15  16
ATOM     16  S   UNL     1      -3.757  11.395  17.251  0.00  0.00    +0.000 S 
BRANCH  16  17
ATOM     17  C   UNL     1      -4.937  11.520  18.585  0.00  0.00    +0.000 A 
ATOM     18  C   UNL     1      -4.801  12.363  19.690  0.00  0.00    +0.000 A 
ATOM     19  C   UNL     1      -5.783  12.397  20.686  0.00  0.00    +0.000 A 
ATOM     20  C   UNL     1      -6.914  11.590  20.586  0.00  0.00    +0.000 A 
ATOM     21  C   UNL     1      -7.064  10.745  19.490  0.00  0.00    +0.000 A 
ATOM     22  C   UNL     1      -6.080  10.711  18.498  0.00  0.00    +0.000 A 
ENDBRANCH  16  17
ENDBRANCH  15  16
ENDBRANCH  14  15
ENDBRANCH  13  14
ENDBRANCH  11  13
ENDBRANCH   6  11
BRANCH  10  23
ATOM     23  O   UNL     1       3.844   7.549  17.181  0.00  0.00    +0.000 OA
ATOM     24  H   UNL     1       4.664   8.012  17.407  0.00  0.00    +0.000 HD
ENDBRANCH  10  23
BRANCH  10  25
ATOM     25  O   UNL     1       3.726   5.640  18.538  0.00  0.00    +0.000 OA
BRANCH  25  26
ATOM     26  C   UNL     1       4.062   4.844  17.401  0.00  0.00    +0.000 C 
BRANCH  26  27
ATOM     27  C   UNL     1       3.300   3.529  17.543  0.00  0.00    +0.000 C 
ATOM     28  C   UNL     1       1.814   3.737  17.769  0.00  0.00    +0.000 C 
ATOM     29  C   UNL     1       1.413   2.433  18.402  0.00  0.00    +0.000 C 
ATOM     30  C   UNL     1       2.632   2.079  19.231  0.00  0.00    +0.000 C 
ATOM     31  O   UNL     1       3.764   2.755  18.658  0.00  0.00    +0.000 OA
ENDBRANCH  26  27
ENDBRANCH  25  26
ENDBRANCH  10  25
TORSDOF 10
ENDMDL
MODEL 9
REMARK VINA RESULT:      -6.5      3.214      6.407
REMARK  Name = 
REMARK  13 active torsions:
REMARK  status: ('A' for Active; 'I' for Inactive)
REMARK    1  A    between atoms: C_1  and  C_2
REMARK    2  A    between atoms: C_4  and  C_5
REMARK    3  A    between atoms: C_6  and  C_7
REMARK    4  A    between atoms: C_7  and  O_9
REMARK    5  A    between atoms: O_9  and  C_10
REMARK    6  A    between atoms: C_10  and  C_11
REMARK    7  A    between atoms: C_11  and  S_12
REMARK    8  A    between atoms: S_12  and  C_13
REMARK    9  A    between atoms: C_19  and  C_20
REMARK   10  A    between atoms: C_22  and  O_23
REMARK   11  A    between atoms: C_22  and  O_24
REMARK   12  A    between atoms: O_24  and  C_25
REMARK   13  A    between atoms: C_25  and  C_26
REMARK                            x       y       z     vdW  Elec       q    Type
REMARK                         _______ _______ _______ _____ _____    ______ ____
ROOT
ATOM      1  C   UNL     1       7.638   5.853  19.161  0.00  0.00    +0.000 C 
ATOM      2  C   UNL     1       6.413   5.133  18.630  0.00  0.00    +0.000 C 
ATOM      3  N   UNL     1       6.014   4.152  19.370  0.00  0.00    +0.000 NA
ATOM      4  C   UNL     1       4.885   3.438  19.062  0.00  0.00    +0.000 C 
ATOM      5  C   UNL     1       4.557   2.390  20.099  0.00  0.00    +0.000 C 
ATOM      6  C   UNL     1       4.165   3.648  17.941  0.00  0.00    +0.000 C 
ATOM      7  C   UNL     1       4.616   4.645  16.896  0.00  0.00    +0.000 C 
ATOM      8  C   UNL     1       5.083   3.897  15.632  0.00  0.00    +0.000 C 
ATOM      9  C   UNL     1       5.736   5.573  17.351  0.00  0.00    +0.000 C 
ATOM     10  C   UNL     1       6.120   6.668  16.646  0.00  0.00    +0.000 C 
ENDROOT
BRANCH   6  11
ATOM     11  C   UNL     1       2.947   2.831  17.650  0.00  0.00    +0.000 C 
ATOM     12  O   UNL     1       2.876   1.617  17.744  0.00  0.00    +0.000 OA
BRANCH  11  13
ATOM     13  O   UNL     1       1.954   3.621  17.156  0.00  0.00    +0.000 OA
BRANCH  13  14
ATOM     14  C   UNL     1       1.541   4.687  18.035  0.00  0.00    +0.000 C 
BRANCH  14  15
ATOM     15  C   UNL     1       1.334   4.207  19.468  0.00  0.00    +0.000 C 
BRANCH  15  16
ATOM     16  S   UNL     1       2.185   5.380  20.588  0.00  0.00    +0.000 S 
BRANCH  16  17
ATOM     17  C   UNL     1       2.016   6.965  19.783  0.00  0.00    +0.000 A 
ATOM     18  C   UNL     1       1.257   8.029  20.274  0.00  0.00    +0.000 A 
ATOM     19  C   UNL     1       1.188   9.238  19.575  0.00  0.00    +0.000 A 
ATOM     20  C   UNL     1       1.879   9.397  18.376  0.00  0.00    +0.000 A 
ATOM     21  C   UNL     1       2.639   8.345  17.873  0.00  0.00    +0.000 A 
ATOM     22  C   UNL     1       2.705   7.137  18.572  0.00  0.00    +0.000 A 
ENDBRANCH  16  17
ENDBRANCH  15  16
ENDBRANCH  14  15
ENDBRANCH  13  14
ENDBRANCH  11  13
ENDBRANCH   6  11
BRANCH  10  23
ATOM     23  O   UNL     1       5.474   7.087  15.499  0.00  0.00    +0.000 OA
ATOM     24  H   UNL     1       5.509   6.402  14.815  0.00  0.00    +0.000 HD
ENDBRANCH  10  23
BRANCH  10  25
ATOM     25  O   UNL     1       7.211   7.396  17.043  0.00  0.00    +0.000 OA
BRANCH  25  26
ATOM     26  C   UNL     1       6.952   8.650  17.675  0.00  0.00    +0.000 C 
BRANCH  26  27
ATOM     27  C   UNL     1       8.274   9.413  17.700  0.00  0.00    +0.000 C 
ATOM     28  C   UNL     1       8.940   9.381  19.064  0.00  0.00    +0.000 C 
ATOM     29  C   UNL     1       9.846  10.579  18.992  0.00  0.00    +0.000 C 
ATOM     30  C   UNL     1       9.036  11.558  18.165  0.00  0.00    +0.000 C 
ATOM     31  O   UNL     1       8.102  10.800  17.378  0.00  0.00    +0.000 OA
ENDBRANCH  26  27
ENDBRANCH  25  26
ENDBRANCH  10  25
TORSDOF 10
ENDMDL
