MODEL 1
REMARK VINA RESULT:      -7.7      0.000      0.000
REMARK  Name = 
REMARK  6 active torsions:
REMARK  status: ('A' for Active; 'I' for Inactive)
REMARK    1  A    between atoms: C_1  and  O_2
REMARK    2  A    between atoms: O_2  and  C_3
REMARK    3  A    between atoms: C_8  and  N_9
REMARK    4  A    between atoms: C_10  and  C_12
REMARK    5  A    between atoms: C_12  and  N_13
REMARK    6  A    between atoms: N_16  and  C_17
REMARK                            x       y       z     vdW  Elec       q    Type
REMARK                         _______ _______ _______ _____ _____    ______ ____
ROOT
ATOM      1  N   UNL     1       6.800   8.029  17.050  0.00  0.00    +0.000 N 
ATOM      2  C   UNL     1       7.807   8.315  17.959  0.00  0.00    +0.000 C 
ATOM      3  O   UNL     1       8.428   7.478  18.613  0.00  0.00    +0.000 OA
ATOM      4  H   UNL     1       6.182   8.813  16.887  0.00  0.00    +0.000 HD
ENDROOT
BRANCH   1  10
ATOM      5  C   UNL     1       3.261   4.673  17.662  0.00  0.00    +0.000 A 
ATOM      6  C   UNL     1       2.399   5.669  18.130  0.00  0.00    +0.000 A 
ATOM      7  C   UNL     1       2.746   7.006  18.026  0.00  0.00    +0.000 A 
ATOM      8  C   UNL     1       3.998   7.360  17.538  0.00  0.00    +0.000 A 
ATOM      9  C   UNL     1       4.953   6.387  17.166  0.00  0.00    +0.000 A 
ATOM     10  C   UNL     1       6.302   6.706  16.846  0.00  0.00    +0.000 A 
ATOM     11  C   UNL     1       7.165   5.699  16.385  0.00  0.00    +0.000 A 
ATOM     12  C   UNL     1       6.740   4.377  16.297  0.00  0.00    +0.000 A 
ATOM     13  C   UNL     1       5.451   4.035  16.717  0.00  0.00    +0.000 A 
ATOM     14  C   UNL     1       4.549   5.019  17.173  0.00  0.00    +0.000 A 
BRANCH   5  16
ATOM     15  C   UNL     1       2.509   2.856  18.992  0.00  0.00    +0.000 C 
ATOM     16  O   UNL     1       2.942   3.335  17.722  0.00  0.00    +0.000 OA
ENDBRANCH   5  16
ENDBRANCH   1  10
BRANCH   2  17
ATOM     17  C   UNL     1       8.168   9.806  18.078  0.00  0.00    +0.000 C 
BRANCH  17  18
ATOM     18  N   UNL     1       9.498  10.084  18.687  0.00  0.00    +0.000 NA
ATOM     19  C   UNL     1      10.382  10.903  17.826  0.00  0.00    +0.000 C 
ATOM     20  C   UNL     1      10.159  12.453  17.785  0.00  0.00    +0.000 C 
ATOM     21  N   UNL     1       9.844  13.160  19.058  0.00  0.00    +0.000 NA
ATOM     22  C   UNL     1       8.898  12.313  19.811  0.00  0.00    +0.000 C 
ATOM     23  C   UNL     1       9.318  10.825  19.964  0.00  0.00    +0.000 C 
BRANCH  21  24
ATOM     24  C   UNL     1      11.042  13.622  19.810  0.00  0.00    +0.000 C 
ATOM     25  C   UNL     1      12.073  14.353  18.902  0.00  0.00    +0.000 C 
ATOM     26  C   UNL     1      11.614  15.729  18.414  0.00  0.00    +0.000 C 
ATOM     27  C   UNL     1      11.222  16.661  19.553  0.00  0.00    +0.000 C 
ATOM     28  C   UNL     1      10.318  16.001  20.589  0.00  0.00    +0.000 C 
ATOM     29  C   UNL     1      10.781  14.597  20.994  0.00  0.00    +0.000 C 
ENDBRANCH  21  24
ENDBRANCH  17  18
ENDBRANCH   2  17
TORSDOF 5
ENDMDL
MODEL 2
REMARK VINA RESULT:      -7.5      6.090      8.510
REMARK  Name = 
REMARK  6 active torsions:
REMARK  status: ('A' for Active; 'I' for Inactive)
REMARK    1  A    between atoms: C_1  and  O_2
REMARK    2  A    between atoms: O_2  and  C_3
REMARK    3  A    between atoms: C_8  and  N_9
REMARK    4  A    between atoms: C_10  and  C_12
REMARK    5  A    between atoms: C_12  and  N_13
REMARK    6  A    between atoms: N_16  and  C_17
REMARK                            x       y       z     vdW  Elec       q    Type
REMARK                         _______ _______ _______ _____ _____    ______ ____
ROOT
ATOM      1  N   UNL     1       2.662   6.930  19.088  0.00  0.00    +0.000 N 
ATOM      2  C   UNL     1       1.970   6.889  20.289  0.00  0.00    +0.000 C 
ATOM      3  O   UNL     1       1.671   5.862  20.898  0.00  0.00    +0.000 OA
ATOM      4  H   UNL     1       2.507   7.788  18.575  0.00  0.00    +0.000 HD
ENDROOT
BRANCH   1  10
ATOM      5  C   UNL     1       5.770   4.531  16.132  0.00  0.00    +0.000 A 
ATOM      6  C   UNL     1       6.712   5.550  16.296  0.00  0.00    +0.000 A 
ATOM      7  C   UNL     1       6.521   6.538  17.248  0.00  0.00    +0.000 A 
ATOM      8  C   UNL     1       5.343   6.571  17.984  0.00  0.00    +0.000 A 
ATOM      9  C   UNL     1       4.306   5.634  17.771  0.00  0.00    +0.000 A 
ATOM     10  C   UNL     1       3.020   5.751  18.366  0.00  0.00    +0.000 A 
ATOM     11  C   UNL     1       2.076   4.727  18.191  0.00  0.00    +0.000 A 
ATOM     12  C   UNL     1       2.356   3.625  17.388  0.00  0.00    +0.000 A 
ATOM     13  C   UNL     1       3.576   3.557  16.707  0.00  0.00    +0.000 A 
ATOM     14  C   UNL     1       4.556   4.558  16.868  0.00  0.00    +0.000 A 
BRANCH   5  16
ATOM     15  C   UNL     1       6.276   3.921  13.894  0.00  0.00    +0.000 C 
ATOM     16  O   UNL     1       5.935   3.515  15.217  0.00  0.00    +0.000 OA
ENDBRANCH   5  16
ENDBRANCH   1  10
BRANCH   2  17
ATOM     17  C   UNL     1       1.625   8.264  20.887  0.00  0.00    +0.000 C 
BRANCH  17  18
ATOM     18  N   UNL     1       0.190   8.647  20.792  0.00  0.00    +0.000 NA
ATOM     19  C   UNL     1      -0.454   8.857  22.109  0.00  0.00    +0.000 C 
ATOM     20  C   UNL     1      -0.216  10.215  22.851  0.00  0.00    +0.000 C 
ATOM     21  N   UNL     1      -0.211  11.472  22.050  0.00  0.00    +0.000 NA
ATOM     22  C   UNL     1       0.519  11.194  20.797  0.00  0.00    +0.000 C 
ATOM     23  C   UNL     1       0.063   9.921  20.033  0.00  0.00    +0.000 C 
BRANCH  21  24
ATOM     24  C   UNL     1      -1.552  12.100  21.895  0.00  0.00    +0.000 C 
ATOM     25  C   UNL     1      -2.069  12.741  23.215  0.00  0.00    +0.000 C 
ATOM     26  C   UNL     1      -1.315  14.005  23.635  0.00  0.00    +0.000 C 
ATOM     27  C   UNL     1      -1.299  15.073  22.550  0.00  0.00    +0.000 C 
ATOM     28  C   UNL     1      -0.942  14.527  21.171  0.00  0.00    +0.000 C 
ATOM     29  C   UNL     1      -1.669  13.223  20.826  0.00  0.00    +0.000 C 
ENDBRANCH  21  24
ENDBRANCH  17  18
ENDBRANCH   2  17
TORSDOF 5
ENDMDL
MODEL 3
REMARK VINA RESULT:      -7.5      2.173     10.136
REMARK  Name = 
REMARK  6 active torsions:
REMARK  status: ('A' for Active; 'I' for Inactive)
REMARK    1  A    between atoms: C_1  and  O_2
REMARK    2  A    between atoms: O_2  and  C_3
REMARK    3  A    between atoms: C_8  and  N_9
REMARK    4  A    between atoms: C_10  and  C_12
REMARK    5  A    between atoms: C_12  and  N_13
REMARK    6  A    between atoms: N_16  and  C_17
REMARK                            x       y       z     vdW  Elec       q    Type
REMARK                         _______ _______ _______ _____ _____    ______ ____
ROOT
ATOM      1  N   UNL     1       9.018   9.050  19.156  0.00  0.00    +0.000 N 
ATOM      2  C   UNL     1       8.231   8.478  18.168  0.00  0.00    +0.000 C 
ATOM      3  O   UNL     1       7.928   9.017  17.104  0.00  0.00    +0.000 OA
ATOM      4  H   UNL     1       8.869   8.636  20.067  0.00  0.00    +0.000 HD
ENDROOT
BRANCH   1  10
ATOM      5  C   UNL     1       9.287  13.576  21.054  0.00  0.00    +0.000 A 
ATOM      6  C   UNL     1       8.726  13.109  22.245  0.00  0.00    +0.000 A 
ATOM      7  C   UNL     1       8.567  11.751  22.464  0.00  0.00    +0.000 A 
ATOM      8  C   UNL     1       8.883  10.847  21.456  0.00  0.00    +0.000 A 
ATOM      9  C   UNL     1       9.339  11.275  20.189  0.00  0.00    +0.000 A 
ATOM     10  C   UNL     1       9.488  10.397  19.080  0.00  0.00    +0.000 A 
ATOM     11  C   UNL     1      10.045  10.874  17.884  0.00  0.00    +0.000 A 
ATOM     12  C   UNL     1      10.395  12.213  17.741  0.00  0.00    +0.000 A 
ATOM     13  C   UNL     1      10.147  13.109  18.787  0.00  0.00    +0.000 A 
ATOM     14  C   UNL     1       9.602  12.665  20.010  0.00  0.00    +0.000 A 
BRANCH   5  16
ATOM     15  C   UNL     1      10.529  15.536  21.557  0.00  0.00    +0.000 C 
ATOM     16  O   UNL     1       9.487  14.917  20.808  0.00  0.00    +0.000 OA
ENDBRANCH   5  16
ENDBRANCH   1  10
BRANCH   2  17
ATOM     17  C   UNL     1       7.775   7.036  18.456  0.00  0.00    +0.000 C 
BRANCH  17  18
ATOM     18  N   UNL     1       7.056   6.370  17.336  0.00  0.00    +0.000 NA
ATOM     19  C   UNL     1       7.044   4.891  17.438  0.00  0.00    +0.000 C 
ATOM     20  C   UNL     1       6.014   4.217  18.406  0.00  0.00    +0.000 C 
ATOM     21  N   UNL     1       4.632   4.770  18.472  0.00  0.00    +0.000 NA
ATOM     22  C   UNL     1       4.744   6.242  18.447  0.00  0.00    +0.000 C 
ATOM     23  C   UNL     1       5.638   6.820  17.316  0.00  0.00    +0.000 C 
BRANCH  21  24
ATOM     24  C   UNL     1       3.690   4.174  17.485  0.00  0.00    +0.000 C 
ATOM     25  C   UNL     1       3.755   2.620  17.459  0.00  0.00    +0.000 C 
ATOM     26  C   UNL     1       3.174   1.947  18.706  0.00  0.00    +0.000 C 
ATOM     27  C   UNL     1       1.739   2.370  18.992  0.00  0.00    +0.000 C 
ATOM     28  C   UNL     1       1.525   3.878  18.903  0.00  0.00    +0.000 C 
ATOM     29  C   UNL     1       2.184   4.514  17.675  0.00  0.00    +0.000 C 
ENDBRANCH  21  24
ENDBRANCH  17  18
ENDBRANCH   2  17
TORSDOF 5
ENDMDL
MODEL 4
REMARK VINA RESULT:      -7.4      6.796      9.072
REMARK  Name = 
REMARK  6 active torsions:
REMARK  status: ('A' for Active; 'I' for Inactive)
REMARK    1  A    between atoms: C_1  and  O_2
REMARK    2  A    between atoms: O_2  and  C_3
REMARK    3  A    between atoms: C_8  and  N_9
REMARK    4  A    between atoms: C_10  and  C_12
REMARK    5  A    between atoms: C_12  and  N_13
REMARK    6  A    between atoms: N_16  and  C_17
REMARK                            x       y       z     vdW  Elec       q    Type
REMARK                         _______ _______ _______ _____ _____    ______ ____
ROOT
ATOM      1  N   UNL     1       2.132   8.008  19.358  0.00  0.00    +0.000 N 
ATOM      2  C   UNL     1       1.671   9.073  18.599  0.00  0.00    +0.000 C 
ATOM      3  O   UNL     1       1.689   9.125  17.369  0.00  0.00    +0.000 OA
ATOM      4  H   UNL     1       2.367   8.273  20.305  0.00  0.00    +0.000 HD
ENDROOT
BRANCH   1  10
ATOM      5  C   UNL     1       3.433   3.273  19.587  0.00  0.00    +0.000 A 
ATOM      6  C   UNL     1       2.597   3.098  20.695  0.00  0.00    +0.000 A 
ATOM      7  C   UNL     1       1.711   4.093  21.071  0.00  0.00    +0.000 A 
ATOM      8  C   UNL     1       1.712   5.312  20.402  0.00  0.00    +0.000 A 
ATOM      9  C   UNL     1       2.621   5.583  19.354  0.00  0.00    +0.000 A 
ATOM     10  C   UNL     1       2.779   6.874  18.779  0.00  0.00    +0.000 A 
ATOM     11  C   UNL     1       3.626   7.044  17.672  0.00  0.00    +0.000 A 
ATOM     12  C   UNL     1       4.365   5.980  17.167  0.00  0.00    +0.000 A 
ATOM     13  C   UNL     1       4.304   4.732  17.796  0.00  0.00    +0.000 A 
ATOM     14  C   UNL     1       3.454   4.518  18.902  0.00  0.00    +0.000 A 
BRANCH   5  16
ATOM     15  C   UNL     1       3.742   1.252  18.380  0.00  0.00    +0.000 C 
ATOM     16  O   UNL     1       4.309   2.299  19.164  0.00  0.00    +0.000 OA
ENDBRANCH   5  16
ENDBRANCH   1  10
BRANCH   2  17
ATOM     17  C   UNL     1       1.053  10.227  19.407  0.00  0.00    +0.000 C 
BRANCH  17  18
ATOM     18  N   UNL     1      -0.320   9.970  19.920  0.00  0.00    +0.000 NA
ATOM     19  C   UNL     1      -0.419  10.023  21.397  0.00  0.00    +0.000 C 
ATOM     20  C   UNL     1      -0.502  11.425  22.091  0.00  0.00    +0.000 C 
ATOM     21  N   UNL     1      -1.337  12.484  21.458  0.00  0.00    +0.000 NA
ATOM     22  C   UNL     1      -1.114  12.410  20.000  0.00  0.00    +0.000 C 
ATOM     23  C   UNL     1      -1.254  10.993  19.380  0.00  0.00    +0.000 C 
BRANCH  21  24
ATOM     24  C   UNL     1      -2.759  12.480  21.899  0.00  0.00    +0.000 C 
ATOM     25  C   UNL     1      -2.911  12.683  23.434  0.00  0.00    +0.000 C 
ATOM     26  C   UNL     1      -2.566  14.093  23.918  0.00  0.00    +0.000 C 
ATOM     27  C   UNL     1      -3.364  15.176  23.203  0.00  0.00    +0.000 C 
ATOM     28  C   UNL     1      -3.405  14.996  21.689  0.00  0.00    +0.000 C 
ATOM     29  C   UNL     1      -3.684  13.553  21.255  0.00  0.00    +0.000 C 
ENDBRANCH  21  24
ENDBRANCH  17  18
ENDBRANCH   2  17
TORSDOF 5
ENDMDL
MODEL 5
REMARK VINA RESULT:      -7.4      6.339      8.399
REMARK  Name = 
REMARK  6 active torsions:
REMARK  status: ('A' for Active; 'I' for Inactive)
REMARK    1  A    between atoms: C_1  and  O_2
REMARK    2  A    between atoms: O_2  and  C_3
REMARK    3  A    between atoms: C_8  and  N_9
REMARK    4  A    between atoms: C_10  and  C_12
REMARK    5  A    between atoms: C_12  and  N_13
REMARK    6  A    between atoms: N_16  and  C_17
REMARK                            x       y       z     vdW  Elec       q    Type
REMARK                         _______ _______ _______ _____ _____    ______ ____
ROOT
ATOM      1  N   UNL     1       1.935   5.843  19.071  0.00  0.00    +0.000 N 
ATOM      2  C   UNL     1       1.841   5.904  20.453  0.00  0.00    +0.000 C 
ATOM      3  O   UNL     1       2.447   5.173  21.235  0.00  0.00    +0.000 OA
ATOM      4  H   UNL     1       1.134   6.249  18.604  0.00  0.00    +0.000 HD
ENDROOT
BRANCH   1  10
ATOM      5  C   UNL     1       5.641   4.571  16.103  0.00  0.00    +0.000 A 
ATOM      6  C   UNL     1       6.142   5.874  16.171  0.00  0.00    +0.000 A 
ATOM      7  C   UNL     1       5.621   6.782  17.079  0.00  0.00    +0.000 A 
ATOM      8  C   UNL     1       4.532   6.426  17.866  0.00  0.00    +0.000 A 
ATOM      9  C   UNL     1       3.911   5.162  17.748  0.00  0.00    +0.000 A 
ATOM     10  C   UNL     1       2.687   4.835  18.395  0.00  0.00    +0.000 A 
ATOM     11  C   UNL     1       2.186   3.527  18.315  0.00  0.00    +0.000 A 
ATOM     12  C   UNL     1       2.834   2.556  17.558  0.00  0.00    +0.000 A 
ATOM     13  C   UNL     1       3.977   2.897  16.826  0.00  0.00    +0.000 A 
ATOM     14  C   UNL     1       4.520   4.198  16.891  0.00  0.00    +0.000 A 
BRANCH   5  16
ATOM     15  C   UNL     1       6.034   3.941  13.848  0.00  0.00    +0.000 C 
ATOM     16  O   UNL     1       6.148   3.631  15.234  0.00  0.00    +0.000 OA
ENDBRANCH   5  16
ENDBRANCH   1  10
BRANCH   2  17
ATOM     17  C   UNL     1       0.939   7.027  20.993  0.00  0.00    +0.000 C 
BRANCH  17  18
ATOM     18  N   UNL     1       1.536   8.390  20.947  0.00  0.00    +0.000 NA
ATOM     19  C   UNL     1       1.006   9.231  19.849  0.00  0.00    +0.000 C 
ATOM     20  C   UNL     1      -0.384   9.926  20.043  0.00  0.00    +0.000 C 
ATOM     21  N   UNL     1      -0.705  10.516  21.373  0.00  0.00    +0.000 NA
ATOM     22  C   UNL     1      -0.216   9.577  22.402  0.00  0.00    +0.000 C 
ATOM     23  C   UNL     1       1.252   9.102  22.222  0.00  0.00    +0.000 C 
BRANCH  21  24
ATOM     24  C   UNL     1      -0.275  11.932  21.530  0.00  0.00    +0.000 C 
ATOM     25  C   UNL     1      -0.657  12.813  20.305  0.00  0.00    +0.000 C 
ATOM     26  C   UNL     1      -2.157  13.084  20.170  0.00  0.00    +0.000 C 
ATOM     27  C   UNL     1      -2.762  13.705  21.423  0.00  0.00    +0.000 C 
ATOM     28  C   UNL     1      -2.337  13.004  22.709  0.00  0.00    +0.000 C 
ATOM     29  C   UNL     1      -0.838  12.692  22.766  0.00  0.00    +0.000 C 
ENDBRANCH  21  24
ENDBRANCH  17  18
ENDBRANCH   2  17
TORSDOF 5
ENDMDL
MODEL 6
REMARK VINA RESULT:      -7.3      0.961      1.408
REMARK  Name = 
REMARK  6 active torsions:
REMARK  status: ('A' for Active; 'I' for Inactive)
REMARK    1  A    between atoms: C_1  and  O_2
REMARK    2  A    between atoms: O_2  and  C_3
REMARK    3  A    between atoms: C_8  and  N_9
REMARK    4  A    between atoms: C_10  and  C_12
REMARK    5  A    between atoms: C_12  and  N_13
REMARK    6  A    between atoms: N_16  and  C_17
REMARK                            x       y       z     vdW  Elec       q    Type
REMARK                         _______ _______ _______ _____ _____    ______ ____
ROOT
ATOM      1  N   UNL     1       7.074   7.470  16.723  0.00  0.00    +0.000 N 
ATOM      2  C   UNL     1       7.914   7.765  17.786  0.00  0.00    +0.000 C 
ATOM      3  O   UNL     1       8.118   7.029  18.751  0.00  0.00    +0.000 OA
ATOM      4  H   UNL     1       6.759   8.295  16.230  0.00  0.00    +0.000 HD
ENDROOT
BRANCH   1  10
ATOM      5  C   UNL     1       2.904   5.142  17.883  0.00  0.00    +0.000 A 
ATOM      6  C   UNL     1       2.341   6.354  18.292  0.00  0.00    +0.000 A 
ATOM      7  C   UNL     1       2.985   7.552  18.030  0.00  0.00    +0.000 A 
ATOM      8  C   UNL     1       4.242   7.547  17.437  0.00  0.00    +0.000 A 
ATOM      9  C   UNL     1       4.907   6.343  17.115  0.00  0.00    +0.000 A 
ATOM     10  C   UNL     1       6.263   6.295  16.687  0.00  0.00    +0.000 A 
ATOM     11  C   UNL     1       6.824   5.073  16.286  0.00  0.00    +0.000 A 
ATOM     12  C   UNL     1       6.094   3.891  16.360  0.00  0.00    +0.000 A 
ATOM     13  C   UNL     1       4.797   3.910  16.887  0.00  0.00    +0.000 A 
ATOM     14  C   UNL     1       4.194   5.120  17.288  0.00  0.00    +0.000 A 
BRANCH   5  16
ATOM     15  C   UNL     1       1.505   3.837  19.290  0.00  0.00    +0.000 C 
ATOM     16  O   UNL     1       2.284   3.931  18.100  0.00  0.00    +0.000 OA
ENDBRANCH   5  16
ENDBRANCH   1  10
BRANCH   2  17
ATOM     17  C   UNL     1       8.664   9.104  17.668  0.00  0.00    +0.000 C 
BRANCH  17  18
ATOM     18  N   UNL     1       8.264  10.137  18.662  0.00  0.00    +0.000 NA
ATOM     19  C   UNL     1       9.272  10.356  19.726  0.00  0.00    +0.000 C 
ATOM     20  C   UNL     1      10.516  11.250  19.404  0.00  0.00    +0.000 C 
ATOM     21  N   UNL     1      10.314  12.485  18.594  0.00  0.00    +0.000 NA
ATOM     22  C   UNL     1       9.363  12.154  17.515  0.00  0.00    +0.000 C 
ATOM     23  C   UNL     1       8.062  11.440  17.974  0.00  0.00    +0.000 C 
BRANCH  21  24
ATOM     24  C   UNL     1       9.988  13.694  19.400  0.00  0.00    +0.000 C 
ATOM     25  C   UNL     1      11.189  14.181  20.261  0.00  0.00    +0.000 C 
ATOM     26  C   UNL     1      12.333  14.796  19.451  0.00  0.00    +0.000 C 
ATOM     27  C   UNL     1      11.877  15.943  18.559  0.00  0.00    +0.000 C 
ATOM     28  C   UNL     1      10.613  15.626  17.767  0.00  0.00    +0.000 C 
ATOM     29  C   UNL     1       9.524  14.948  18.605  0.00  0.00    +0.000 C 
ENDBRANCH  21  24
ENDBRANCH  17  18
ENDBRANCH   2  17
TORSDOF 5
ENDMDL
MODEL 7
REMARK VINA RESULT:      -7.2      6.026      8.054
REMARK  Name = 
REMARK  6 active torsions:
REMARK  status: ('A' for Active; 'I' for Inactive)
REMARK    1  A    between atoms: C_1  and  O_2
REMARK    2  A    between atoms: O_2  and  C_3
REMARK    3  A    between atoms: C_8  and  N_9
REMARK    4  A    between atoms: C_10  and  C_12
REMARK    5  A    between atoms: C_12  and  N_13
REMARK    6  A    between atoms: N_16  and  C_17
REMARK                            x       y       z     vdW  Elec       q    Type
REMARK                         _______ _______ _______ _____ _____    ______ ____
ROOT
ATOM      1  N   UNL     1       2.573   6.627  19.309  0.00  0.00    +0.000 N 
ATOM      2  C   UNL     1       2.154   7.824  18.749  0.00  0.00    +0.000 C 
ATOM      3  O   UNL     1       2.013   8.030  17.544  0.00  0.00    +0.000 OA
ATOM      4  H   UNL     1       2.965   6.742  20.235  0.00  0.00    +0.000 HD
ENDROOT
BRANCH   1  10
ATOM      5  C   UNL     1       5.787   4.567  16.213  0.00  0.00    +0.000 A 
ATOM      6  C   UNL     1       6.676   5.622  16.435  0.00  0.00    +0.000 A 
ATOM      7  C   UNL     1       6.439   6.542  17.443  0.00  0.00    +0.000 A 
ATOM      8  C   UNL     1       5.264   6.471  18.182  0.00  0.00    +0.000 A 
ATOM      9  C   UNL     1       4.276   5.496  17.916  0.00  0.00    +0.000 A 
ATOM     10  C   UNL     1       2.988   5.512  18.519  0.00  0.00    +0.000 A 
ATOM     11  C   UNL     1       2.097   4.453  18.285  0.00  0.00    +0.000 A 
ATOM     12  C   UNL     1       2.428   3.416  17.420  0.00  0.00    +0.000 A 
ATOM     13  C   UNL     1       3.647   3.450  16.734  0.00  0.00    +0.000 A 
ATOM     14  C   UNL     1       4.575   4.489  16.952  0.00  0.00    +0.000 A 
BRANCH   5  16
ATOM     15  C   UNL     1       6.283   4.116  13.936  0.00  0.00    +0.000 C 
ATOM     16  O   UNL     1       5.999   3.616  15.240  0.00  0.00    +0.000 OA
ENDBRANCH   5  16
ENDBRANCH   1  10
BRANCH   2  17
ATOM     17  C   UNL     1       1.801   8.927  19.763  0.00  0.00    +0.000 C 
BRANCH  17  18
ATOM     18  N   UNL     1       0.576   9.708  19.440  0.00  0.00    +0.000 NA
ATOM     19  C   UNL     1      -0.393   9.777  20.558  0.00  0.00    +0.000 C 
ATOM     20  C   UNL     1      -0.132  10.801  21.713  0.00  0.00    +0.000 C 
ATOM     21  N   UNL     1       0.376  12.157  21.360  0.00  0.00    +0.000 NA
ATOM     22  C   UNL     1       1.391  11.986  20.301  0.00  0.00    +0.000 C 
ATOM     23  C   UNL     1       0.952  11.107  19.098  0.00  0.00    +0.000 C 
BRANCH  21  24
ATOM     24  C   UNL     1      -0.694  13.153  21.079  0.00  0.00    +0.000 C 
ATOM     25  C   UNL     1      -1.856  13.090  22.111  0.00  0.00    +0.000 C 
ATOM     26  C   UNL     1      -1.485  13.598  23.507  0.00  0.00    +0.000 C 
ATOM     27  C   UNL     1      -0.925  15.015  23.491  0.00  0.00    +0.000 C 
ATOM     28  C   UNL     1       0.131  15.234  22.413  0.00  0.00    +0.000 C 
ATOM     29  C   UNL     1      -0.257  14.646  21.052  0.00  0.00    +0.000 C 
ENDBRANCH  21  24
ENDBRANCH  17  18
ENDBRANCH   2  17
TORSDOF 5
ENDMDL
MODEL 8
REMARK VINA RESULT:      -7.1      6.536      8.690
REMARK  Name = 
REMARK  6 active torsions:
REMARK  status: ('A' for Active; 'I' for Inactive)
REMARK    1  A    between atoms: C_1  and  O_2
REMARK    2  A    between atoms: O_2  and  C_3
REMARK    3  A    between atoms: C_8  and  N_9
REMARK    4  A    between atoms: C_10  and  C_12
REMARK    5  A    between atoms: C_12  and  N_13
REMARK    6  A    between atoms: N_16  and  C_17
REMARK                            x       y       z     vdW  Elec       q    Type
REMARK                         _______ _______ _______ _____ _____    ______ ____
ROOT
ATOM      1  N   UNL     1       1.985   8.082  19.092  0.00  0.00    +0.000 N 
ATOM      2  C   UNL     1       1.742   9.166  18.261  0.00  0.00    +0.000 C 
ATOM      3  O   UNL     1       2.062   9.233  17.075  0.00  0.00    +0.000 OA
ATOM      4  H   UNL     1       1.984   8.331  20.072  0.00  0.00    +0.000 HD
ENDROOT
BRANCH   1  10
ATOM      5  C   UNL     1       3.236   3.362  19.655  0.00  0.00    +0.000 A 
ATOM      6  C   UNL     1       2.201   3.199  20.580  0.00  0.00    +0.000 A 
ATOM      7  C   UNL     1       1.253   4.193  20.758  0.00  0.00    +0.000 A 
ATOM      8  C   UNL     1       1.381   5.401  20.081  0.00  0.00    +0.000 A 
ATOM      9  C   UNL     1       2.476   5.662  19.227  0.00  0.00    +0.000 A 
ATOM     10  C   UNL     1       2.738   6.944  18.671  0.00  0.00    +0.000 A 
ATOM     11  C   UNL     1       3.784   7.103  17.749  0.00  0.00    +0.000 A 
ATOM     12  C   UNL     1       4.613   6.037  17.416  0.00  0.00    +0.000 A 
ATOM     13  C   UNL     1       4.435   4.798  18.043  0.00  0.00    +0.000 A 
ATOM     14  C   UNL     1       3.386   4.595  18.965  0.00  0.00    +0.000 A 
BRANCH   5  16
ATOM     15  C   UNL     1       3.779   1.316  18.580  0.00  0.00    +0.000 C 
ATOM     16  O   UNL     1       4.182   2.388  19.428  0.00  0.00    +0.000 OA
ENDBRANCH   5  16
ENDBRANCH   1  10
BRANCH   2  17
ATOM     17  C   UNL     1       0.961  10.320  18.913  0.00  0.00    +0.000 C 
BRANCH  17  18
ATOM     18  N   UNL     1       0.969  10.323  20.401  0.00  0.00    +0.000 NA
ATOM     19  C   UNL     1       1.433  11.602  20.988  0.00  0.00    +0.000 C 
ATOM     20  C   UNL     1       0.426  12.799  21.064  0.00  0.00    +0.000 C 
ATOM     21  N   UNL     1      -0.987  12.516  21.442  0.00  0.00    +0.000 NA
ATOM     22  C   UNL     1      -1.390  11.275  20.751  0.00  0.00    +0.000 C 
ATOM     23  C   UNL     1      -0.408  10.081  20.909  0.00  0.00    +0.000 C 
BRANCH  21  24
ATOM     24  C   UNL     1      -1.244  12.556  22.908  0.00  0.00    +0.000 C 
ATOM     25  C   UNL     1      -1.209  14.002  23.482  0.00  0.00    +0.000 C 
ATOM     26  C   UNL     1      -2.394  14.873  23.059  0.00  0.00    +0.000 C 
ATOM     27  C   UNL     1      -3.741  14.247  23.397  0.00  0.00    +0.000 C 
ATOM     28  C   UNL     1      -3.838  12.776  23.005  0.00  0.00    +0.000 C 
ATOM     29  C   UNL     1      -2.599  11.961  23.389  0.00  0.00    +0.000 C 
ENDBRANCH  21  24
ENDBRANCH  17  18
ENDBRANCH   2  17
TORSDOF 5
ENDMDL
MODEL 9
REMARK VINA RESULT:      -7.1      5.997      8.519
REMARK  Name = 
REMARK  6 active torsions:
REMARK  status: ('A' for Active; 'I' for Inactive)
REMARK    1  A    between atoms: C_1  and  O_2
REMARK    2  A    between atoms: O_2  and  C_3
REMARK    3  A    between atoms: C_8  and  N_9
REMARK    4  A    between atoms: C_10  and  C_12
REMARK    5  A    between atoms: C_12  and  N_13
REMARK    6  A    between atoms: N_16  and  C_17
REMARK                            x       y       z     vdW  Elec       q    Type
REMARK                         _______ _______ _______ _____ _____    ______ ____
ROOT
ATOM      1  N   UNL     1       2.432   7.117  18.979  0.00  0.00    +0.000 N 
ATOM      2  C   UNL     1       2.153   8.272  18.266  0.00  0.00    +0.000 C 
ATOM      3  O   UNL     1       2.173   8.368  17.039  0.00  0.00    +0.000 OA
ATOM      4  H   UNL     1       2.713   7.302  19.933  0.00  0.00    +0.000 HD
ENDROOT
BRANCH   1  10
ATOM      5  C   UNL     1       5.760   4.710  16.279  0.00  0.00    +0.000 A 
ATOM      6  C   UNL     1       6.637   5.792  16.396  0.00  0.00    +0.000 A 
ATOM      7  C   UNL     1       6.362   6.829  17.271  0.00  0.00    +0.000 A 
ATOM      8  C   UNL     1       5.162   6.842  17.973  0.00  0.00    +0.000 A 
ATOM      9  C   UNL     1       4.187   5.834  17.799  0.00  0.00    +0.000 A 
ATOM     10  C   UNL     1       2.879   5.914  18.350  0.00  0.00    +0.000 A 
ATOM     11  C   UNL     1       2.001   4.827  18.222  0.00  0.00    +0.000 A 
ATOM     12  C   UNL     1       2.366   3.692  17.505  0.00  0.00    +0.000 A 
ATOM     13  C   UNL     1       3.609   3.649  16.863  0.00  0.00    +0.000 A 
ATOM     14  C   UNL     1       4.524   4.716  16.979  0.00  0.00    +0.000 A 
BRANCH   5  16
ATOM     15  C   UNL     1       6.336   3.980  14.094  0.00  0.00    +0.000 C 
ATOM     16  O   UNL     1       6.010   3.646  15.441  0.00  0.00    +0.000 OA
ENDBRANCH   5  16
ENDBRANCH   1  10
BRANCH   2  17
ATOM     17  C   UNL     1       1.740   9.480  19.125  0.00  0.00    +0.000 C 
BRANCH  17  18
ATOM     18  N   UNL     1       0.420   9.349  19.800  0.00  0.00    +0.000 NA
ATOM     19  C   UNL     1       0.457   9.690  21.242  0.00  0.00    +0.000 C 
ATOM     20  C   UNL     1       0.436  11.200  21.654  0.00  0.00    +0.000 C 
ATOM     21  N   UNL     1      -0.457  12.129  20.906  0.00  0.00    +0.000 NA
ATOM     22  C   UNL     1      -0.370  11.771  19.476  0.00  0.00    +0.000 C 
ATOM     23  C   UNL     1      -0.563  10.263  19.158  0.00  0.00    +0.000 C 
BRANCH  21  24
ATOM     24  C   UNL     1      -1.833  12.234  21.466  0.00  0.00    +0.000 C 
ATOM     25  C   UNL     1      -1.836  12.457  23.006  0.00  0.00    +0.000 C 
ATOM     26  C   UNL     1      -1.350  13.842  23.440  0.00  0.00    +0.000 C 
ATOM     27  C   UNL     1      -2.125  14.976  22.782  0.00  0.00    +0.000 C 
ATOM     28  C   UNL     1      -2.309  14.788  21.279  0.00  0.00    +0.000 C 
ATOM     29  C   UNL     1      -2.729  13.367  20.889  0.00  0.00    +0.000 C 
ENDBRANCH  21  24
ENDBRANCH  17  18
ENDBRANCH   2  17
TORSDOF 5
ENDMDL
