MODEL 1
REMARK VINA RESULT:      -8.8      0.000      0.000
REMARK  Name = 
REMARK  5 active torsions:
REMARK  status: ('A' for Active; 'I' for Inactive)
REMARK    1  A    between atoms: C_2  and  C_4
REMARK    2  A    between atoms: C_6  and  C_7
REMARK    3  A    between atoms: C_17  and  N_18
REMARK    4  A    between atoms: N_18  and  C_19
REMARK    5  A    between atoms: C_22  and  O_23
REMARK                            x       y       z     vdW  Elec       q    Type
REMARK                         _______ _______ _______ _____ _____    ______ ____
ROOT
ATOM      1  C   UNL     1       2.174   4.912  20.404  0.00  0.00    +0.000 A 
ATOM      2  C   UNL     1       1.641   6.100  20.918  0.00  0.00    +0.000 A 
ATOM      3  C   UNL     1       1.818   7.317  20.263  0.00  0.00    +0.000 A 
ATOM      4  C   UNL     1       2.590   7.325  19.091  0.00  0.00    +0.000 A 
ATOM      5  C   UNL     1       3.126   6.142  18.572  0.00  0.00    +0.000 A 
ATOM      6  C   UNL     1       2.962   4.921  19.229  0.00  0.00    +0.000 A 
ENDROOT
BRANCH   3   7
ATOM      7  C   UNL     1       1.138   8.536  20.715  0.00  0.00    +0.000 A 
ATOM      8  C   UNL     1       0.787   8.720  22.067  0.00  0.00    +0.000 A 
ATOM      9  C   UNL     1       0.051   9.837  22.462  0.00  0.00    +0.000 A 
ATOM     10  C   UNL     1      -0.335  10.794  21.528  0.00  0.00    +0.000 A 
ATOM     11 CL   UNL     1      -1.274  12.132  22.068  0.00  0.00    +0.000 Cl
ATOM     12  C   UNL     1       0.018  10.631  20.178  0.00  0.00    +0.000 A 
ATOM     13 CL   UNL     1      -0.433  11.752  18.947  0.00  0.00    +0.000 Cl
ATOM     14  C   UNL     1       0.752   9.515  19.792  0.00  0.00    +0.000 A 
ENDBRANCH   3   7
BRANCH   1  16
ATOM     15  N   UNL     1       0.709   3.019  20.862  0.00  0.00    +0.000 N 
ATOM     16  C   UNL     1       1.857   3.677  21.168  0.00  0.00    +0.000 C 
ATOM     17  O   UNL     1       2.626   3.240  22.026  0.00  0.00    +0.000 OA
ATOM     18  H   UNL     1       0.517   2.143  21.321  0.00  0.00    +0.000 HD
ATOM     19  H   UNL     1       0.151   3.310  20.065  0.00  0.00    +0.000 HD
ENDBRANCH   1  16
BRANCH   6  20
ATOM     20  N   UNL     1       3.509   3.736  18.741  0.00  0.00    +0.000 N 
ATOM     21  H   UNL     1       2.789   3.043  18.531  0.00  0.00    +0.000 HD
BRANCH  20  22
ATOM     22  C   UNL     1       4.685   3.669  17.878  0.00  0.00    +0.000 C 
ATOM     23  C   UNL     1       4.330   4.150  16.458  0.00  0.00    +0.000 C 
ATOM     24  C   UNL     1       5.565   4.340  15.586  0.00  0.00    +0.000 C 
ATOM     25  C   UNL     1       6.539   5.316  16.235  0.00  0.00    +0.000 C 
ATOM     26  C   UNL     1       6.957   4.821  17.615  0.00  0.00    +0.000 C 
ATOM     27  C   UNL     1       5.748   4.594  18.512  0.00  0.00    +0.000 C 
BRANCH  25  28
ATOM     28  O   UNL     1       7.684   5.475  15.411  0.00  0.00    +0.000 OA
ATOM     29  H   UNL     1       8.317   6.052  15.871  0.00  0.00    +0.000 HD
ENDBRANCH  25  28
ENDBRANCH  20  22
ENDBRANCH   6  20
TORSDOF 5
ENDMDL
MODEL 2
REMARK VINA RESULT:      -8.7      1.042      1.513
REMARK  Name = 
REMARK  5 active torsions:
REMARK  status: ('A' for Active; 'I' for Inactive)
REMARK    1  A    between atoms: C_2  and  C_4
REMARK    2  A    between atoms: C_6  and  C_7
REMARK    3  A    between atoms: C_17  and  N_18
REMARK    4  A    between atoms: N_18  and  C_19
REMARK    5  A    between atoms: C_22  and  O_23
REMARK                            x       y       z     vdW  Elec       q    Type
REMARK                         _______ _______ _______ _____ _____    ______ ____
ROOT
ATOM      1  C   UNL     1       1.837   5.889  20.250  0.00  0.00    +0.000 A 
ATOM      2  C   UNL     1       1.228   6.910  20.989  0.00  0.00    +0.000 A 
ATOM      3  C   UNL     1       1.221   8.228  20.535  0.00  0.00    +0.000 A 
ATOM      4  C   UNL     1       1.887   8.511  19.332  0.00  0.00    +0.000 A 
ATOM      5  C   UNL     1       2.497   7.496  18.589  0.00  0.00    +0.000 A 
ATOM      6  C   UNL     1       2.518   6.175  19.043  0.00  0.00    +0.000 A 
ENDROOT
BRANCH   3   7
ATOM      7  C   UNL     1       0.458   9.272  21.227  0.00  0.00    +0.000 A 
ATOM      8  C   UNL     1       0.110   9.144  22.587  0.00  0.00    +0.000 A 
ATOM      9  C   UNL     1      -0.702  10.097  23.202  0.00  0.00    +0.000 A 
ATOM     10  C   UNL     1      -1.169  11.195  22.486  0.00  0.00    +0.000 A 
ATOM     11 CL   UNL     1      -2.198  12.319  23.288  0.00  0.00    +0.000 Cl
ATOM     12  C   UNL     1      -0.820  11.343  21.133  0.00  0.00    +0.000 A 
ATOM     13 CL   UNL     1      -1.366  12.659  20.160  0.00  0.00    +0.000 Cl
ATOM     14  C   UNL     1      -0.009  10.390  20.526  0.00  0.00    +0.000 A 
ENDBRANCH   3   7
BRANCH   1  16
ATOM     15  N   UNL     1       0.646   3.772  20.445  0.00  0.00    +0.000 N 
ATOM     16  C   UNL     1       1.717   4.520  20.817  0.00  0.00    +0.000 C 
ATOM     17  O   UNL     1       2.577   4.062  21.571  0.00  0.00    +0.000 OA
ATOM     18  H   UNL     1       0.589   2.818  20.765  0.00  0.00    +0.000 HD
ATOM     19  H   UNL     1       0.017   4.106  19.722  0.00  0.00    +0.000 HD
ENDBRANCH   1  16
BRANCH   6  20
ATOM     20  N   UNL     1       3.142   5.154  18.330  0.00  0.00    +0.000 N 
ATOM     21  H   UNL     1       2.526   4.350  18.197  0.00  0.00    +0.000 HD
BRANCH  20  22
ATOM     22  C   UNL     1       4.092   5.375  17.242  0.00  0.00    +0.000 C 
ATOM     23  C   UNL     1       5.378   6.028  17.784  0.00  0.00    +0.000 C 
ATOM     24  C   UNL     1       6.496   6.051  16.749  0.00  0.00    +0.000 C 
ATOM     25  C   UNL     1       6.801   4.643  16.252  0.00  0.00    +0.000 C 
ATOM     26  C   UNL     1       5.555   4.005  15.648  0.00  0.00    +0.000 C 
ATOM     27  C   UNL     1       4.403   3.985  16.644  0.00  0.00    +0.000 C 
BRANCH  25  28
ATOM     28  O   UNL     1       7.840   4.688  15.286  0.00  0.00    +0.000 OA
ATOM     29  H   UNL     1       8.512   4.028  15.526  0.00  0.00    +0.000 HD
ENDBRANCH  25  28
ENDBRANCH  20  22
ENDBRANCH   6  20
TORSDOF 5
ENDMDL
MODEL 3
REMARK VINA RESULT:      -8.7      0.668      1.421
REMARK  Name = 
REMARK  5 active torsions:
REMARK  status: ('A' for Active; 'I' for Inactive)
REMARK    1  A    between atoms: C_2  and  C_4
REMARK    2  A    between atoms: C_6  and  C_7
REMARK    3  A    between atoms: C_17  and  N_18
REMARK    4  A    between atoms: N_18  and  C_19
REMARK    5  A    between atoms: C_22  and  O_23
REMARK                            x       y       z     vdW  Elec       q    Type
REMARK                         _______ _______ _______ _____ _____    ______ ____
ROOT
ATOM      1  C   UNL     1       2.290   4.962  20.387  0.00  0.00    +0.000 A 
ATOM      2  C   UNL     1       1.622   6.150  20.709  0.00  0.00    +0.000 A 
ATOM      3  C   UNL     1       1.886   7.338  20.029  0.00  0.00    +0.000 A 
ATOM      4  C   UNL     1       2.882   7.319  19.040  0.00  0.00    +0.000 A 
ATOM      5  C   UNL     1       3.554   6.137  18.714  0.00  0.00    +0.000 A 
ATOM      6  C   UNL     1       3.301   4.946  19.397  0.00  0.00    +0.000 A 
ENDROOT
BRANCH   3   7
ATOM      7  C   UNL     1       1.086   8.545  20.259  0.00  0.00    +0.000 A 
ATOM      8  C   UNL     1       0.951   9.534  19.264  0.00  0.00    +0.000 A 
ATOM      9  C   UNL     1       0.272  10.722  19.536  0.00  0.00    +0.000 A 
ATOM     10  C   UNL     1      -0.294  10.942  20.788  0.00  0.00    +0.000 A 
ATOM     11 CL   UNL     1      -1.088  12.443  21.076  0.00  0.00    +0.000 Cl
ATOM     12  C   UNL     1      -0.178   9.960  21.786  0.00  0.00    +0.000 A 
ATOM     13 CL   UNL     1      -0.829  10.151  23.373  0.00  0.00    +0.000 Cl
ATOM     14  C   UNL     1       0.499   8.778  21.509  0.00  0.00    +0.000 A 
ENDBRANCH   3   7
BRANCH   1  16
ATOM     15  N   UNL     1       0.740   3.115  20.739  0.00  0.00    +0.000 N 
ATOM     16  C   UNL     1       1.867   3.756  21.145  0.00  0.00    +0.000 C 
ATOM     17  O   UNL     1       2.533   3.326  22.087  0.00  0.00    +0.000 OA
ATOM     18  H   UNL     1       0.481   2.257  21.198  0.00  0.00    +0.000 HD
ATOM     19  H   UNL     1       0.274   3.397  19.883  0.00  0.00    +0.000 HD
ENDBRANCH   1  16
BRANCH   6  20
ATOM     20  N   UNL     1       3.977   3.764  19.104  0.00  0.00    +0.000 N 
ATOM     21  H   UNL     1       3.374   2.945  19.201  0.00  0.00    +0.000 HD
BRANCH  20  22
ATOM     22  C   UNL     1       5.004   3.640  18.072  0.00  0.00    +0.000 C 
ATOM     23  C   UNL     1       4.431   4.042  16.700  0.00  0.00    +0.000 C 
ATOM     24  C   UNL     1       5.514   4.174  15.637  0.00  0.00    +0.000 C 
ATOM     25  C   UNL     1       6.575   5.178  16.068  0.00  0.00    +0.000 C 
ATOM     26  C   UNL     1       7.204   4.759  17.393  0.00  0.00    +0.000 C 
ATOM     27  C   UNL     1       6.151   4.591  18.479  0.00  0.00    +0.000 C 
BRANCH  25  28
ATOM     28  O   UNL     1       7.577   5.282  15.068  0.00  0.00    +0.000 OA
ATOM     29  H   UNL     1       8.288   4.653  15.277  0.00  0.00    +0.000 HD
ENDBRANCH  25  28
ENDBRANCH  20  22
ENDBRANCH   6  20
TORSDOF 5
ENDMDL
MODEL 4
REMARK VINA RESULT:      -8.6      1.473      2.024
REMARK  Name = 
REMARK  5 active torsions:
REMARK  status: ('A' for Active; 'I' for Inactive)
REMARK    1  A    between atoms: C_2  and  C_4
REMARK    2  A    between atoms: C_6  and  C_7
REMARK    3  A    between atoms: C_17  and  N_18
REMARK    4  A    between atoms: N_18  and  C_19
REMARK    5  A    between atoms: C_22  and  O_23
REMARK                            x       y       z     vdW  Elec       q    Type
REMARK                         _______ _______ _______ _____ _____    ______ ____
ROOT
ATOM      1  C   UNL     1       1.837   6.385  19.941  0.00  0.00    +0.000 A 
ATOM      2  C   UNL     1       1.307   7.372  20.781  0.00  0.00    +0.000 A 
ATOM      3  C   UNL     1       1.206   8.698  20.368  0.00  0.00    +0.000 A 
ATOM      4  C   UNL     1       1.698   9.028  19.095  0.00  0.00    +0.000 A 
ATOM      5  C   UNL     1       2.229   8.048  18.250  0.00  0.00    +0.000 A 
ATOM      6  C   UNL     1       2.342   6.718  18.662  0.00  0.00    +0.000 A 
ENDROOT
BRANCH   3   7
ATOM      7  C   UNL     1       0.517   9.704  21.183  0.00  0.00    +0.000 A 
ATOM      8  C   UNL     1      -0.131   9.353  22.385  0.00  0.00    +0.000 A 
ATOM      9  C   UNL     1      -0.867  10.303  23.094  0.00  0.00    +0.000 A 
ATOM     10  C   UNL     1      -0.960  11.613  22.634  0.00  0.00    +0.000 A 
ATOM     11 CL   UNL     1      -1.913  12.731  23.532  0.00  0.00    +0.000 Cl
ATOM     12  C   UNL     1      -0.308  11.980  21.445  0.00  0.00    +0.000 A 
ATOM     13 CL   UNL     1      -0.382  13.573  20.787  0.00  0.00    +0.000 Cl
ATOM     14  C   UNL     1       0.424  11.030  20.743  0.00  0.00    +0.000 A 
ENDBRANCH   3   7
BRANCH   1  16
ATOM     15  N   UNL     1       2.633   4.727  21.539  0.00  0.00    +0.000 N 
ATOM     16  C   UNL     1       1.827   5.001  20.482  0.00  0.00    +0.000 C 
ATOM     17  O   UNL     1       1.084   4.136  20.013  0.00  0.00    +0.000 OA
ATOM     18  H   UNL     1       2.583   3.813  21.962  0.00  0.00    +0.000 HD
ATOM     19  H   UNL     1       3.138   5.476  22.003  0.00  0.00    +0.000 HD
ENDBRANCH   1  16
BRANCH   6  20
ATOM     20  N   UNL     1       2.890   5.732  17.845  0.00  0.00    +0.000 N 
ATOM     21  H   UNL     1       2.206   5.362  17.183  0.00  0.00    +0.000 HD
BRANCH  20  22
ATOM     22  C   UNL     1       4.265   5.746  17.351  0.00  0.00    +0.000 C 
ATOM     23  C   UNL     1       5.248   5.937  18.521  0.00  0.00    +0.000 C 
ATOM     24  C   UNL     1       6.696   5.709  18.103  0.00  0.00    +0.000 C 
ATOM     25  C   UNL     1       6.872   4.320  17.501  0.00  0.00    +0.000 C 
ATOM     26  C   UNL     1       5.955   4.136  16.297  0.00  0.00    +0.000 C 
ATOM     27  C   UNL     1       4.498   4.381  16.666  0.00  0.00    +0.000 C 
BRANCH  25  28
ATOM     28  O   UNL     1       8.224   4.130  17.114  0.00  0.00    +0.000 OA
ATOM     29  H   UNL     1       8.237   3.737  16.225  0.00  0.00    +0.000 HD
ENDBRANCH  25  28
ENDBRANCH  20  22
ENDBRANCH   6  20
TORSDOF 5
ENDMDL
MODEL 5
REMARK VINA RESULT:      -8.5      5.528      7.407
REMARK  Name = 
REMARK  5 active torsions:
REMARK  status: ('A' for Active; 'I' for Inactive)
REMARK    1  A    between atoms: C_2  and  C_4
REMARK    2  A    between atoms: C_6  and  C_7
REMARK    3  A    between atoms: C_17  and  N_18
REMARK    4  A    between atoms: N_18  and  C_19
REMARK    5  A    between atoms: C_22  and  O_23
REMARK                            x       y       z     vdW  Elec       q    Type
REMARK                         _______ _______ _______ _____ _____    ______ ____
ROOT
ATOM      1  C   UNL     1       7.804   6.699  18.417  0.00  0.00    +0.000 A 
ATOM      2  C   UNL     1       8.612   7.773  18.812  0.00  0.00    +0.000 A 
ATOM      3  C   UNL     1       8.397   9.060  18.323  0.00  0.00    +0.000 A 
ATOM      4  C   UNL     1       7.372   9.241  17.382  0.00  0.00    +0.000 A 
ATOM      5  C   UNL     1       6.561   8.174  16.983  0.00  0.00    +0.000 A 
ATOM      6  C   UNL     1       6.777   6.879  17.460  0.00  0.00    +0.000 A 
ENDROOT
BRANCH   3   7
ATOM      7  C   UNL     1       9.142  10.211  18.844  0.00  0.00    +0.000 A 
ATOM      8  C   UNL     1       9.232  10.458  20.229  0.00  0.00    +0.000 A 
ATOM      9  C   UNL     1       9.857  11.612  20.702  0.00  0.00    +0.000 A 
ATOM     10  C   UNL     1      10.413  12.529  19.814  0.00  0.00    +0.000 A 
ATOM     11 CL   UNL     1      11.138  13.953  20.455  0.00  0.00    +0.000 Cl
ATOM     12  C   UNL     1      10.342  12.290  18.432  0.00  0.00    +0.000 A 
ATOM     13 CL   UNL     1      10.984  13.377  17.256  0.00  0.00    +0.000 Cl
ATOM     14  C   UNL     1       9.718  11.137  17.967  0.00  0.00    +0.000 A 
ENDBRANCH   3   7
BRANCH   1  16
ATOM     15  N   UNL     1       8.316   5.385  20.404  0.00  0.00    +0.000 N 
ATOM     16  C   UNL     1       8.102   5.394  19.063  0.00  0.00    +0.000 C 
ATOM     17  O   UNL     1       8.117   4.348  18.414  0.00  0.00    +0.000 OA
ATOM     18  H   UNL     1       8.448   4.499  20.866  0.00  0.00    +0.000 HD
ATOM     19  H   UNL     1       8.169   6.228  20.950  0.00  0.00    +0.000 HD
ENDBRANCH   1  16
BRANCH   6  20
ATOM     20  N   UNL     1       5.997   5.799  17.057  0.00  0.00    +0.000 N 
ATOM     21  H   UNL     1       6.548   5.093  16.564  0.00  0.00    +0.000 HD
BRANCH  20  22
ATOM     22  C   UNL     1       4.876   5.263  17.825  0.00  0.00    +0.000 C 
ATOM     23  C   UNL     1       3.607   6.097  17.565  0.00  0.00    +0.000 C 
ATOM     24  C   UNL     1       2.356   5.440  18.137  0.00  0.00    +0.000 C 
ATOM     25  C   UNL     1       2.177   4.036  17.574  0.00  0.00    +0.000 C 
ATOM     26  C   UNL     1       3.396   3.174  17.882  0.00  0.00    +0.000 C 
ATOM     27  C   UNL     1       4.674   3.808  17.348  0.00  0.00    +0.000 C 
BRANCH  25  28
ATOM     28  O   UNL     1       1.011   3.441  18.123  0.00  0.00    +0.000 OA
ATOM     29  H   UNL     1       0.792   3.901  18.951  0.00  0.00    +0.000 HD
ENDBRANCH  25  28
ENDBRANCH  20  22
ENDBRANCH   6  20
TORSDOF 5
ENDMDL
MODEL 6
REMARK VINA RESULT:      -8.5      1.087      1.238
REMARK  Name = 
REMARK  5 active torsions:
REMARK  status: ('A' for Active; 'I' for Inactive)
REMARK    1  A    between atoms: C_2  and  C_4
REMARK    2  A    between atoms: C_6  and  C_7
REMARK    3  A    between atoms: C_17  and  N_18
REMARK    4  A    between atoms: N_18  and  C_19
REMARK    5  A    between atoms: C_22  and  O_23
REMARK                            x       y       z     vdW  Elec       q    Type
REMARK                         _______ _______ _______ _____ _____    ______ ____
ROOT
ATOM      1  C   UNL     1       1.993   5.835  19.882  0.00  0.00    +0.000 A 
ATOM      2  C   UNL     1       1.486   6.868  20.681  0.00  0.00    +0.000 A 
ATOM      3  C   UNL     1       1.414   8.178  20.211  0.00  0.00    +0.000 A 
ATOM      4  C   UNL     1       1.911   8.443  18.926  0.00  0.00    +0.000 A 
ATOM      5  C   UNL     1       2.419   7.417  18.123  0.00  0.00    +0.000 A 
ATOM      6  C   UNL     1       2.504   6.103  18.590  0.00  0.00    +0.000 A 
ENDROOT
BRANCH   3   7
ATOM      7  C   UNL     1       0.748   9.232  20.984  0.00  0.00    +0.000 A 
ATOM      8  C   UNL     1       0.364   9.026  22.324  0.00  0.00    +0.000 A 
ATOM      9  C   UNL     1      -0.358  10.002  23.011  0.00  0.00    +0.000 A 
ATOM     10  C   UNL     1      -0.697  11.199  22.389  0.00  0.00    +0.000 A 
ATOM     11 CL   UNL     1      -1.621  12.350  23.275  0.00  0.00    +0.000 Cl
ATOM     12  C   UNL     1      -0.310  11.425  21.058  0.00  0.00    +0.000 A 
ATOM     13 CL   UNL     1      -0.700  12.868  20.197  0.00  0.00    +0.000 Cl
ATOM     14  C   UNL     1       0.411  10.448  20.378  0.00  0.00    +0.000 A 
ENDBRANCH   3   7
BRANCH   1  16
ATOM     15  N   UNL     1       0.744   3.870  20.599  0.00  0.00    +0.000 N 
ATOM     16  C   UNL     1       1.953   4.476  20.481  0.00  0.00    +0.000 C 
ATOM     17  O   UNL     1       2.985   3.899  20.827  0.00  0.00    +0.000 OA
ATOM     18  H   UNL     1       0.709   2.921  20.936  0.00  0.00    +0.000 HD
ATOM     19  H   UNL     1      -0.082   4.295  20.190  0.00  0.00    +0.000 HD
ENDBRANCH   1  16
BRANCH   6  20
ATOM     20  N   UNL     1       3.029   5.072  17.815  0.00  0.00    +0.000 N 
ATOM     21  H   UNL     1       2.397   4.804  17.058  0.00  0.00    +0.000 HD
BRANCH  20  22
ATOM     22  C   UNL     1       4.447   4.921  17.502  0.00  0.00    +0.000 C 
ATOM     23  C   UNL     1       4.631   3.937  16.331  0.00  0.00    +0.000 C 
ATOM     24  C   UNL     1       6.058   3.932  15.797  0.00  0.00    +0.000 C 
ATOM     25  C   UNL     1       6.478   5.332  15.366  0.00  0.00    +0.000 C 
ATOM     26  C   UNL     1       6.369   6.308  16.532  0.00  0.00    +0.000 C 
ATOM     27  C   UNL     1       4.962   6.325  17.113  0.00  0.00    +0.000 C 
BRANCH  25  28
ATOM     28  O   UNL     1       7.811   5.307  14.878  0.00  0.00    +0.000 OA
ATOM     29  H   UNL     1       8.088   4.380  14.787  0.00  0.00    +0.000 HD
ENDBRANCH  25  28
ENDBRANCH  20  22
ENDBRANCH   6  20
TORSDOF 5
ENDMDL
MODEL 7
REMARK VINA RESULT:      -8.5      4.926      8.069
REMARK  Name = 
REMARK  5 active torsions:
REMARK  status: ('A' for Active; 'I' for Inactive)
REMARK    1  A    between atoms: C_2  and  C_4
REMARK    2  A    between atoms: C_6  and  C_7
REMARK    3  A    between atoms: C_17  and  N_18
REMARK    4  A    between atoms: N_18  and  C_19
REMARK    5  A    between atoms: C_22  and  O_23
REMARK                            x       y       z     vdW  Elec       q    Type
REMARK                         _______ _______ _______ _____ _____    ______ ____
ROOT
ATOM      1  C   UNL     1       1.012   9.196  20.342  0.00  0.00    +0.000 A 
ATOM      2  C   UNL     1       1.511   7.898  20.510  0.00  0.00    +0.000 A 
ATOM      3  C   UNL     1       2.148   7.226  19.469  0.00  0.00    +0.000 A 
ATOM      4  C   UNL     1       2.231   7.872  18.226  0.00  0.00    +0.000 A 
ATOM      5  C   UNL     1       1.734   9.167  18.050  0.00  0.00    +0.000 A 
ATOM      6  C   UNL     1       1.086   9.843  19.086  0.00  0.00    +0.000 A 
ENDROOT
BRANCH   3   7
ATOM      7  C   UNL     1       2.803   5.931  19.681  0.00  0.00    +0.000 A 
ATOM      8  C   UNL     1       4.008   5.605  19.028  0.00  0.00    +0.000 A 
ATOM      9  C   UNL     1       4.563   4.332  19.162  0.00  0.00    +0.000 A 
ATOM     10  C   UNL     1       3.942   3.370  19.954  0.00  0.00    +0.000 A 
ATOM     11 CL   UNL     1       4.654   1.806  20.052  0.00  0.00    +0.000 Cl
ATOM     12  C   UNL     1       2.748   3.685  20.622  0.00  0.00    +0.000 A 
ATOM     13 CL   UNL     1       1.897   2.555  21.610  0.00  0.00    +0.000 Cl
ATOM     14  C   UNL     1       2.200   4.956  20.485  0.00  0.00    +0.000 A 
ENDBRANCH   3   7
BRANCH   1  16
ATOM     15  N   UNL     1      -0.446   9.075  22.291  0.00  0.00    +0.000 N 
ATOM     16  C   UNL     1       0.415   9.820  21.551  0.00  0.00    +0.000 C 
ATOM     17  O   UNL     1       0.716  10.964  21.895  0.00  0.00    +0.000 OA
ATOM     18  H   UNL     1      -0.802   9.460  23.152  0.00  0.00    +0.000 HD
ATOM     19  H   UNL     1      -0.584   8.092  22.077  0.00  0.00    +0.000 HD
ENDBRANCH   1  16
BRANCH   6  20
ATOM     20  N   UNL     1       0.562  11.123  18.924  0.00  0.00    +0.000 N 
ATOM     21  H   UNL     1       1.294  11.816  18.756  0.00  0.00    +0.000 HD
BRANCH  20  22
ATOM     22  C   UNL     1      -0.709  11.413  18.266  0.00  0.00    +0.000 C 
ATOM     23  C   UNL     1      -1.250  10.147  17.575  0.00  0.00    +0.000 C 
ATOM     24  C   UNL     1      -2.684  10.321  17.089  0.00  0.00    +0.000 C 
ATOM     25  C   UNL     1      -3.600  10.714  18.241  0.00  0.00    +0.000 C 
ATOM     26  C   UNL     1      -3.120  12.004  18.895  0.00  0.00    +0.000 C 
ATOM     27  C   UNL     1      -1.679  11.881  19.373  0.00  0.00    +0.000 C 
BRANCH  25  28
ATOM     28  O   UNL     1      -4.929  10.876  17.767  0.00  0.00    +0.000 OA
ATOM     29  H   UNL     1      -4.915  10.844  16.796  0.00  0.00    +0.000 HD
ENDBRANCH  25  28
ENDBRANCH  20  22
ENDBRANCH   6  20
TORSDOF 5
ENDMDL
MODEL 8
REMARK VINA RESULT:      -8.3      4.818      8.164
REMARK  Name = 
REMARK  5 active torsions:
REMARK  status: ('A' for Active; 'I' for Inactive)
REMARK    1  A    between atoms: C_2  and  C_4
REMARK    2  A    between atoms: C_6  and  C_7
REMARK    3  A    between atoms: C_17  and  N_18
REMARK    4  A    between atoms: N_18  and  C_19
REMARK    5  A    between atoms: C_22  and  O_23
REMARK                            x       y       z     vdW  Elec       q    Type
REMARK                         _______ _______ _______ _____ _____    ______ ____
ROOT
ATOM      1  C   UNL     1       1.238   8.921  20.359  0.00  0.00    +0.000 A 
ATOM      2  C   UNL     1       1.548   7.561  20.229  0.00  0.00    +0.000 A 
ATOM      3  C   UNL     1       2.119   7.056  19.063  0.00  0.00    +0.000 A 
ATOM      4  C   UNL     1       2.331   7.945  17.998  0.00  0.00    +0.000 A 
ATOM      5  C   UNL     1       2.024   9.304  18.120  0.00  0.00    +0.000 A 
ATOM      6  C   UNL     1       1.442   9.816  19.282  0.00  0.00    +0.000 A 
ENDROOT
BRANCH   3   7
ATOM      7  C   UNL     1       2.581   5.666  18.977  0.00  0.00    +0.000 A 
ATOM      8  C   UNL     1       3.043   5.122  17.762  0.00  0.00    +0.000 A 
ATOM      9  C   UNL     1       3.382   3.772  17.676  0.00  0.00    +0.000 A 
ATOM     10  C   UNL     1       3.283   2.946  18.791  0.00  0.00    +0.000 A 
ATOM     11 CL   UNL     1       3.680   1.280  18.614  0.00  0.00    +0.000 Cl
ATOM     12  C   UNL     1       2.837   3.477  20.012  0.00  0.00    +0.000 A 
ATOM     13 CL   UNL     1       2.664   2.528  21.443  0.00  0.00    +0.000 Cl
ATOM     14  C   UNL     1       2.501   4.824  20.092  0.00  0.00    +0.000 A 
ENDBRANCH   3   7
BRANCH   1  16
ATOM     15  N   UNL     1      -0.459   8.759  22.100  0.00  0.00    +0.000 N 
ATOM     16  C   UNL     1       0.694   9.337  21.678  0.00  0.00    +0.000 C 
ATOM     17  O   UNL     1       1.287  10.154  22.385  0.00  0.00    +0.000 OA
ATOM     18  H   UNL     1      -0.801   8.978  23.022  0.00  0.00    +0.000 HD
ATOM     19  H   UNL     1      -0.867   7.992  21.574  0.00  0.00    +0.000 HD
ENDBRANCH   1  16
BRANCH   6  20
ATOM     20  N   UNL     1       1.106  11.161  19.414  0.00  0.00    +0.000 N 
ATOM     21  H   UNL     1       1.931  11.764  19.392  0.00  0.00    +0.000 HD
BRANCH  20  22
ATOM     22  C   UNL     1      -0.099  11.765  18.853  0.00  0.00    +0.000 C 
ATOM     23  C   UNL     1      -0.975  10.685  18.189  0.00  0.00    +0.000 C 
ATOM     24  C   UNL     1      -2.354  11.210  17.811  0.00  0.00    +0.000 C 
ATOM     25  C   UNL     1      -3.069  11.777  19.031  0.00  0.00    +0.000 C 
ATOM     26  C   UNL     1      -2.249  12.896  19.663  0.00  0.00    +0.000 C 
ATOM     27  C   UNL     1      -0.851  12.419  20.033  0.00  0.00    +0.000 C 
BRANCH  25  28
ATOM     28  O   UNL     1      -4.348  12.266  18.657  0.00  0.00    +0.000 OA
ATOM     29  H   UNL     1      -4.253  12.785  17.841  0.00  0.00    +0.000 HD
ENDBRANCH  25  28
ENDBRANCH  20  22
ENDBRANCH   6  20
TORSDOF 5
ENDMDL
MODEL 9
REMARK VINA RESULT:      -8.2      3.221      5.115
REMARK  Name = 
REMARK  5 active torsions:
REMARK  status: ('A' for Active; 'I' for Inactive)
REMARK    1  A    between atoms: C_2  and  C_4
REMARK    2  A    between atoms: C_6  and  C_7
REMARK    3  A    between atoms: C_17  and  N_18
REMARK    4  A    between atoms: N_18  and  C_19
REMARK    5  A    between atoms: C_22  and  O_23
REMARK                            x       y       z     vdW  Elec       q    Type
REMARK                         _______ _______ _______ _____ _____    ______ ____
ROOT
ATOM      1  C   UNL     1       0.989   9.364  19.852  0.00  0.00    +0.000 A 
ATOM      2  C   UNL     1       0.212  10.425  20.334  0.00  0.00    +0.000 A 
ATOM      3  C   UNL     1      -0.103  10.535  21.687  0.00  0.00    +0.000 A 
ATOM      4  C   UNL     1       0.343   9.521  22.549  0.00  0.00    +0.000 A 
ATOM      5  C   UNL     1       1.119   8.459  22.074  0.00  0.00    +0.000 A 
ATOM      6  C   UNL     1       1.431   8.336  20.718  0.00  0.00    +0.000 A 
ENDROOT
BRANCH   3   7
ATOM      7  C   UNL     1      -0.788  11.718  22.219  0.00  0.00    +0.000 A 
ATOM      8  C   UNL     1      -0.233  13.007  22.085  0.00  0.00    +0.000 A 
ATOM      9  C   UNL     1      -0.846  14.106  22.686  0.00  0.00    +0.000 A 
ATOM     10  C   UNL     1      -2.022  13.949  23.414  0.00  0.00    +0.000 A 
ATOM     11 CL   UNL     1      -2.712  15.337  24.164  0.00  0.00    +0.000 Cl
ATOM     12  C   UNL     1      -2.593  12.673  23.546  0.00  0.00    +0.000 A 
ATOM     13 CL   UNL     1      -4.036  12.377  24.444  0.00  0.00    +0.000 Cl
ATOM     14  C   UNL     1      -1.978  11.581  22.944  0.00  0.00    +0.000 A 
ENDBRANCH   3   7
BRANCH   1  16
ATOM     15  N   UNL     1       0.357   9.887  17.557  0.00  0.00    +0.000 N 
ATOM     16  C   UNL     1       1.305   9.402  18.400  0.00  0.00    +0.000 C 
ATOM     17  O   UNL     1       2.403   9.042  17.974  0.00  0.00    +0.000 OA
ATOM     18  H   UNL     1       0.583   9.986  16.580  0.00  0.00    +0.000 HD
ATOM     19  H   UNL     1      -0.490  10.306  17.929  0.00  0.00    +0.000 HD
ENDBRANCH   1  16
BRANCH   6  20
ATOM     20  N   UNL     1       2.181   7.274  20.222  0.00  0.00    +0.000 N 
ATOM     21  H   UNL     1       3.070   7.171  20.715  0.00  0.00    +0.000 HD
BRANCH  20  22
ATOM     22  C   UNL     1       1.609   6.019  19.739  0.00  0.00    +0.000 C 
ATOM     23  C   UNL     1       2.279   5.605  18.414  0.00  0.00    +0.000 C 
ATOM     24  C   UNL     1       1.905   4.189  17.996  0.00  0.00    +0.000 C 
ATOM     25  C   UNL     1       2.262   3.190  19.090  0.00  0.00    +0.000 C 
ATOM     26  C   UNL     1       1.553   3.544  20.392  0.00  0.00    +0.000 C 
ATOM     27  C   UNL     1       1.880   4.964  20.834  0.00  0.00    +0.000 C 
BRANCH  25  28
ATOM     28  O   UNL     1       1.901   1.879  18.683  0.00  0.00    +0.000 OA
ATOM     29  H   UNL     1       1.335   1.489  19.369  0.00  0.00    +0.000 HD
ENDBRANCH  25  28
ENDBRANCH  20  22
ENDBRANCH   6  20
TORSDOF 5
ENDMDL
