MODEL 1
REMARK VINA RESULT:      -6.7      0.000      0.000
REMARK  Name = 
REMARK  5 active torsions:
REMARK  status: ('A' for Active; 'I' for Inactive)
REMARK    1  A    between atoms: C_4  and  N_5
REMARK    2  A    between atoms: N_5  and  C_6
REMARK    3  A    between atoms: C_6  and  C_7
REMARK    4  A    between atoms: C_12  and  C_13
REMARK    5  A    between atoms: C_13  and  N_14
REMARK                            x       y       z     vdW  Elec       q    Type
REMARK                         _______ _______ _______ _____ _____    ______ ____
ROOT
ATOM      1  C   UNL     1       2.350   2.458  17.766  0.00  0.00    +0.000 A 
ATOM      2  C   UNL     1       1.448   3.512  17.816  0.00  0.00    +0.000 A 
ATOM      3  C   UNL     1       1.903   4.810  18.058  0.00  0.00    +0.000 A 
ATOM      4  C   UNL     1       3.261   5.089  18.265  0.00  0.00    +0.000 A 
ATOM      5  C   UNL     1       4.178   4.016  18.173  0.00  0.00    +0.000 A 
ATOM      6  C   UNL     1       3.707   2.708  17.938  0.00  0.00    +0.000 A 
ENDROOT
BRANCH   4   7
ATOM      7  N   UNL     1       3.741   6.389  18.474  0.00  0.00    +0.000 N 
ATOM      8  H   UNL     1       4.757   6.416  18.416  0.00  0.00    +0.000 HD
BRANCH   7   9
ATOM      9  C   UNL     1       3.147   7.511  17.734  0.00  0.00    +0.000 C 
BRANCH   9  10
ATOM     10  C   UNL     1       2.169   8.413  18.450  0.00  0.00    +0.000 A 
ATOM     11  C   UNL     1       1.502   9.550  17.882  0.00  0.00    +0.000 A 
ATOM     12  C   UNL     1       0.669  10.185  18.777  0.00  0.00    +0.000 A 
ATOM     13  S   UNL     1       0.685   9.434  20.310  0.00  0.00    +0.000 S 
ATOM     14  C   UNL     1       1.805   8.258  19.778  0.00  0.00    +0.000 A 
ENDBRANCH   9  10
ENDBRANCH   7   9
ENDBRANCH   4   7
BRANCH   5  15
ATOM     15  C   UNL     1       5.670   4.222  18.310  0.00  0.00    +0.000 C 
BRANCH  15  16
ATOM     16  N   UNL     1       6.325   4.644  17.079  0.00  0.00    +0.000 N 
ATOM     17  C   UNL     1       7.112   5.729  16.832  0.00  0.00    +0.000 A 
ATOM     18  N   UNL     1       7.477   5.737  15.570  0.00  0.00    +0.000 NA
ATOM     19  C   UNL     1       6.866   4.627  15.068  0.00  0.00    +0.000 A 
ATOM     20  N   UNL     1       6.148   3.924  15.947  0.00  0.00    +0.000 NA
ENDBRANCH  15  16
ENDBRANCH   5  15
TORSDOF 5
ENDMDL
MODEL 2
REMARK VINA RESULT:      -6.7      2.523      4.427
REMARK  Name = 
REMARK  5 active torsions:
REMARK  status: ('A' for Active; 'I' for Inactive)
REMARK    1  A    between atoms: C_4  and  N_5
REMARK    2  A    between atoms: N_5  and  C_6
REMARK    3  A    between atoms: C_6  and  C_7
REMARK    4  A    between atoms: C_12  and  C_13
REMARK    5  A    between atoms: C_13  and  N_14
REMARK                            x       y       z     vdW  Elec       q    Type
REMARK                         _______ _______ _______ _____ _____    ______ ____
ROOT
ATOM      1  C   UNL     1       3.951   7.303  17.272  0.00  0.00    +0.000 A 
ATOM      2  C   UNL     1       3.307   6.805  18.396  0.00  0.00    +0.000 A 
ATOM      3  C   UNL     1       3.784   5.650  19.021  0.00  0.00    +0.000 A 
ATOM      4  C   UNL     1       4.904   4.959  18.538  0.00  0.00    +0.000 A 
ATOM      5  C   UNL     1       5.578   5.496  17.416  0.00  0.00    +0.000 A 
ATOM      6  C   UNL     1       5.083   6.656  16.787  0.00  0.00    +0.000 A 
ENDROOT
BRANCH   4   7
ATOM      7  N   UNL     1       5.419   3.820  19.172  0.00  0.00    +0.000 N 
ATOM      8  H   UNL     1       5.759   4.045  20.104  0.00  0.00    +0.000 HD
BRANCH   7   9
ATOM      9  C   UNL     1       4.632   2.579  19.190  0.00  0.00    +0.000 C 
BRANCH   9  10
ATOM     10  C   UNL     1       3.246   2.611  19.791  0.00  0.00    +0.000 A 
ATOM     11  C   UNL     1       2.011   2.535  19.063  0.00  0.00    +0.000 A 
ATOM     12  C   UNL     1       0.903   2.592  19.880  0.00  0.00    +0.000 A 
ATOM     13  S   UNL     1       1.329   2.748  21.525  0.00  0.00    +0.000 S 
ATOM     14  C   UNL     1       2.995   2.739  21.148  0.00  0.00    +0.000 A 
ENDBRANCH   9  10
ENDBRANCH   7   9
ENDBRANCH   4   7
BRANCH   5  15
ATOM     15  C   UNL     1       6.837   4.866  16.861  0.00  0.00    +0.000 C 
BRANCH  15  16
ATOM     16  N   UNL     1       6.807   4.656  15.420  0.00  0.00    +0.000 N 
ATOM     17  C   UNL     1       6.065   3.788  14.676  0.00  0.00    +0.000 A 
ATOM     18  N   UNL     1       6.370   3.916  13.405  0.00  0.00    +0.000 NA
ATOM     19  C   UNL     1       7.335   4.879  13.418  0.00  0.00    +0.000 A 
ATOM     20  N   UNL     1       7.641   5.364  14.624  0.00  0.00    +0.000 NA
ENDBRANCH  15  16
ENDBRANCH   5  15
TORSDOF 5
ENDMDL
MODEL 3
REMARK VINA RESULT:      -6.7      1.221      1.522
REMARK  Name = 
REMARK  5 active torsions:
REMARK  status: ('A' for Active; 'I' for Inactive)
REMARK    1  A    between atoms: C_4  and  N_5
REMARK    2  A    between atoms: N_5  and  C_6
REMARK    3  A    between atoms: C_6  and  C_7
REMARK    4  A    between atoms: C_12  and  C_13
REMARK    5  A    between atoms: C_13  and  N_14
REMARK                            x       y       z     vdW  Elec       q    Type
REMARK                         _______ _______ _______ _____ _____    ______ ____
ROOT
ATOM      1  C   UNL     1       2.445   2.966  17.410  0.00  0.00    +0.000 A 
ATOM      2  C   UNL     1       1.632   3.088  18.529  0.00  0.00    +0.000 A 
ATOM      3  C   UNL     1       1.824   4.145  19.421  0.00  0.00    +0.000 A 
ATOM      4  C   UNL     1       2.834   5.099  19.227  0.00  0.00    +0.000 A 
ATOM      5  C   UNL     1       3.631   4.991  18.064  0.00  0.00    +0.000 A 
ATOM      6  C   UNL     1       3.435   3.914  17.176  0.00  0.00    +0.000 A 
ENDROOT
BRANCH   4   7
ATOM      7  N   UNL     1       3.019   6.187  20.091  0.00  0.00    +0.000 N 
ATOM      8  H   UNL     1       3.802   6.763  19.788  0.00  0.00    +0.000 HD
BRANCH   7   9
ATOM      9  C   UNL     1       1.871   7.024  20.465  0.00  0.00    +0.000 C 
BRANCH   9  10
ATOM     10  C   UNL     1       1.611   8.288  19.679  0.00  0.00    +0.000 A 
ATOM     11  C   UNL     1       2.056   8.553  18.340  0.00  0.00    +0.000 A 
ATOM     12  C   UNL     1       1.671   9.795  17.884  0.00  0.00    +0.000 A 
ATOM     13  S   UNL     1       0.783  10.661  19.056  0.00  0.00    +0.000 S 
ATOM     14  C   UNL     1       0.910   9.376  20.175  0.00  0.00    +0.000 A 
ENDBRANCH   9  10
ENDBRANCH   7   9
ENDBRANCH   4   7
BRANCH   5  15
ATOM     15  C   UNL     1       4.699   6.008  17.726  0.00  0.00    +0.000 C 
BRANCH  15  16
ATOM     16  N   UNL     1       5.845   5.451  17.021  0.00  0.00    +0.000 N 
ATOM     17  C   UNL     1       6.896   4.724  17.494  0.00  0.00    +0.000 A 
ATOM     18  N   UNL     1       7.721   4.440  16.510  0.00  0.00    +0.000 NA
ATOM     19  C   UNL     1       7.133   5.040  15.436  0.00  0.00    +0.000 A 
ATOM     20  N   UNL     1       5.985   5.672  15.693  0.00  0.00    +0.000 NA
ENDBRANCH  15  16
ENDBRANCH   5  15
TORSDOF 5
ENDMDL
MODEL 4
REMARK VINA RESULT:      -6.6      1.559      2.254
REMARK  Name = 
REMARK  5 active torsions:
REMARK  status: ('A' for Active; 'I' for Inactive)
REMARK    1  A    between atoms: C_4  and  N_5
REMARK    2  A    between atoms: N_5  and  C_6
REMARK    3  A    between atoms: C_6  and  C_7
REMARK    4  A    between atoms: C_12  and  C_13
REMARK    5  A    between atoms: C_13  and  N_14
REMARK                            x       y       z     vdW  Elec       q    Type
REMARK                         _______ _______ _______ _____ _____    ______ ____
ROOT
ATOM      1  C   UNL     1       1.289   2.870  18.575  0.00  0.00    +0.000 A 
ATOM      2  C   UNL     1       0.771   3.266  19.800  0.00  0.00    +0.000 A 
ATOM      3  C   UNL     1       1.202   4.456  20.391  0.00  0.00    +0.000 A 
ATOM      4  C   UNL     1       2.164   5.275  19.782  0.00  0.00    +0.000 A 
ATOM      5  C   UNL     1       2.657   4.885  18.515  0.00  0.00    +0.000 A 
ATOM      6  C   UNL     1       2.223   3.677  17.933  0.00  0.00    +0.000 A 
ENDROOT
BRANCH   4   7
ATOM      7  N   UNL     1       2.583   6.490  20.340  0.00  0.00    +0.000 N 
ATOM      8  H   UNL     1       3.116   7.036  19.666  0.00  0.00    +0.000 HD
BRANCH   7   9
ATOM      9  C   UNL     1       1.614   7.338  21.047  0.00  0.00    +0.000 C 
BRANCH   9  10
ATOM     10  C   UNL     1       1.098   8.578  20.355  0.00  0.00    +0.000 A 
ATOM     11  C   UNL     1       0.120   9.489  20.880  0.00  0.00    +0.000 A 
ATOM     12  C   UNL     1      -0.158  10.529  20.020  0.00  0.00    +0.000 A 
ATOM     13  S   UNL     1       0.739  10.421  18.572  0.00  0.00    +0.000 S 
ATOM     14  C   UNL     1       1.502   8.983  19.093  0.00  0.00    +0.000 A 
ENDBRANCH   9  10
ENDBRANCH   7   9
ENDBRANCH   4   7
BRANCH   5  15
ATOM     15  C   UNL     1       3.643   5.733  17.742  0.00  0.00    +0.000 C 
BRANCH  15  16
ATOM     16  N   UNL     1       5.023   5.278  17.845  0.00  0.00    +0.000 N 
ATOM     17  C   UNL     1       5.809   5.103  18.945  0.00  0.00    +0.000 A 
ATOM     18  N   UNL     1       7.003   4.695  18.579  0.00  0.00    +0.000 NA
ATOM     19  C   UNL     1       6.908   4.650  17.220  0.00  0.00    +0.000 A 
ATOM     20  N   UNL     1       5.720   4.998  16.719  0.00  0.00    +0.000 NA
ENDBRANCH  15  16
ENDBRANCH   5  15
TORSDOF 5
ENDMDL
MODEL 5
REMARK VINA RESULT:      -6.6      1.680      2.008
REMARK  Name = 
REMARK  5 active torsions:
REMARK  status: ('A' for Active; 'I' for Inactive)
REMARK    1  A    between atoms: C_4  and  N_5
REMARK    2  A    between atoms: N_5  and  C_6
REMARK    3  A    between atoms: C_6  and  C_7
REMARK    4  A    between atoms: C_12  and  C_13
REMARK    5  A    between atoms: C_13  and  N_14
REMARK                            x       y       z     vdW  Elec       q    Type
REMARK                         _______ _______ _______ _____ _____    ______ ____
ROOT
ATOM      1  C   UNL     1       2.766   2.724  21.033  0.00  0.00    +0.000 A 
ATOM      2  C   UNL     1       1.704   3.615  21.094  0.00  0.00    +0.000 A 
ATOM      3  C   UNL     1       1.582   4.624  20.136  0.00  0.00    +0.000 A 
ATOM      4  C   UNL     1       2.517   4.777  19.103  0.00  0.00    +0.000 A 
ATOM      5  C   UNL     1       3.574   3.841  19.024  0.00  0.00    +0.000 A 
ATOM      6  C   UNL     1       3.694   2.833  20.002  0.00  0.00    +0.000 A 
ENDROOT
BRANCH   4   7
ATOM      7  N   UNL     1       2.392   5.761  18.112  0.00  0.00    +0.000 N 
ATOM      8  H   UNL     1       1.430   5.828  17.785  0.00  0.00    +0.000 HD
BRANCH   7   9
ATOM      9  C   UNL     1       2.960   7.097  18.337  0.00  0.00    +0.000 C 
BRANCH   9  10
ATOM     10  C   UNL     1       2.031   8.222  18.729  0.00  0.00    +0.000 A 
ATOM     11  C   UNL     1       1.489   9.213  17.843  0.00  0.00    +0.000 A 
ATOM     12  C   UNL     1       0.674  10.118  18.486  0.00  0.00    +0.000 A 
ATOM     13  S   UNL     1       0.557   9.798  20.158  0.00  0.00    +0.000 S 
ATOM     14  C   UNL     1       1.596   8.448  20.025  0.00  0.00    +0.000 A 
ENDBRANCH   9  10
ENDBRANCH   7   9
ENDBRANCH   4   7
BRANCH   5  15
ATOM     15  C   UNL     1       4.594   3.875  17.908  0.00  0.00    +0.000 C 
BRANCH  15  16
ATOM     16  N   UNL     1       5.708   4.783  18.152  0.00  0.00    +0.000 N 
ATOM     17  C   UNL     1       6.255   5.736  17.345  0.00  0.00    +0.000 A 
ATOM     18  N   UNL     1       7.264   6.312  17.957  0.00  0.00    +0.000 NA
ATOM     19  C   UNL     1       7.312   5.656  19.152  0.00  0.00    +0.000 A 
ATOM     20  N   UNL     1       6.384   4.711  19.321  0.00  0.00    +0.000 NA
ENDBRANCH  15  16
ENDBRANCH   5  15
TORSDOF 5
ENDMDL
MODEL 6
REMARK VINA RESULT:      -6.5      1.608      1.833
REMARK  Name = 
REMARK  5 active torsions:
REMARK  status: ('A' for Active; 'I' for Inactive)
REMARK    1  A    between atoms: C_4  and  N_5
REMARK    2  A    between atoms: N_5  and  C_6
REMARK    3  A    between atoms: C_6  and  C_7
REMARK    4  A    between atoms: C_12  and  C_13
REMARK    5  A    between atoms: C_13  and  N_14
REMARK                            x       y       z     vdW  Elec       q    Type
REMARK                         _______ _______ _______ _____ _____    ______ ____
ROOT
ATOM      1  C   UNL     1       1.768   2.004  19.308  0.00  0.00    +0.000 A 
ATOM      2  C   UNL     1       0.864   2.949  19.773  0.00  0.00    +0.000 A 
ATOM      3  C   UNL     1       1.288   4.254  20.034  0.00  0.00    +0.000 A 
ATOM      4  C   UNL     1       2.622   4.647  19.848  0.00  0.00    +0.000 A 
ATOM      5  C   UNL     1       3.527   3.689  19.336  0.00  0.00    +0.000 A 
ATOM      6  C   UNL     1       3.091   2.372  19.086  0.00  0.00    +0.000 A 
ENDROOT
BRANCH   4   7
ATOM      7  N   UNL     1       3.059   5.960  20.070  0.00  0.00    +0.000 N 
ATOM      8  H   UNL     1       4.073   5.996  20.160  0.00  0.00    +0.000 HD
BRANCH   7   9
ATOM      9  C   UNL     1       2.574   7.044  19.206  0.00  0.00    +0.000 C 
BRANCH   9  10
ATOM     10  C   UNL     1       1.719   8.130  19.817  0.00  0.00    +0.000 A 
ATOM     11  C   UNL     1       1.250   9.309  19.146  0.00  0.00    +0.000 A 
ATOM     12  C   UNL     1       0.492  10.123  19.961  0.00  0.00    +0.000 A 
ATOM     13  S   UNL     1       0.343   9.489  21.538  0.00  0.00    +0.000 S 
ATOM     14  C   UNL     1       1.291   8.126  21.135  0.00  0.00    +0.000 A 
ENDBRANCH   9  10
ENDBRANCH   7   9
ENDBRANCH   4   7
BRANCH   5  15
ATOM     15  C   UNL     1       4.970   4.031  19.034  0.00  0.00    +0.000 C 
BRANCH  15  16
ATOM     16  N   UNL     1       5.151   4.805  17.813  0.00  0.00    +0.000 N 
ATOM     17  C   UNL     1       4.944   4.453  16.513  0.00  0.00    +0.000 A 
ATOM     18  N   UNL     1       5.255   5.456  15.724  0.00  0.00    +0.000 NA
ATOM     19  C   UNL     1       5.673   6.415  16.598  0.00  0.00    +0.000 A 
ATOM     20  N   UNL     1       5.630   6.068  17.888  0.00  0.00    +0.000 NA
ENDBRANCH  15  16
ENDBRANCH   5  15
TORSDOF 5
ENDMDL
MODEL 7
REMARK VINA RESULT:      -6.5      3.226      4.669
REMARK  Name = 
REMARK  5 active torsions:
REMARK  status: ('A' for Active; 'I' for Inactive)
REMARK    1  A    between atoms: C_4  and  N_5
REMARK    2  A    between atoms: N_5  and  C_6
REMARK    3  A    between atoms: C_6  and  C_7
REMARK    4  A    between atoms: C_12  and  C_13
REMARK    5  A    between atoms: C_13  and  N_14
REMARK                            x       y       z     vdW  Elec       q    Type
REMARK                         _______ _______ _______ _____ _____    ______ ____
ROOT
ATOM      1  C   UNL     1       7.877   6.869  18.478  0.00  0.00    +0.000 A 
ATOM      2  C   UNL     1       7.684   5.833  19.382  0.00  0.00    +0.000 A 
ATOM      3  C   UNL     1       6.720   4.855  19.129  0.00  0.00    +0.000 A 
ATOM      4  C   UNL     1       5.920   4.888  17.977  0.00  0.00    +0.000 A 
ATOM      5  C   UNL     1       6.151   5.923  17.042  0.00  0.00    +0.000 A 
ATOM      6  C   UNL     1       7.120   6.912  17.313  0.00  0.00    +0.000 A 
ENDROOT
BRANCH   4   7
ATOM      7  N   UNL     1       4.973   3.896  17.688  0.00  0.00    +0.000 N 
ATOM      8  H   UNL     1       5.196   3.028  18.171  0.00  0.00    +0.000 HD
BRANCH   7   9
ATOM      9  C   UNL     1       3.541   4.203  17.801  0.00  0.00    +0.000 C 
BRANCH   9  10
ATOM     10  C   UNL     1       2.817   3.818  19.071  0.00  0.00    +0.000 A 
ATOM     11  C   UNL     1       1.476   4.193  19.421  0.00  0.00    +0.000 A 
ATOM     12  C   UNL     1       1.085   3.699  20.646  0.00  0.00    +0.000 A 
ATOM     13  S   UNL     1       2.321   2.790  21.394  0.00  0.00    +0.000 S 
ATOM     14  C   UNL     1       3.381   3.056  20.081  0.00  0.00    +0.000 A 
ENDBRANCH   9  10
ENDBRANCH   7   9
ENDBRANCH   4   7
BRANCH   5  15
ATOM     15  C   UNL     1       5.392   6.008  15.736  0.00  0.00    +0.000 C 
BRANCH  15  16
ATOM     16  N   UNL     1       5.961   5.199  14.667  0.00  0.00    +0.000 N 
ATOM     17  C   UNL     1       5.459   4.099  14.038  0.00  0.00    +0.000 A 
ATOM     18  N   UNL     1       6.317   3.667  13.142  0.00  0.00    +0.000 NA
ATOM     19  C   UNL     1       7.358   4.537  13.271  0.00  0.00    +0.000 A 
ATOM     20  N   UNL     1       7.193   5.493  14.190  0.00  0.00    +0.000 NA
ENDBRANCH  15  16
ENDBRANCH   5  15
TORSDOF 5
ENDMDL
MODEL 8
REMARK VINA RESULT:      -6.5      2.827      5.209
REMARK  Name = 
REMARK  5 active torsions:
REMARK  status: ('A' for Active; 'I' for Inactive)
REMARK    1  A    between atoms: C_4  and  N_5
REMARK    2  A    between atoms: N_5  and  C_6
REMARK    3  A    between atoms: C_6  and  C_7
REMARK    4  A    between atoms: C_12  and  C_13
REMARK    5  A    between atoms: C_13  and  N_14
REMARK                            x       y       z     vdW  Elec       q    Type
REMARK                         _______ _______ _______ _____ _____    ______ ____
ROOT
ATOM      1  C   UNL     1       1.235   3.082  21.144  0.00  0.00    +0.000 A 
ATOM      2  C   UNL     1       0.945   2.371  19.988  0.00  0.00    +0.000 A 
ATOM      3  C   UNL     1       1.398   2.834  18.750  0.00  0.00    +0.000 A 
ATOM      4  C   UNL     1       2.140   4.018  18.632  0.00  0.00    +0.000 A 
ATOM      5  C   UNL     1       2.466   4.715  19.819  0.00  0.00    +0.000 A 
ATOM      6  C   UNL     1       1.995   4.244  21.062  0.00  0.00    +0.000 A 
ENDROOT
BRANCH   4   7
ATOM      7  N   UNL     1       2.634   4.480  17.405  0.00  0.00    +0.000 N 
ATOM      8  H   UNL     1       2.708   5.496  17.401  0.00  0.00    +0.000 HD
BRANCH   7   9
ATOM      9  C   UNL     1       3.839   3.868  16.828  0.00  0.00    +0.000 C 
BRANCH   9  10
ATOM     10  C   UNL     1       5.168   4.559  17.029  0.00  0.00    +0.000 A 
ATOM     11  C   UNL     1       5.746   5.541  16.155  0.00  0.00    +0.000 A 
ATOM     12  C   UNL     1       6.972   5.992  16.593  0.00  0.00    +0.000 A 
ATOM     13  S   UNL     1       7.449   5.238  18.048  0.00  0.00    +0.000 S 
ATOM     14  C   UNL     1       6.016   4.307  18.095  0.00  0.00    +0.000 A 
ENDBRANCH   9  10
ENDBRANCH   7   9
ENDBRANCH   4   7
BRANCH   5  15
ATOM     15  C   UNL     1       3.321   5.963  19.808  0.00  0.00    +0.000 C 
BRANCH  15  16
ATOM     16  N   UNL     1       2.625   7.153  19.337  0.00  0.00    +0.000 N 
ATOM     17  C   UNL     1       1.788   7.999  20.001  0.00  0.00    +0.000 A 
ATOM     18  N   UNL     1       1.364   8.937  19.186  0.00  0.00    +0.000 NA
ATOM     19  C   UNL     1       1.963   8.611  18.006  0.00  0.00    +0.000 A 
ATOM     20  N   UNL     1       2.744   7.528  18.043  0.00  0.00    +0.000 NA
ENDBRANCH  15  16
ENDBRANCH   5  15
TORSDOF 5
ENDMDL
MODEL 9
REMARK VINA RESULT:      -6.5      1.793      2.402
REMARK  Name = 
REMARK  5 active torsions:
REMARK  status: ('A' for Active; 'I' for Inactive)
REMARK    1  A    between atoms: C_4  and  N_5
REMARK    2  A    between atoms: N_5  and  C_6
REMARK    3  A    between atoms: C_6  and  C_7
REMARK    4  A    between atoms: C_12  and  C_13
REMARK    5  A    between atoms: C_13  and  N_14
REMARK                            x       y       z     vdW  Elec       q    Type
REMARK                         _______ _______ _______ _____ _____    ______ ____
ROOT
ATOM      1  C   UNL     1       1.419   2.843  19.440  0.00  0.00    +0.000 A 
ATOM      2  C   UNL     1       1.010   3.585  20.540  0.00  0.00    +0.000 A 
ATOM      3  C   UNL     1       1.465   4.895  20.708  0.00  0.00    +0.000 A 
ATOM      4  C   UNL     1       2.344   5.493  19.793  0.00  0.00    +0.000 A 
ATOM      5  C   UNL     1       2.724   4.745  18.655  0.00  0.00    +0.000 A 
ATOM      6  C   UNL     1       2.267   3.420  18.501  0.00  0.00    +0.000 A 
ENDROOT
BRANCH   4   7
ATOM      7  N   UNL     1       2.783   6.818  19.926  0.00  0.00    +0.000 N 
ATOM      8  H   UNL     1       3.744   6.916  19.604  0.00  0.00    +0.000 HD
BRANCH   7   9
ATOM      9  C   UNL     1       1.949   7.915  19.417  0.00  0.00    +0.000 C 
BRANCH   9  10
ATOM     10  C   UNL     1       1.133   8.720  20.402  0.00  0.00    +0.000 A 
ATOM     11  C   UNL     1       0.259   9.812  20.076  0.00  0.00    +0.000 A 
ATOM     12  C   UNL     1      -0.350  10.359  21.185  0.00  0.00    +0.000 A 
ATOM     13  S   UNL     1       0.125   9.579  22.626  0.00  0.00    +0.000 S 
ATOM     14  C   UNL     1       1.146   8.508  21.771  0.00  0.00    +0.000 A 
ENDBRANCH   9  10
ENDBRANCH   7   9
ENDBRANCH   4   7
BRANCH   5  15
ATOM     15  C   UNL     1       3.610   5.323  17.575  0.00  0.00    +0.000 C 
BRANCH  15  16
ATOM     16  N   UNL     1       5.029   5.316  17.906  0.00  0.00    +0.000 N 
ATOM     17  C   UNL     1       5.768   4.385  18.573  0.00  0.00    +0.000 A 
ATOM     18  N   UNL     1       7.014   4.791  18.670  0.00  0.00    +0.000 NA
ATOM     19  C   UNL     1       6.989   6.005  18.052  0.00  0.00    +0.000 A 
ATOM     20  N   UNL     1       5.800   6.375  17.568  0.00  0.00    +0.000 NA
ENDBRANCH  15  16
ENDBRANCH   5  15
TORSDOF 5
ENDMDL
