MODEL 1
REMARK VINA RESULT:      -6.8      0.000      0.000
REMARK  Name = 
REMARK  8 active torsions:
REMARK  status: ('A' for Active; 'I' for Inactive)
REMARK    1  A    between atoms: C_1  and  C_2
REMARK    2  A    between atoms: C_2  and  C_3
REMARK    3  A    between atoms: C_5  and  C_6
REMARK    4  A    between atoms: C_6  and  C_7
REMARK    5  A    between atoms: N_8  and  C_9
REMARK    6  A    between atoms: C_9  and  C_10
REMARK    7  A    between atoms: C_12  and  C_13
REMARK    8  A    between atoms: C_14  and  C_15
REMARK                            x       y       z     vdW  Elec       q    Type
REMARK                         _______ _______ _______ _____ _____    ______ ____
ROOT
ATOM      1  C   UNL     1       6.542   4.893  14.712  0.00  0.00    +0.000 A 
ATOM      2  N   UNL     1       7.531   5.456  15.469  0.00  0.00    +0.000 NA
ATOM      3  C   UNL     1       6.883   6.019  16.470  0.00  0.00    +0.000 A 
ATOM      4  N   UNL     1       5.542   5.768  16.315  0.00  0.00    +0.000 N 
ATOM      5  N   UNL     1       5.306   5.084  15.175  0.00  0.00    +0.000 NA
ENDROOT
BRANCH   1   7
ATOM      6  C   UNL     1       5.539   3.620  12.822  0.00  0.00    +0.000 C 
ATOM      7  C   UNL     1       6.820   4.100  13.487  0.00  0.00    +0.000 C 
ENDBRANCH   1   7
BRANCH   3   8
ATOM      8  C   UNL     1       7.481   6.755  17.625  0.00  0.00    +0.000 C 
ATOM      9  C   UNL     1       7.726   5.863  18.831  0.00  0.00    +0.000 C 
ENDBRANCH   3   8
BRANCH   4  10
ATOM     10  C   UNL     1       4.422   6.196  17.130  0.00  0.00    +0.000 C 
BRANCH  10  11
ATOM     11  C   UNL     1       3.830   5.062  17.895  0.00  0.00    +0.000 A 
ATOM     12  N   UNL     1       4.535   4.143  18.526  0.00  0.00    +0.000 NA
ATOM     13  C   UNL     1       3.700   3.317  19.263  0.00  0.00    +0.000 A 
ATOM     14  C   UNL     1       4.316   2.239  20.080  0.00  0.00    +0.000 C 
ATOM     15  C   UNL     1       2.354   3.635  19.184  0.00  0.00    +0.000 A 
ATOM     16  C   UNL     1       1.189   3.050  19.896  0.00  0.00    +0.000 C 
ATOM     17  S   UNL     1       2.127   4.936  18.090  0.00  0.00    +0.000 S 
ENDBRANCH  10  11
ENDBRANCH   4  10
TORSDOF 4
ENDMDL
MODEL 2
REMARK VINA RESULT:      -6.6      1.662      3.530
REMARK  Name = 
REMARK  8 active torsions:
REMARK  status: ('A' for Active; 'I' for Inactive)
REMARK    1  A    between atoms: C_1  and  C_2
REMARK    2  A    between atoms: C_2  and  C_3
REMARK    3  A    between atoms: C_5  and  C_6
REMARK    4  A    between atoms: C_6  and  C_7
REMARK    5  A    between atoms: N_8  and  C_9
REMARK    6  A    between atoms: C_9  and  C_10
REMARK    7  A    between atoms: C_12  and  C_13
REMARK    8  A    between atoms: C_14  and  C_15
REMARK                            x       y       z     vdW  Elec       q    Type
REMARK                         _______ _______ _______ _____ _____    ______ ____
ROOT
ATOM      1  C   UNL     1       7.170   6.170  17.627  0.00  0.00    +0.000 A 
ATOM      2  N   UNL     1       7.136   6.268  16.264  0.00  0.00    +0.000 NA
ATOM      3  C   UNL     1       6.206   5.403  15.908  0.00  0.00    +0.000 A 
ATOM      4  N   UNL     1       5.689   4.828  17.043  0.00  0.00    +0.000 N 
ATOM      5  N   UNL     1       6.323   5.280  18.146  0.00  0.00    +0.000 NA
ENDROOT
BRANCH   1   7
ATOM      6  C   UNL     1       8.113   8.448  17.974  0.00  0.00    +0.000 C 
ATOM      7  C   UNL     1       8.057   7.012  18.472  0.00  0.00    +0.000 C 
ENDBRANCH   1   7
BRANCH   3   8
ATOM      8  C   UNL     1       5.729   5.120  14.520  0.00  0.00    +0.000 C 
ATOM      9  C   UNL     1       6.378   3.887  13.913  0.00  0.00    +0.000 C 
ENDBRANCH   3   8
BRANCH   4  10
ATOM     10  C   UNL     1       4.673   3.803  17.179  0.00  0.00    +0.000 C 
BRANCH  10  11
ATOM     11  C   UNL     1       3.950   3.911  18.478  0.00  0.00    +0.000 A 
ATOM     12  N   UNL     1       3.227   4.951  18.842  0.00  0.00    +0.000 NA
ATOM     13  C   UNL     1       2.565   4.686  20.031  0.00  0.00    +0.000 A 
ATOM     14  C   UNL     1       1.664   5.730  20.585  0.00  0.00    +0.000 C 
ATOM     15  C   UNL     1       2.794   3.423  20.552  0.00  0.00    +0.000 A 
ATOM     16  C   UNL     1       2.198   2.753  21.737  0.00  0.00    +0.000 C 
ATOM     17  S   UNL     1       3.935   2.591  19.579  0.00  0.00    +0.000 S 
ENDBRANCH  10  11
ENDBRANCH   4  10
TORSDOF 4
ENDMDL
MODEL 3
REMARK VINA RESULT:      -6.5      1.024      1.491
REMARK  Name = 
REMARK  8 active torsions:
REMARK  status: ('A' for Active; 'I' for Inactive)
REMARK    1  A    between atoms: C_1  and  C_2
REMARK    2  A    between atoms: C_2  and  C_3
REMARK    3  A    between atoms: C_5  and  C_6
REMARK    4  A    between atoms: C_6  and  C_7
REMARK    5  A    between atoms: N_8  and  C_9
REMARK    6  A    between atoms: C_9  and  C_10
REMARK    7  A    between atoms: C_12  and  C_13
REMARK    8  A    between atoms: C_14  and  C_15
REMARK                            x       y       z     vdW  Elec       q    Type
REMARK                         _______ _______ _______ _____ _____    ______ ____
ROOT
ATOM      1  C   UNL     1       6.463   4.955  14.914  0.00  0.00    +0.000 A 
ATOM      2  N   UNL     1       7.469   5.582  15.595  0.00  0.00    +0.000 NA
ATOM      3  C   UNL     1       6.840   6.263  16.533  0.00  0.00    +0.000 A 
ATOM      4  N   UNL     1       5.493   6.020  16.418  0.00  0.00    +0.000 N 
ATOM      5  N   UNL     1       5.235   5.217  15.363  0.00  0.00    +0.000 NA
ENDROOT
BRANCH   1   7
ATOM      6  C   UNL     1       5.446   3.738  12.994  0.00  0.00    +0.000 C 
ATOM      7  C   UNL     1       6.715   4.027  13.781  0.00  0.00    +0.000 C 
ENDBRANCH   1   7
BRANCH   3   8
ATOM      8  C   UNL     1       7.461   7.113  17.593  0.00  0.00    +0.000 C 
ATOM      9  C   UNL     1       7.918   6.309  18.800  0.00  0.00    +0.000 C 
ENDBRANCH   3   8
BRANCH   4  10
ATOM     10  C   UNL     1       4.389   6.553  17.190  0.00  0.00    +0.000 C 
BRANCH  10  11
ATOM     11  C   UNL     1       3.739   5.503  18.024  0.00  0.00    +0.000 A 
ATOM     12  N   UNL     1       2.551   4.987  17.777  0.00  0.00    +0.000 NA
ATOM     13  C   UNL     1       2.293   3.934  18.642  0.00  0.00    +0.000 A 
ATOM     14  C   UNL     1       1.013   3.195  18.491  0.00  0.00    +0.000 C 
ATOM     15  C   UNL     1       3.311   3.659  19.540  0.00  0.00    +0.000 A 
ATOM     16  C   UNL     1       3.438   2.567  20.539  0.00  0.00    +0.000 C 
ATOM     17  S   UNL     1       4.574   4.805  19.355  0.00  0.00    +0.000 S 
ENDBRANCH  10  11
ENDBRANCH   4  10
TORSDOF 4
ENDMDL
MODEL 4
REMARK VINA RESULT:      -6.5      1.649      2.142
REMARK  Name = 
REMARK  8 active torsions:
REMARK  status: ('A' for Active; 'I' for Inactive)
REMARK    1  A    between atoms: C_1  and  C_2
REMARK    2  A    between atoms: C_2  and  C_3
REMARK    3  A    between atoms: C_5  and  C_6
REMARK    4  A    between atoms: C_6  and  C_7
REMARK    5  A    between atoms: N_8  and  C_9
REMARK    6  A    between atoms: C_9  and  C_10
REMARK    7  A    between atoms: C_12  and  C_13
REMARK    8  A    between atoms: C_14  and  C_15
REMARK                            x       y       z     vdW  Elec       q    Type
REMARK                         _______ _______ _______ _____ _____    ______ ____
ROOT
ATOM      1  C   UNL     1       6.849   4.962  15.471  0.00  0.00    +0.000 A 
ATOM      2  N   UNL     1       7.411   6.125  15.918  0.00  0.00    +0.000 NA
ATOM      3  C   UNL     1       7.324   6.035  17.231  0.00  0.00    +0.000 A 
ATOM      4  N   UNL     1       6.745   4.830  17.547  0.00  0.00    +0.000 N 
ATOM      5  N   UNL     1       6.400   4.152  16.431  0.00  0.00    +0.000 NA
ENDROOT
BRANCH   1   7
ATOM      6  C   UNL     1       5.457   3.926  13.686  0.00  0.00    +0.000 C 
ATOM      7  C   UNL     1       6.772   4.607  14.030  0.00  0.00    +0.000 C 
ENDBRANCH   1   7
BRANCH   3   8
ATOM      8  C   UNL     1       7.820   7.027  18.233  0.00  0.00    +0.000 C 
ATOM      9  C   UNL     1       7.875   8.443  17.683  0.00  0.00    +0.000 C 
ENDBRANCH   3   8
BRANCH   4  10
ATOM     10  C   UNL     1       6.408   4.279  18.844  0.00  0.00    +0.000 C 
BRANCH  10  11
ATOM     11  C   UNL     1       4.987   4.547  19.206  0.00  0.00    +0.000 A 
ATOM     12  N   UNL     1       4.457   5.750  19.299  0.00  0.00    +0.000 NA
ATOM     13  C   UNL     1       3.089   5.661  19.504  0.00  0.00    +0.000 A 
ATOM     14  C   UNL     1       2.305   6.920  19.594  0.00  0.00    +0.000 C 
ATOM     15  C   UNL     1       2.594   4.368  19.556  0.00  0.00    +0.000 A 
ATOM     16  C   UNL     1       1.194   3.882  19.663  0.00  0.00    +0.000 C 
ATOM     17  S   UNL     1       3.887   3.247  19.437  0.00  0.00    +0.000 S 
ENDBRANCH  10  11
ENDBRANCH   4  10
TORSDOF 4
ENDMDL
MODEL 5
REMARK VINA RESULT:      -6.5      1.578      3.413
REMARK  Name = 
REMARK  8 active torsions:
REMARK  status: ('A' for Active; 'I' for Inactive)
REMARK    1  A    between atoms: C_1  and  C_2
REMARK    2  A    between atoms: C_2  and  C_3
REMARK    3  A    between atoms: C_5  and  C_6
REMARK    4  A    between atoms: C_6  and  C_7
REMARK    5  A    between atoms: N_8  and  C_9
REMARK    6  A    between atoms: C_9  and  C_10
REMARK    7  A    between atoms: C_12  and  C_13
REMARK    8  A    between atoms: C_14  and  C_15
REMARK                            x       y       z     vdW  Elec       q    Type
REMARK                         _______ _______ _______ _____ _____    ______ ____
ROOT
ATOM      1  C   UNL     1       7.173   6.162  17.649  0.00  0.00    +0.000 A 
ATOM      2  N   UNL     1       7.066   6.245  16.288  0.00  0.00    +0.000 NA
ATOM      3  C   UNL     1       6.140   5.355  15.989  0.00  0.00    +0.000 A 
ATOM      4  N   UNL     1       5.695   4.780  17.154  0.00  0.00    +0.000 N 
ATOM      5  N   UNL     1       6.374   5.258  18.219  0.00  0.00    +0.000 NA
ENDROOT
BRANCH   1   7
ATOM      6  C   UNL     1       8.101   8.458  17.907  0.00  0.00    +0.000 C 
ATOM      7  C   UNL     1       8.081   7.033  18.439  0.00  0.00    +0.000 C 
ENDBRANCH   1   7
BRANCH   3   8
ATOM      8  C   UNL     1       5.599   5.047  14.630  0.00  0.00    +0.000 C 
ATOM      9  C   UNL     1       6.328   3.899  13.951  0.00  0.00    +0.000 C 
ENDBRANCH   3   8
BRANCH   4  10
ATOM     10  C   UNL     1       4.712   3.734  17.352  0.00  0.00    +0.000 C 
BRANCH  10  11
ATOM     11  C   UNL     1       3.730   4.092  18.415  0.00  0.00    +0.000 A 
ATOM     12  N   UNL     1       3.430   3.319  19.439  0.00  0.00    +0.000 NA
ATOM     13  C   UNL     1       2.602   3.991  20.325  0.00  0.00    +0.000 A 
ATOM     14  C   UNL     1       2.185   3.295  21.570  0.00  0.00    +0.000 C 
ATOM     15  C   UNL     1       2.290   5.289  19.954  0.00  0.00    +0.000 A 
ATOM     16  C   UNL     1       1.522   6.335  20.679  0.00  0.00    +0.000 C 
ATOM     17  S   UNL     1       2.974   5.635  18.419  0.00  0.00    +0.000 S 
ENDBRANCH  10  11
ENDBRANCH   4  10
TORSDOF 4
ENDMDL
MODEL 6
REMARK VINA RESULT:      -6.4      1.106      1.367
REMARK  Name = 
REMARK  8 active torsions:
REMARK  status: ('A' for Active; 'I' for Inactive)
REMARK    1  A    between atoms: C_1  and  C_2
REMARK    2  A    between atoms: C_2  and  C_3
REMARK    3  A    between atoms: C_5  and  C_6
REMARK    4  A    between atoms: C_6  and  C_7
REMARK    5  A    between atoms: N_8  and  C_9
REMARK    6  A    between atoms: C_9  and  C_10
REMARK    7  A    between atoms: C_12  and  C_13
REMARK    8  A    between atoms: C_14  and  C_15
REMARK                            x       y       z     vdW  Elec       q    Type
REMARK                         _______ _______ _______ _____ _____    ______ ____
ROOT
ATOM      1  C   UNL     1       6.592   5.131  14.790  0.00  0.00    +0.000 A 
ATOM      2  N   UNL     1       7.566   5.485  15.682  0.00  0.00    +0.000 NA
ATOM      3  C   UNL     1       6.904   6.083  16.653  0.00  0.00    +0.000 A 
ATOM      4  N   UNL     1       5.566   6.057  16.348  0.00  0.00    +0.000 N 
ATOM      5  N   UNL     1       5.356   5.487  15.142  0.00  0.00    +0.000 NA
ENDROOT
BRANCH   1   7
ATOM      6  C   UNL     1       5.668   3.596  13.062  0.00  0.00    +0.000 C 
ATOM      7  C   UNL     1       6.880   4.379  13.542  0.00  0.00    +0.000 C 
ENDBRANCH   1   7
BRANCH   3   8
ATOM      8  C   UNL     1       7.476   6.645  17.914  0.00  0.00    +0.000 C 
ATOM      9  C   UNL     1       7.498   5.639  19.053  0.00  0.00    +0.000 C 
ENDBRANCH   3   8
BRANCH   4  10
ATOM     10  C   UNL     1       4.441   6.606  17.077  0.00  0.00    +0.000 C 
BRANCH  10  11
ATOM     11  C   UNL     1       3.787   5.581  17.940  0.00  0.00    +0.000 A 
ATOM     12  N   UNL     1       3.081   5.858  19.018  0.00  0.00    +0.000 NA
ATOM     13  C   UNL     1       2.484   4.708  19.512  0.00  0.00    +0.000 A 
ATOM     14  C   UNL     1       1.610   4.825  20.708  0.00  0.00    +0.000 C 
ATOM     15  C   UNL     1       2.745   3.560  18.782  0.00  0.00    +0.000 A 
ATOM     16  C   UNL     1       2.215   2.182  18.942  0.00  0.00    +0.000 C 
ATOM     17  S   UNL     1       3.836   3.918  17.507  0.00  0.00    +0.000 S 
ENDBRANCH  10  11
ENDBRANCH   4  10
TORSDOF 4
ENDMDL
MODEL 7
REMARK VINA RESULT:      -6.4      1.194      1.279
REMARK  Name = 
REMARK  8 active torsions:
REMARK  status: ('A' for Active; 'I' for Inactive)
REMARK    1  A    between atoms: C_1  and  C_2
REMARK    2  A    between atoms: C_2  and  C_3
REMARK    3  A    between atoms: C_5  and  C_6
REMARK    4  A    between atoms: C_6  and  C_7
REMARK    5  A    between atoms: N_8  and  C_9
REMARK    6  A    between atoms: C_9  and  C_10
REMARK    7  A    between atoms: C_12  and  C_13
REMARK    8  A    between atoms: C_14  and  C_15
REMARK                            x       y       z     vdW  Elec       q    Type
REMARK                         _______ _______ _______ _____ _____    ______ ____
ROOT
ATOM      1  C   UNL     1       6.455   5.126  14.945  0.00  0.00    +0.000 A 
ATOM      2  N   UNL     1       7.486   5.456  15.779  0.00  0.00    +0.000 NA
ATOM      3  C   UNL     1       6.905   6.130  16.751  0.00  0.00    +0.000 A 
ATOM      4  N   UNL     1       5.555   6.174  16.503  0.00  0.00    +0.000 N 
ATOM      5  N   UNL     1       5.258   5.570  15.332  0.00  0.00    +0.000 NA
ENDROOT
BRANCH   1   7
ATOM      6  C   UNL     1       7.572   4.987  12.724  0.00  0.00    +0.000 C 
ATOM      7  C   UNL     1       6.642   4.309  13.718  0.00  0.00    +0.000 C 
ENDBRANCH   1   7
BRANCH   3   8
ATOM      8  C   UNL     1       7.564   6.707  17.962  0.00  0.00    +0.000 C 
ATOM      9  C   UNL     1       7.660   5.716  19.110  0.00  0.00    +0.000 C 
ENDBRANCH   3   8
BRANCH   4  10
ATOM     10  C   UNL     1       4.498   6.819  17.256  0.00  0.00    +0.000 C 
BRANCH  10  11
ATOM     11  C   UNL     1       3.550   5.827  17.840  0.00  0.00    +0.000 A 
ATOM     12  N   UNL     1       3.415   4.587  17.414  0.00  0.00    +0.000 NA
ATOM     13  C   UNL     1       2.569   3.878  18.252  0.00  0.00    +0.000 A 
ATOM     14  C   UNL     1       2.324   2.442  17.957  0.00  0.00    +0.000 C 
ATOM     15  C   UNL     1       2.075   4.603  19.324  0.00  0.00    +0.000 A 
ATOM     16  C   UNL     1       1.233   4.167  20.468  0.00  0.00    +0.000 C 
ATOM     17  S   UNL     1       2.610   6.229  19.222  0.00  0.00    +0.000 S 
ENDBRANCH  10  11
ENDBRANCH   4  10
TORSDOF 4
ENDMDL
MODEL 8
REMARK VINA RESULT:      -6.4      1.775      2.571
REMARK  Name = 
REMARK  8 active torsions:
REMARK  status: ('A' for Active; 'I' for Inactive)
REMARK    1  A    between atoms: C_1  and  C_2
REMARK    2  A    between atoms: C_2  and  C_3
REMARK    3  A    between atoms: C_5  and  C_6
REMARK    4  A    between atoms: C_6  and  C_7
REMARK    5  A    between atoms: N_8  and  C_9
REMARK    6  A    between atoms: C_9  and  C_10
REMARK    7  A    between atoms: C_12  and  C_13
REMARK    8  A    between atoms: C_14  and  C_15
REMARK                            x       y       z     vdW  Elec       q    Type
REMARK                         _______ _______ _______ _____ _____    ______ ____
ROOT
ATOM      1  C   UNL     1       6.630   4.775  14.750  0.00  0.00    +0.000 A 
ATOM      2  N   UNL     1       7.408   5.624  15.486  0.00  0.00    +0.000 NA
ATOM      3  C   UNL     1       6.930   5.511  16.710  0.00  0.00    +0.000 A 
ATOM      4  N   UNL     1       5.907   4.594  16.695  0.00  0.00    +0.000 N 
ATOM      5  N   UNL     1       5.679   4.146  15.442  0.00  0.00    +0.000 NA
ENDROOT
BRANCH   1   7
ATOM      6  C   UNL     1       5.880   3.505  12.744  0.00  0.00    +0.000 C 
ATOM      7  C   UNL     1       6.844   4.542  13.298  0.00  0.00    +0.000 C 
ENDBRANCH   1   7
BRANCH   3   8
ATOM      8  C   UNL     1       7.434   6.200  17.937  0.00  0.00    +0.000 C 
ATOM      9  C   UNL     1       7.708   7.678  17.712  0.00  0.00    +0.000 C 
ENDBRANCH   3   8
BRANCH   4  10
ATOM     10  C   UNL     1       5.051   4.148  17.775  0.00  0.00    +0.000 C 
BRANCH  10  11
ATOM     11  C   UNL     1       4.202   5.255  18.301  0.00  0.00    +0.000 A 
ATOM     12  N   UNL     1       3.881   6.335  17.617  0.00  0.00    +0.000 NA
ATOM     13  C   UNL     1       2.966   7.099  18.323  0.00  0.00    +0.000 A 
ATOM     14  C   UNL     1       2.449   8.343  17.694  0.00  0.00    +0.000 C 
ATOM     15  C   UNL     1       2.594   6.572  19.549  0.00  0.00    +0.000 A 
ATOM     16  C   UNL     1       1.583   7.045  20.529  0.00  0.00    +0.000 C 
ATOM     17  S   UNL     1       3.484   5.138  19.858  0.00  0.00    +0.000 S 
ENDBRANCH  10  11
ENDBRANCH   4  10
TORSDOF 4
ENDMDL
MODEL 9
REMARK VINA RESULT:      -6.3      1.467      1.815
REMARK  Name = 
REMARK  8 active torsions:
REMARK  status: ('A' for Active; 'I' for Inactive)
REMARK    1  A    between atoms: C_1  and  C_2
REMARK    2  A    between atoms: C_2  and  C_3
REMARK    3  A    between atoms: C_5  and  C_6
REMARK    4  A    between atoms: C_6  and  C_7
REMARK    5  A    between atoms: N_8  and  C_9
REMARK    6  A    between atoms: C_9  and  C_10
REMARK    7  A    between atoms: C_12  and  C_13
REMARK    8  A    between atoms: C_14  and  C_15
REMARK                            x       y       z     vdW  Elec       q    Type
REMARK                         _______ _______ _______ _____ _____    ______ ____
ROOT
ATOM      1  C   UNL     1       6.291   4.509  14.777  0.00  0.00    +0.000 A 
ATOM      2  N   UNL     1       6.271   5.850  15.043  0.00  0.00    +0.000 NA
ATOM      3  C   UNL     1       6.208   5.911  16.359  0.00  0.00    +0.000 A 
ATOM      4  N   UNL     1       6.216   4.630  16.855  0.00  0.00    +0.000 N 
ATOM      5  N   UNL     1       6.229   3.724  15.853  0.00  0.00    +0.000 NA
ENDROOT
BRANCH   1   7
ATOM      6  C   UNL     1       5.046   3.633  12.807  0.00  0.00    +0.000 C 
ATOM      7  C   UNL     1       6.407   3.965  13.399  0.00  0.00    +0.000 C 
ENDBRANCH   1   7
BRANCH   3   8
ATOM      8  C   UNL     1       6.194   7.146  17.200  0.00  0.00    +0.000 C 
ATOM      9  C   UNL     1       7.588   7.662  17.513  0.00  0.00    +0.000 C 
ENDBRANCH   3   8
BRANCH   4  10
ATOM     10  C   UNL     1       6.132   4.169  18.226  0.00  0.00    +0.000 C 
BRANCH  10  11
ATOM     11  C   UNL     1       4.719   4.061  18.688  0.00  0.00    +0.000 A 
ATOM     12  N   UNL     1       4.115   4.953  19.448  0.00  0.00    +0.000 NA
ATOM     13  C   UNL     1       2.770   4.644  19.579  0.00  0.00    +0.000 A 
ATOM     14  C   UNL     1       1.909   5.560  20.371  0.00  0.00    +0.000 C 
ATOM     15  C   UNL     1       2.367   3.508  18.896  0.00  0.00    +0.000 A 
ATOM     16  C   UNL     1       1.012   2.924  18.722  0.00  0.00    +0.000 C 
ATOM     17  S   UNL     1       3.724   2.765  18.154  0.00  0.00    +0.000 S 
ENDBRANCH  10  11
ENDBRANCH   4  10
TORSDOF 4
ENDMDL
