MODEL 1
REMARK VINA RESULT:      -6.8      0.000      0.000
REMARK  Name = 
REMARK  6 active torsions:
REMARK  status: ('A' for Active; 'I' for Inactive)
REMARK    1  A    between atoms: C_1  and  C_2
REMARK    2  A    between atoms: C_4  and  C_5
REMARK    3  A    between atoms: C_5  and  N_6
REMARK    4  A    between atoms: C_10  and  C_11
REMARK    5  A    between atoms: C_11  and  N_12
REMARK    6  A    between atoms: N_12  and  C_13
REMARK                            x       y       z     vdW  Elec       q    Type
REMARK                         _______ _______ _______ _____ _____    ______ ____
ROOT
ATOM      1  N   UNL     1       1.396   4.650  20.025  0.00  0.00    +0.000 NA
ATOM      2  C   UNL     1       1.068   3.471  20.840  0.00  0.00    +0.000 C 
ATOM      3  C   UNL     1       1.912   2.214  20.590  0.00  0.00    +0.000 C 
ATOM      4  O   UNL     1       2.070   1.910  19.204  0.00  0.00    +0.000 OA
ATOM      5  C   UNL     1       2.637   3.003  18.454  0.00  0.00    +0.000 C 
ATOM      6  C   UNL     1       1.769   4.275  18.649  0.00  0.00    +0.000 C 
ENDROOT
BRANCH   1   7
ATOM      7  C   UNL     1       2.289   5.616  20.667  0.00  0.00    +0.000 C 
BRANCH   7  11
ATOM      8  C   UNL     1       1.889   9.679  17.804  0.00  0.00    +0.000 C 
ATOM      9  C   UNL     1       1.729   8.802  18.997  0.00  0.00    +0.000 A 
ATOM     10  N   UNL     1       2.229   7.588  19.112  0.00  0.00    +0.000 NA
ATOM     11  C   UNL     1       1.864   7.033  20.337  0.00  0.00    +0.000 A 
ATOM     12  C   UNL     1       1.093   7.867  21.132  0.00  0.00    +0.000 A 
ATOM     13  S   UNL     1       0.832   9.368  20.350  0.00  0.00    +0.000 S 
ENDBRANCH   7  11
ENDBRANCH   1   7
BRANCH   5  14
ATOM     14  C   UNL     1       4.137   3.248  18.755  0.00  0.00    +0.000 C 
BRANCH  14  15
ATOM     15  N   UNL     1       4.693   4.562  18.341  0.00  0.00    +0.000 N 
ATOM     16  C   UNL     1       5.615   5.208  19.275  0.00  0.00    +0.000 C 
ATOM     17  C   UNL     1       5.144   4.644  17.010  0.00  0.00    +0.000 A 
ATOM     18  C   UNL     1       5.201   5.892  16.392  0.00  0.00    +0.000 A 
ATOM     19  C   UNL     1       5.671   6.006  15.085  0.00  0.00    +0.000 A 
ATOM     20  C   UNL     1       6.075   4.856  14.441  0.00  0.00    +0.000 A 
ATOM     21  N   UNL     1       5.994   3.649  15.026  0.00  0.00    +0.000 NA
ATOM     22  N   UNL     1       5.505   3.548  16.309  0.00  0.00    +0.000 NA
ENDBRANCH  14  15
ENDBRANCH   5  14
TORSDOF 4
ENDMDL
MODEL 2
REMARK VINA RESULT:      -6.8      0.951      1.165
REMARK  Name = 
REMARK  6 active torsions:
REMARK  status: ('A' for Active; 'I' for Inactive)
REMARK    1  A    between atoms: C_1  and  C_2
REMARK    2  A    between atoms: C_4  and  C_5
REMARK    3  A    between atoms: C_5  and  N_6
REMARK    4  A    between atoms: C_10  and  C_11
REMARK    5  A    between atoms: C_11  and  N_12
REMARK    6  A    between atoms: N_12  and  C_13
REMARK                            x       y       z     vdW  Elec       q    Type
REMARK                         _______ _______ _______ _____ _____    ______ ____
ROOT
ATOM      1  N   UNL     1       1.554   4.881  19.650  0.00  0.00    +0.000 NA
ATOM      2  C   UNL     1       1.151   3.876  20.644  0.00  0.00    +0.000 C 
ATOM      3  C   UNL     1       1.965   2.576  20.668  0.00  0.00    +0.000 C 
ATOM      4  O   UNL     1       2.181   2.024  19.369  0.00  0.00    +0.000 OA
ATOM      5  C   UNL     1       2.816   2.951  18.467  0.00  0.00    +0.000 C 
ATOM      6  C   UNL     1       1.980   4.256  18.385  0.00  0.00    +0.000 C 
ENDROOT
BRANCH   1   7
ATOM      7  C   UNL     1       2.444   5.927  20.154  0.00  0.00    +0.000 C 
BRANCH   7  11
ATOM      8  C   UNL     1       0.577  10.549  20.079  0.00  0.00    +0.000 C 
ATOM      9  C   UNL     1       1.245   9.316  19.580  0.00  0.00    +0.000 A 
ATOM     10  N   UNL     1       1.405   8.211  20.280  0.00  0.00    +0.000 NA
ATOM     11  C   UNL     1       2.101   7.265  19.530  0.00  0.00    +0.000 A 
ATOM     12  C   UNL     1       2.442   7.689  18.255  0.00  0.00    +0.000 A 
ATOM     13  S   UNL     1       1.876   9.281  17.981  0.00  0.00    +0.000 S 
ENDBRANCH   7  11
ENDBRANCH   1   7
BRANCH   5  14
ATOM     14  C   UNL     1       4.307   3.213  18.798  0.00  0.00    +0.000 C 
BRANCH  14  15
ATOM     15  N   UNL     1       4.864   4.522  18.370  0.00  0.00    +0.000 N 
ATOM     16  C   UNL     1       5.830   5.151  19.272  0.00  0.00    +0.000 C 
ATOM     17  C   UNL     1       5.264   4.607  17.024  0.00  0.00    +0.000 A 
ATOM     18  C   UNL     1       5.314   5.858  16.410  0.00  0.00    +0.000 A 
ATOM     19  C   UNL     1       5.735   5.975  15.087  0.00  0.00    +0.000 A 
ATOM     20  C   UNL     1       6.099   4.823  14.421  0.00  0.00    +0.000 A 
ATOM     21  N   UNL     1       6.024   3.613  15.003  0.00  0.00    +0.000 NA
ATOM     22  N   UNL     1       5.584   3.511  16.302  0.00  0.00    +0.000 NA
ENDBRANCH  14  15
ENDBRANCH   5  14
TORSDOF 4
ENDMDL
MODEL 3
REMARK VINA RESULT:      -6.6      1.613      2.317
REMARK  Name = 
REMARK  6 active torsions:
REMARK  status: ('A' for Active; 'I' for Inactive)
REMARK    1  A    between atoms: C_1  and  C_2
REMARK    2  A    between atoms: C_4  and  C_5
REMARK    3  A    between atoms: C_5  and  N_6
REMARK    4  A    between atoms: C_10  and  C_11
REMARK    5  A    between atoms: C_11  and  N_12
REMARK    6  A    between atoms: N_12  and  C_13
REMARK                            x       y       z     vdW  Elec       q    Type
REMARK                         _______ _______ _______ _____ _____    ______ ____
ROOT
ATOM      1  N   UNL     1       1.597   4.718  19.927  0.00  0.00    +0.000 NA
ATOM      2  C   UNL     1       1.307   3.892  21.108  0.00  0.00    +0.000 C 
ATOM      3  C   UNL     1       1.946   2.498  21.139  0.00  0.00    +0.000 C 
ATOM      4  O   UNL     1       1.801   1.786  19.910  0.00  0.00    +0.000 OA
ATOM      5  C   UNL     1       2.327   2.511  18.780  0.00  0.00    +0.000 C 
ATOM      6  C   UNL     1       1.655   3.908  18.698  0.00  0.00    +0.000 C 
ENDROOT
BRANCH   1   7
ATOM      7  C   UNL     1       2.695   5.671  20.094  0.00  0.00    +0.000 C 
BRANCH   7  11
ATOM      8  C   UNL     1       0.742  10.258  20.038  0.00  0.00    +0.000 C 
ATOM      9  C   UNL     1       1.442   9.042  19.537  0.00  0.00    +0.000 A 
ATOM     10  N   UNL     1       1.612   7.933  20.227  0.00  0.00    +0.000 NA
ATOM     11  C   UNL     1       2.336   7.008  19.478  0.00  0.00    +0.000 A 
ATOM     12  C   UNL     1       2.689   7.453  18.213  0.00  0.00    +0.000 A 
ATOM     13  S   UNL     1       2.097   9.037  17.947  0.00  0.00    +0.000 S 
ENDBRANCH   7  11
ENDBRANCH   1   7
BRANCH   5  14
ATOM     14  C   UNL     1       3.874   2.587  18.760  0.00  0.00    +0.000 C 
BRANCH  14  15
ATOM     15  N   UNL     1       4.486   3.409  17.685  0.00  0.00    +0.000 N 
ATOM     16  C   UNL     1       3.565   4.123  16.800  0.00  0.00    +0.000 C 
ATOM     17  C   UNL     1       5.576   4.211  18.072  0.00  0.00    +0.000 A 
ATOM     18  C   UNL     1       6.502   4.605  17.107  0.00  0.00    +0.000 A 
ATOM     19  C   UNL     1       7.575   5.423  17.456  0.00  0.00    +0.000 A 
ATOM     20  C   UNL     1       7.678   5.826  18.771  0.00  0.00    +0.000 A 
ATOM     21  N   UNL     1       6.802   5.424  19.708  0.00  0.00    +0.000 NA
ATOM     22  N   UNL     1       5.762   4.596  19.353  0.00  0.00    +0.000 NA
ENDBRANCH  14  15
ENDBRANCH   5  14
TORSDOF 4
ENDMDL
MODEL 4
REMARK VINA RESULT:      -6.5      1.291      2.065
REMARK  Name = 
REMARK  6 active torsions:
REMARK  status: ('A' for Active; 'I' for Inactive)
REMARK    1  A    between atoms: C_1  and  C_2
REMARK    2  A    between atoms: C_4  and  C_5
REMARK    3  A    between atoms: C_5  and  N_6
REMARK    4  A    between atoms: C_10  and  C_11
REMARK    5  A    between atoms: C_11  and  N_12
REMARK    6  A    between atoms: N_12  and  C_13
REMARK                            x       y       z     vdW  Elec       q    Type
REMARK                         _______ _______ _______ _____ _____    ______ ____
ROOT
ATOM      1  N   UNL     1       1.523   4.646  19.692  0.00  0.00    +0.000 NA
ATOM      2  C   UNL     1       1.141   3.671  20.724  0.00  0.00    +0.000 C 
ATOM      3  C   UNL     1       1.827   2.301  20.654  0.00  0.00    +0.000 C 
ATOM      4  O   UNL     1       1.841   1.746  19.338  0.00  0.00    +0.000 OA
ATOM      5  C   UNL     1       2.455   2.621  18.370  0.00  0.00    +0.000 C 
ATOM      6  C   UNL     1       1.742   3.999  18.386  0.00  0.00    +0.000 C 
ENDROOT
BRANCH   1   7
ATOM      7  C   UNL     1       2.559   5.598  20.093  0.00  0.00    +0.000 C 
BRANCH   7  11
ATOM      8  C   UNL     1       1.671   9.949  17.826  0.00  0.00    +0.000 C 
ATOM      9  C   UNL     1       1.685   8.927  18.909  0.00  0.00    +0.000 A 
ATOM     10  N   UNL     1       2.243   7.737  18.815  0.00  0.00    +0.000 NA
ATOM     11  C   UNL     1       2.043   7.019  19.993  0.00  0.00    +0.000 A 
ATOM     12  C   UNL     1       1.336   7.709  20.966  0.00  0.00    +0.000 A 
ATOM     13  S   UNL     1       0.927   9.276  20.412  0.00  0.00    +0.000 S 
ENDBRANCH   7  11
ENDBRANCH   1   7
BRANCH   5  14
ATOM     14  C   UNL     1       3.992   2.738  18.530  0.00  0.00    +0.000 C 
BRANCH  14  15
ATOM     15  N   UNL     1       4.701   3.584  17.536  0.00  0.00    +0.000 N 
ATOM     16  C   UNL     1       3.865   4.344  16.606  0.00  0.00    +0.000 C 
ATOM     17  C   UNL     1       5.769   4.351  18.036  0.00  0.00    +0.000 A 
ATOM     18  C   UNL     1       6.776   4.759  17.162  0.00  0.00    +0.000 A 
ATOM     19  C   UNL     1       7.831   5.544  17.624  0.00  0.00    +0.000 A 
ATOM     20  C   UNL     1       7.836   5.900  18.956  0.00  0.00    +0.000 A 
ATOM     21  N   UNL     1       6.881   5.484  19.805  0.00  0.00    +0.000 NA
ATOM     22  N   UNL     1       5.859   4.688  19.340  0.00  0.00    +0.000 NA
ENDBRANCH  14  15
ENDBRANCH   5  14
TORSDOF 4
ENDMDL
MODEL 5
REMARK VINA RESULT:      -6.4      3.336      6.897
REMARK  Name = 
REMARK  6 active torsions:
REMARK  status: ('A' for Active; 'I' for Inactive)
REMARK    1  A    between atoms: C_1  and  C_2
REMARK    2  A    between atoms: C_4  and  C_5
REMARK    3  A    between atoms: C_5  and  N_6
REMARK    4  A    between atoms: C_10  and  C_11
REMARK    5  A    between atoms: C_11  and  N_12
REMARK    6  A    between atoms: N_12  and  C_13
REMARK                            x       y       z     vdW  Elec       q    Type
REMARK                         _______ _______ _______ _____ _____    ______ ____
ROOT
ATOM      1  N   UNL     1       7.011   4.916  16.303  0.00  0.00    +0.000 NA
ATOM      2  C   UNL     1       7.514   4.731  17.673  0.00  0.00    +0.000 C 
ATOM      3  C   UNL     1       6.611   5.238  18.804  0.00  0.00    +0.000 C 
ATOM      4  O   UNL     1       6.098   6.550  18.569  0.00  0.00    +0.000 OA
ATOM      5  C   UNL     1       5.379   6.652  17.323  0.00  0.00    +0.000 C 
ATOM      6  C   UNL     1       6.292   6.194  16.155  0.00  0.00    +0.000 C 
ENDROOT
BRANCH   1   7
ATOM      7  C   UNL     1       6.331   3.753  15.733  0.00  0.00    +0.000 C 
BRANCH   7  11
ATOM      8  C   UNL     1       4.331   3.282  11.190  0.00  0.00    +0.000 C 
ATOM      9  C   UNL     1       5.347   3.597  12.231  0.00  0.00    +0.000 A 
ATOM     10  N   UNL     1       5.186   3.401  13.525  0.00  0.00    +0.000 NA
ATOM     11  C   UNL     1       6.313   3.836  14.220  0.00  0.00    +0.000 A 
ATOM     12  C   UNL     1       7.316   4.348  13.412  0.00  0.00    +0.000 A 
ATOM     13  S   UNL     1       6.858   4.273  11.764  0.00  0.00    +0.000 S 
ENDBRANCH   7  11
ENDBRANCH   1   7
BRANCH   5  14
ATOM     14  C   UNL     1       4.011   5.925  17.337  0.00  0.00    +0.000 C 
BRANCH  14  15
ATOM     15  N   UNL     1       3.193   6.070  18.569  0.00  0.00    +0.000 N 
ATOM     16  C   UNL     1       2.513   7.352  18.758  0.00  0.00    +0.000 C 
ATOM     17  C   UNL     1       2.364   4.979  18.885  0.00  0.00    +0.000 A 
ATOM     18  C   UNL     1       1.966   4.792  20.208  0.00  0.00    +0.000 A 
ATOM     19  C   UNL     1       1.121   3.736  20.546  0.00  0.00    +0.000 A 
ATOM     20  C   UNL     1       0.696   2.901  19.534  0.00  0.00    +0.000 A 
ATOM     21  N   UNL     1       1.101   3.063  18.263  0.00  0.00    +0.000 NA
ATOM     22  N   UNL     1       1.956   4.095  17.949  0.00  0.00    +0.000 NA
ENDBRANCH  14  15
ENDBRANCH   5  14
TORSDOF 4
ENDMDL
MODEL 6
REMARK VINA RESULT:      -6.3      2.130      4.772
REMARK  Name = 
REMARK  6 active torsions:
REMARK  status: ('A' for Active; 'I' for Inactive)
REMARK    1  A    between atoms: C_1  and  C_2
REMARK    2  A    between atoms: C_4  and  C_5
REMARK    3  A    between atoms: C_5  and  N_6
REMARK    4  A    between atoms: C_10  and  C_11
REMARK    5  A    between atoms: C_11  and  N_12
REMARK    6  A    between atoms: N_12  and  C_13
REMARK                            x       y       z     vdW  Elec       q    Type
REMARK                         _______ _______ _______ _____ _____    ______ ____
ROOT
ATOM      1  N   UNL     1       4.893   6.760  18.027  0.00  0.00    +0.000 NA
ATOM      2  C   UNL     1       5.974   6.906  17.042  0.00  0.00    +0.000 C 
ATOM      3  C   UNL     1       6.657   5.612  16.582  0.00  0.00    +0.000 C 
ATOM      4  O   UNL     1       6.997   4.742  17.661  0.00  0.00    +0.000 OA
ATOM      5  C   UNL     1       5.862   4.400  18.481  0.00  0.00    +0.000 C 
ATOM      6  C   UNL     1       5.185   5.696  19.003  0.00  0.00    +0.000 C 
ENDROOT
BRANCH   1   7
ATOM      7  C   UNL     1       3.543   6.729  17.462  0.00  0.00    +0.000 C 
BRANCH   7  11
ATOM      8  C   UNL     1       1.027   8.482  21.394  0.00  0.00    +0.000 C 
ATOM      9  C   UNL     1       1.545   8.409  20.000  0.00  0.00    +0.000 A 
ATOM     10  N   UNL     1       2.298   7.436  19.527  0.00  0.00    +0.000 NA
ATOM     11  C   UNL     1       2.636   7.695  18.200  0.00  0.00    +0.000 A 
ATOM     12  C   UNL     1       2.107   8.873  17.697  0.00  0.00    +0.000 A 
ATOM     13  S   UNL     1       1.164   9.663  18.888  0.00  0.00    +0.000 S 
ENDBRANCH   7  11
ENDBRANCH   1   7
BRANCH   5  14
ATOM     14  C   UNL     1       4.864   3.439  17.787  0.00  0.00    +0.000 C 
BRANCH  14  15
ATOM     15  N   UNL     1       3.422   3.663  18.064  0.00  0.00    +0.000 N 
ATOM     16  C   UNL     1       2.477   3.166  17.064  0.00  0.00    +0.000 C 
ATOM     17  C   UNL     1       3.000   3.383  19.377  0.00  0.00    +0.000 A 
ATOM     18  C   UNL     1       1.854   4.009  19.867  0.00  0.00    +0.000 A 
ATOM     19  C   UNL     1       1.396   3.728  21.153  0.00  0.00    +0.000 A 
ATOM     20  C   UNL     1       2.106   2.818  21.906  0.00  0.00    +0.000 A 
ATOM     21  N   UNL     1       3.227   2.235  21.445  0.00  0.00    +0.000 NA
ATOM     22  N   UNL     1       3.681   2.541  20.183  0.00  0.00    +0.000 NA
ENDBRANCH  14  15
ENDBRANCH   5  14
TORSDOF 4
ENDMDL
MODEL 7
REMARK VINA RESULT:      -6.3      3.287      6.873
REMARK  Name = 
REMARK  6 active torsions:
REMARK  status: ('A' for Active; 'I' for Inactive)
REMARK    1  A    between atoms: C_1  and  C_2
REMARK    2  A    between atoms: C_4  and  C_5
REMARK    3  A    between atoms: C_5  and  N_6
REMARK    4  A    between atoms: C_10  and  C_11
REMARK    5  A    between atoms: C_11  and  N_12
REMARK    6  A    between atoms: N_12  and  C_13
REMARK                            x       y       z     vdW  Elec       q    Type
REMARK                         _______ _______ _______ _____ _____    ______ ____
ROOT
ATOM      1  N   UNL     1       6.481   5.708  16.206  0.00  0.00    +0.000 NA
ATOM      2  C   UNL     1       6.693   4.412  16.868  0.00  0.00    +0.000 C 
ATOM      3  C   UNL     1       5.866   4.149  18.132  0.00  0.00    +0.000 C 
ATOM      4  O   UNL     1       5.866   5.249  19.043  0.00  0.00    +0.000 OA
ATOM      5  C   UNL     1       5.407   6.474  18.437  0.00  0.00    +0.000 C 
ATOM      6  C   UNL     1       6.266   6.790  17.184  0.00  0.00    +0.000 C 
ENDROOT
BRANCH   1   7
ATOM      7  C   UNL     1       5.535   5.685  15.090  0.00  0.00    +0.000 C 
BRANCH   7  11
ATOM      8  C   UNL     1       5.412   2.196  11.531  0.00  0.00    +0.000 C 
ATOM      9  C   UNL     1       5.953   3.295  12.376  0.00  0.00    +0.000 A 
ATOM     10  N   UNL     1       5.317   3.850  13.388  0.00  0.00    +0.000 NA
ATOM     11  C   UNL     1       6.090   4.870  13.939  0.00  0.00    +0.000 A 
ATOM     12  C   UNL     1       7.318   5.051  13.321  0.00  0.00    +0.000 A 
ATOM     13  S   UNL     1       7.518   3.925  12.046  0.00  0.00    +0.000 S 
ENDBRANCH   7  11
ENDBRANCH   1   7
BRANCH   5  14
ATOM     14  C   UNL     1       3.887   6.487  18.142  0.00  0.00    +0.000 C 
BRANCH  14  15
ATOM     15  N   UNL     1       2.983   6.228  19.293  0.00  0.00    +0.000 N 
ATOM     16  C   UNL     1       2.161   7.350  19.746  0.00  0.00    +0.000 C 
ATOM     17  C   UNL     1       2.256   5.025  19.241  0.00  0.00    +0.000 A 
ATOM     18  C   UNL     1       1.799   4.460  20.431  0.00  0.00    +0.000 A 
ATOM     19  C   UNL     1       1.051   3.284  20.408  0.00  0.00    +0.000 A 
ATOM     20  C   UNL     1       0.780   2.715  19.182  0.00  0.00    +0.000 A 
ATOM     21  N   UNL     1       1.244   3.244  18.036  0.00  0.00    +0.000 NA
ATOM     22  N   UNL     1       2.002   4.392  18.076  0.00  0.00    +0.000 NA
ENDBRANCH  14  15
ENDBRANCH   5  14
TORSDOF 4
ENDMDL
MODEL 8
REMARK VINA RESULT:      -6.3      3.754      7.127
REMARK  Name = 
REMARK  6 active torsions:
REMARK  status: ('A' for Active; 'I' for Inactive)
REMARK    1  A    between atoms: C_1  and  C_2
REMARK    2  A    between atoms: C_4  and  C_5
REMARK    3  A    between atoms: C_5  and  N_6
REMARK    4  A    between atoms: C_10  and  C_11
REMARK    5  A    between atoms: C_11  and  N_12
REMARK    6  A    between atoms: N_12  and  C_13
REMARK                            x       y       z     vdW  Elec       q    Type
REMARK                         _______ _______ _______ _____ _____    ______ ____
ROOT
ATOM      1  N   UNL     1       6.613   5.774  16.097  0.00  0.00    +0.000 NA
ATOM      2  C   UNL     1       7.368   6.324  17.233  0.00  0.00    +0.000 C 
ATOM      3  C   UNL     1       6.759   6.108  18.624  0.00  0.00    +0.000 C 
ATOM      4  O   UNL     1       5.365   6.410  18.680  0.00  0.00    +0.000 OA
ATOM      5  C   UNL     1       4.593   5.665  17.716  0.00  0.00    +0.000 C 
ATOM      6  C   UNL     1       5.159   5.910  16.293  0.00  0.00    +0.000 C 
ENDROOT
BRANCH   1   7
ATOM      7  C   UNL     1       7.057   4.457  15.639  0.00  0.00    +0.000 C 
BRANCH   7  11
ATOM      8  C   UNL     1       4.706   2.996  11.493  0.00  0.00    +0.000 C 
ATOM      9  C   UNL     1       5.749   3.631  12.344  0.00  0.00    +0.000 A 
ATOM     10  N   UNL     1       5.770   3.596  13.662  0.00  0.00    +0.000 NA
ATOM     11  C   UNL     1       6.859   4.319  14.143  0.00  0.00    +0.000 A 
ATOM     12  C   UNL     1       7.651   4.880  13.153  0.00  0.00    +0.000 A 
ATOM     13  S   UNL     1       7.040   4.490  11.603  0.00  0.00    +0.000 S 
ENDBRANCH   7  11
ENDBRANCH   1   7
BRANCH   5  14
ATOM     14  C   UNL     1       4.463   4.159  18.060  0.00  0.00    +0.000 C 
BRANCH  14  15
ATOM     15  N   UNL     1       3.084   3.611  18.135  0.00  0.00    +0.000 N 
ATOM     16  C   UNL     1       2.724   2.603  17.137  0.00  0.00    +0.000 C 
ATOM     17  C   UNL     1       2.631   3.267  19.422  0.00  0.00    +0.000 A 
ATOM     18  C   UNL     1       1.259   3.233  19.669  0.00  0.00    +0.000 A 
ATOM     19  C   UNL     1       0.781   2.868  20.926  0.00  0.00    +0.000 A 
ATOM     20  C   UNL     1       1.703   2.542  21.897  0.00  0.00    +0.000 A 
ATOM     21  N   UNL     1       3.026   2.601  21.668  0.00  0.00    +0.000 NA
ATOM     22  N   UNL     1       3.484   2.987  20.430  0.00  0.00    +0.000 NA
ENDBRANCH  14  15
ENDBRANCH   5  14
TORSDOF 4
ENDMDL
MODEL 9
REMARK VINA RESULT:      -6.2      3.743      6.912
REMARK  Name = 
REMARK  6 active torsions:
REMARK  status: ('A' for Active; 'I' for Inactive)
REMARK    1  A    between atoms: C_1  and  C_2
REMARK    2  A    between atoms: C_4  and  C_5
REMARK    3  A    between atoms: C_5  and  N_6
REMARK    4  A    between atoms: C_10  and  C_11
REMARK    5  A    between atoms: C_11  and  N_12
REMARK    6  A    between atoms: N_12  and  C_13
REMARK                            x       y       z     vdW  Elec       q    Type
REMARK                         _______ _______ _______ _____ _____    ______ ____
ROOT
ATOM      1  N   UNL     1       7.036   5.717  17.038  0.00  0.00    +0.000 NA
ATOM      2  C   UNL     1       7.678   6.031  18.323  0.00  0.00    +0.000 C 
ATOM      3  C   UNL     1       6.951   5.547  19.584  0.00  0.00    +0.000 C 
ATOM      4  O   UNL     1       5.553   5.834  19.572  0.00  0.00    +0.000 OA
ATOM      5  C   UNL     1       4.882   5.294  18.415  0.00  0.00    +0.000 C 
ATOM      6  C   UNL     1       5.568   5.813  17.124  0.00  0.00    +0.000 C 
ENDROOT
BRANCH   1   7
ATOM      7  C   UNL     1       7.540   4.515  16.373  0.00  0.00    +0.000 C 
BRANCH   7  11
ATOM      8  C   UNL     1       7.866   5.949  11.609  0.00  0.00    +0.000 C 
ATOM      9  C   UNL     1       7.370   5.212  12.805  0.00  0.00    +0.000 A 
ATOM     10  N   UNL     1       7.807   5.392  14.035  0.00  0.00    +0.000 NA
ATOM     11  C   UNL     1       7.160   4.519  14.906  0.00  0.00    +0.000 A 
ATOM     12  C   UNL     1       6.225   3.696  14.296  0.00  0.00    +0.000 A 
ATOM     13  S   UNL     1       6.141   4.025  12.618  0.00  0.00    +0.000 S 
ENDBRANCH   7  11
ENDBRANCH   1   7
BRANCH   5  14
ATOM     14  C   UNL     1       4.746   3.751  18.444  0.00  0.00    +0.000 C 
BRANCH  14  15
ATOM     15  N   UNL     1       3.370   3.202  18.340  0.00  0.00    +0.000 N 
ATOM     16  C   UNL     1       3.187   2.056  17.448  0.00  0.00    +0.000 C 
ATOM     17  C   UNL     1       2.681   3.042  19.556  0.00  0.00    +0.000 A 
ATOM     18  C   UNL     1       1.286   3.027  19.546  0.00  0.00    +0.000 A 
ATOM     19  C   UNL     1       0.578   2.842  20.732  0.00  0.00    +0.000 A 
ATOM     20  C   UNL     1       1.299   2.670  21.894  0.00  0.00    +0.000 A 
ATOM     21  N   UNL     1       2.642   2.713  21.909  0.00  0.00    +0.000 NA
ATOM     22  N   UNL     1       3.328   2.921  20.735  0.00  0.00    +0.000 NA
ENDBRANCH  14  15
ENDBRANCH   5  14
TORSDOF 4
ENDMDL
