MODEL 1
REMARK VINA RESULT:      -7.6      0.000      0.000
REMARK  Name = 
REMARK  3 active torsions:
REMARK  status: ('A' for Active; 'I' for Inactive)
REMARK    1  A    between atoms: C_2  and  C_3
REMARK    2  A    between atoms: C_11  and  C_12
REMARK    3  A    between atoms: C_17  and  O_18
REMARK                            x       y       z     vdW  Elec       q    Type
REMARK                         _______ _______ _______ _____ _____    ______ ____
ROOT
ATOM      1  C   UNL     1       2.529   5.801  19.688  0.00  0.00    +0.000 A 
ATOM      2  C   UNL     1       1.437   5.409  20.440  0.00  0.00    +0.000 A 
ATOM      3  N   UNL     1       1.670   4.134  20.876  0.00  0.00    +0.000 N 
ATOM      4  C   UNL     1       2.890   3.715  20.431  0.00  0.00    +0.000 A 
ATOM      5  N   UNL     1       3.374   2.489  20.667  0.00  0.00    +0.000 NA
ATOM      6  C   UNL     1       4.575   2.297  20.128  0.00  0.00    +0.000 A 
ATOM      7  N   UNL     1       5.128   1.038  20.253  0.00  0.00    +0.000 N 
ATOM      8  N   UNL     1       5.311   3.220  19.505  0.00  0.00    +0.000 NA
ATOM      9  C   UNL     1       4.800   4.463  19.255  0.00  0.00    +0.000 A 
ATOM     10  C   UNL     1       3.498   4.745  19.721  0.00  0.00    +0.000 A 
ATOM     11  H   UNL     1       1.046   3.559  21.428  0.00  0.00    +0.000 HD
ATOM     12  H   UNL     1       4.760   0.567  21.064  0.00  0.00    +0.000 HD
ATOM     13  H   UNL     1       6.130   1.098  20.145  0.00  0.00    +0.000 HD
ENDROOT
BRANCH   9  14
ATOM     14  C   UNL     1       5.675   5.421  18.549  0.00  0.00    +0.000 A 
ATOM     15  C   UNL     1       5.262   6.033  17.348  0.00  0.00    +0.000 A 
ATOM     16  C   UNL     1       6.091   6.906  16.637  0.00  0.00    +0.000 A 
ATOM     17  C   UNL     1       7.333   7.259  17.147  0.00  0.00    +0.000 A 
ATOM     18  C   UNL     1       7.748   6.731  18.365  0.00  0.00    +0.000 A 
ATOM     19  C   UNL     1       6.935   5.814  19.046  0.00  0.00    +0.000 A 
BRANCH  19  20
ATOM     20  O   UNL     1       7.415   5.281  20.214  0.00  0.00    +0.000 OA
ATOM     21  H   UNL     1       6.880   5.601  20.956  0.00  0.00    +0.000 HD
ENDBRANCH  19  20
ENDBRANCH   9  14
BRANCH   1  23
ATOM     22  N   UNL     1       2.612   8.074  18.447  0.00  0.00    +0.000 NA
ATOM     23  C   UNL     1       2.586   7.068  19.024  0.00  0.00    +0.000 C 
ENDBRANCH   1  23
TORSDOF 3
ENDMDL
MODEL 2
REMARK VINA RESULT:      -7.4      1.823      3.626
REMARK  Name = 
REMARK  3 active torsions:
REMARK  status: ('A' for Active; 'I' for Inactive)
REMARK    1  A    between atoms: C_2  and  C_3
REMARK    2  A    between atoms: C_11  and  C_12
REMARK    3  A    between atoms: C_17  and  O_18
REMARK                            x       y       z     vdW  Elec       q    Type
REMARK                         _______ _______ _______ _____ _____    ______ ____
ROOT
ATOM      1  C   UNL     1       2.486   2.586  19.248  0.00  0.00    +0.000 A 
ATOM      2  C   UNL     1       1.306   2.226  19.872  0.00  0.00    +0.000 A 
ATOM      3  N   UNL     1       0.758   3.359  20.407  0.00  0.00    +0.000 N 
ATOM      4  C   UNL     1       1.557   4.430  20.124  0.00  0.00    +0.000 A 
ATOM      5  N   UNL     1       1.298   5.671  20.555  0.00  0.00    +0.000 NA
ATOM      6  C   UNL     1       2.216   6.553  20.170  0.00  0.00    +0.000 A 
ATOM      7  N   UNL     1       2.077   7.847  20.627  0.00  0.00    +0.000 N 
ATOM      8  N   UNL     1       3.243   6.307  19.354  0.00  0.00    +0.000 NA
ATOM      9  C   UNL     1       3.508   5.034  18.934  0.00  0.00    +0.000 A 
ATOM     10  C   UNL     1       2.632   4.008  19.350  0.00  0.00    +0.000 A 
ATOM     11  H   UNL     1      -0.093   3.423  20.950  0.00  0.00    +0.000 HD
ATOM     12  H   UNL     1       1.112   8.050  20.835  0.00  0.00    +0.000 HD
ATOM     13  H   UNL     1       2.579   8.476  20.015  0.00  0.00    +0.000 HD
ENDROOT
BRANCH   9  14
ATOM     14  C   UNL     1       4.672   4.847  18.043  0.00  0.00    +0.000 A 
ATOM     15  C   UNL     1       4.498   4.587  16.669  0.00  0.00    +0.000 A 
ATOM     16  C   UNL     1       5.583   4.360  15.814  0.00  0.00    +0.000 A 
ATOM     17  C   UNL     1       6.881   4.467  16.292  0.00  0.00    +0.000 A 
ATOM     18  C   UNL     1       7.095   4.792  17.628  0.00  0.00    +0.000 A 
ATOM     19  C   UNL     1       6.004   4.965  18.491  0.00  0.00    +0.000 A 
BRANCH  19  20
ATOM     20  O   UNL     1       6.270   5.229  19.810  0.00  0.00    +0.000 OA
ATOM     21  H   UNL     1       5.527   4.926  20.353  0.00  0.00    +0.000 HD
ENDBRANCH  19  20
ENDBRANCH   9  14
BRANCH   1  23
ATOM     22  N   UNL     1       4.085   0.879  18.133  0.00  0.00    +0.000 NA
ATOM     23  C   UNL     1       3.350   1.623  18.633  0.00  0.00    +0.000 C 
ENDBRANCH   1  23
TORSDOF 3
ENDMDL
MODEL 3
REMARK VINA RESULT:      -7.2      2.635      5.126
REMARK  Name = 
REMARK  3 active torsions:
REMARK  status: ('A' for Active; 'I' for Inactive)
REMARK    1  A    between atoms: C_2  and  C_3
REMARK    2  A    between atoms: C_11  and  C_12
REMARK    3  A    between atoms: C_17  and  O_18
REMARK                            x       y       z     vdW  Elec       q    Type
REMARK                         _______ _______ _______ _____ _____    ______ ____
ROOT
ATOM      1  C   UNL     1       4.685   3.986  16.470  0.00  0.00    +0.000 A 
ATOM      2  C   UNL     1       5.473   4.028  15.336  0.00  0.00    +0.000 A 
ATOM      3  N   UNL     1       6.694   4.528  15.697  0.00  0.00    +0.000 N 
ATOM      4  C   UNL     1       6.702   4.790  17.037  0.00  0.00    +0.000 A 
ATOM      5  N   UNL     1       7.751   5.328  17.672  0.00  0.00    +0.000 NA
ATOM      6  C   UNL     1       7.531   5.506  18.971  0.00  0.00    +0.000 A 
ATOM      7  N   UNL     1       8.527   6.123  19.700  0.00  0.00    +0.000 N 
ATOM      8  N   UNL     1       6.447   5.112  19.643  0.00  0.00    +0.000 NA
ATOM      9  C   UNL     1       5.375   4.580  18.982  0.00  0.00    +0.000 A 
ATOM     10  C   UNL     1       5.479   4.418  17.584  0.00  0.00    +0.000 A 
ATOM     11  H   UNL     1       7.481   4.705  15.086  0.00  0.00    +0.000 HD
ATOM     12  H   UNL     1       9.425   5.983  19.265  0.00  0.00    +0.000 HD
ATOM     13  H   UNL     1       8.424   5.888  20.677  0.00  0.00    +0.000 HD
ENDROOT
BRANCH   9  14
ATOM     14  C   UNL     1       4.210   4.183  19.799  0.00  0.00    +0.000 A 
ATOM     15  C   UNL     1       3.172   5.095  20.075  0.00  0.00    +0.000 A 
ATOM     16  C   UNL     1       2.083   4.757  20.885  0.00  0.00    +0.000 A 
ATOM     17  C   UNL     1       1.957   3.467  21.380  0.00  0.00    +0.000 A 
ATOM     18  C   UNL     1       2.925   2.517  21.071  0.00  0.00    +0.000 A 
ATOM     19  C   UNL     1       4.041   2.877  20.304  0.00  0.00    +0.000 A 
BRANCH  19  20
ATOM     20  O   UNL     1       4.994   1.918  20.076  0.00  0.00    +0.000 OA
ATOM     21  H   UNL     1       4.825   1.496  19.220  0.00  0.00    +0.000 HD
ENDBRANCH  19  20
ENDBRANCH   9  14
BRANCH   1  23
ATOM     22  N   UNL     1       2.209   3.225  16.456  0.00  0.00    +0.000 NA
ATOM     23  C   UNL     1       3.316   3.570  16.436  0.00  0.00    +0.000 C 
ENDBRANCH   1  23
TORSDOF 3
ENDMDL
MODEL 4
REMARK VINA RESULT:      -7.2      1.450      3.666
REMARK  Name = 
REMARK  3 active torsions:
REMARK  status: ('A' for Active; 'I' for Inactive)
REMARK    1  A    between atoms: C_2  and  C_3
REMARK    2  A    between atoms: C_11  and  C_12
REMARK    3  A    between atoms: C_17  and  O_18
REMARK                            x       y       z     vdW  Elec       q    Type
REMARK                         _______ _______ _______ _____ _____    ______ ____
ROOT
ATOM      1  C   UNL     1       3.350   3.098  20.430  0.00  0.00    +0.000 A 
ATOM      2  C   UNL     1       2.322   2.831  21.314  0.00  0.00    +0.000 A 
ATOM      3  N   UNL     1       1.566   3.966  21.427  0.00  0.00    +0.000 N 
ATOM      4  C   UNL     1       2.084   4.941  20.623  0.00  0.00    +0.000 A 
ATOM      5  N   UNL     1       1.579   6.179  20.555  0.00  0.00    +0.000 NA
ATOM      6  C   UNL     1       2.250   6.964  19.718  0.00  0.00    +0.000 A 
ATOM      7  N   UNL     1       1.852   8.282  19.634  0.00  0.00    +0.000 N 
ATOM      8  N   UNL     1       3.255   6.585  18.925  0.00  0.00    +0.000 NA
ATOM      9  C   UNL     1       3.774   5.324  19.015  0.00  0.00    +0.000 A 
ATOM     10  C   UNL     1       3.178   4.432  19.932  0.00  0.00    +0.000 A 
ATOM     11  H   UNL     1       0.757   4.098  22.019  0.00  0.00    +0.000 HD
ATOM     12  H   UNL     1       0.880   8.377  19.884  0.00  0.00    +0.000 HD
ATOM     13  H   UNL     1       2.161   8.672  18.754  0.00  0.00    +0.000 HD
ENDROOT
BRANCH   9  14
ATOM     14  C   UNL     1       4.893   4.990  18.110  0.00  0.00    +0.000 A 
ATOM     15  C   UNL     1       4.664   4.690  16.752  0.00  0.00    +0.000 A 
ATOM     16  C   UNL     1       5.701   4.326  15.887  0.00  0.00    +0.000 A 
ATOM     17  C   UNL     1       7.015   4.328  16.335  0.00  0.00    +0.000 A 
ATOM     18  C   UNL     1       7.290   4.687  17.650  0.00  0.00    +0.000 A 
ATOM     19  C   UNL     1       6.241   4.999  18.526  0.00  0.00    +0.000 A 
BRANCH  19  20
ATOM     20  O   UNL     1       6.561   5.292  19.827  0.00  0.00    +0.000 OA
ATOM     21  H   UNL     1       7.006   6.152  19.861  0.00  0.00    +0.000 HD
ENDBRANCH  19  20
ENDBRANCH   9  14
BRANCH   1  23
ATOM     22  N   UNL     1       5.195   1.347  19.935  0.00  0.00    +0.000 NA
ATOM     23  C   UNL     1       4.370   2.139  20.130  0.00  0.00    +0.000 C 
ENDBRANCH   1  23
TORSDOF 3
ENDMDL
MODEL 5
REMARK VINA RESULT:      -7.0      1.010      1.018
REMARK  Name = 
REMARK  3 active torsions:
REMARK  status: ('A' for Active; 'I' for Inactive)
REMARK    1  A    between atoms: C_2  and  C_3
REMARK    2  A    between atoms: C_11  and  C_12
REMARK    3  A    between atoms: C_17  and  O_18
REMARK                            x       y       z     vdW  Elec       q    Type
REMARK                         _______ _______ _______ _____ _____    ______ ____
ROOT
ATOM      1  C   UNL     1       2.118   5.520  19.751  0.00  0.00    +0.000 A 
ATOM      2  C   UNL     1       1.073   5.031  20.513  0.00  0.00    +0.000 A 
ATOM      3  N   UNL     1       1.171   3.666  20.522  0.00  0.00    +0.000 N 
ATOM      4  C   UNL     1       2.261   3.281  19.796  0.00  0.00    +0.000 A 
ATOM      5  N   UNL     1       2.589   1.999  19.592  0.00  0.00    +0.000 NA
ATOM      6  C   UNL     1       3.681   1.859  18.847  0.00  0.00    +0.000 A 
ATOM      7  N   UNL     1       4.060   0.573  18.518  0.00  0.00    +0.000 N 
ATOM      8  N   UNL     1       4.466   2.848  18.413  0.00  0.00    +0.000 NA
ATOM      9  C   UNL     1       4.111   4.154  18.612  0.00  0.00    +0.000 A 
ATOM     10  C   UNL     1       2.925   4.411  19.331  0.00  0.00    +0.000 A 
ATOM     11  H   UNL     1       0.538   3.017  20.972  0.00  0.00    +0.000 HD
ATOM     12  H   UNL     1       3.724  -0.083  19.204  0.00  0.00    +0.000 HD
ATOM     13  H   UNL     1       5.042   0.561  18.282  0.00  0.00    +0.000 HD
ENDROOT
BRANCH   9  14
ATOM     14  C   UNL     1       5.029   5.187  18.089  0.00  0.00    +0.000 A 
ATOM     15  C   UNL     1       4.689   5.951  16.954  0.00  0.00    +0.000 A 
ATOM     16  C   UNL     1       5.561   6.902  16.412  0.00  0.00    +0.000 A 
ATOM     17  C   UNL     1       6.769   7.177  17.038  0.00  0.00    +0.000 A 
ATOM     18  C   UNL     1       7.109   6.494  18.201  0.00  0.00    +0.000 A 
ATOM     19  C   UNL     1       6.256   5.504  18.709  0.00  0.00    +0.000 A 
BRANCH  19  20
ATOM     20  O   UNL     1       6.663   4.822  19.826  0.00  0.00    +0.000 OA
ATOM     21  H   UNL     1       6.745   5.442  20.567  0.00  0.00    +0.000 HD
ENDBRANCH  19  20
ENDBRANCH   9  14
BRANCH   1  23
ATOM     22  N   UNL     1       2.370   8.045  19.232  0.00  0.00    +0.000 NA
ATOM     23  C   UNL     1       2.279   6.916  19.481  0.00  0.00    +0.000 C 
ENDBRANCH   1  23
TORSDOF 3
ENDMDL
MODEL 6
REMARK VINA RESULT:      -7.0      1.738      4.126
REMARK  Name = 
REMARK  3 active torsions:
REMARK  status: ('A' for Active; 'I' for Inactive)
REMARK    1  A    between atoms: C_2  and  C_3
REMARK    2  A    between atoms: C_11  and  C_12
REMARK    3  A    between atoms: C_17  and  O_18
REMARK                            x       y       z     vdW  Elec       q    Type
REMARK                         _______ _______ _______ _____ _____    ______ ____
ROOT
ATOM      1  C   UNL     1       3.315   4.621  19.919  0.00  0.00    +0.000 A 
ATOM      2  C   UNL     1       2.351   4.716  20.906  0.00  0.00    +0.000 A 
ATOM      3  N   UNL     1       1.721   5.921  20.754  0.00  0.00    +0.000 N 
ATOM      4  C   UNL     1       2.254   6.584  19.686  0.00  0.00    +0.000 A 
ATOM      5  N   UNL     1       1.865   7.811  19.318  0.00  0.00    +0.000 NA
ATOM      6  C   UNL     1       2.528   8.266  18.259  0.00  0.00    +0.000 A 
ATOM      7  N   UNL     1       2.251   9.553  17.847  0.00  0.00    +0.000 N 
ATOM      8  N   UNL     1       3.415   7.578  17.536  0.00  0.00    +0.000 NA
ATOM      9  C   UNL     1       3.818   6.333  17.931  0.00  0.00    +0.000 A 
ATOM     10  C   UNL     1       3.226   5.788  19.091  0.00  0.00    +0.000 A 
ATOM     11  H   UNL     1       0.985   6.297  21.338  0.00  0.00    +0.000 HD
ATOM     12  H   UNL     1       1.320   9.823  18.123  0.00  0.00    +0.000 HD
ATOM     13  H   UNL     1       2.515   9.660  16.877  0.00  0.00    +0.000 HD
ENDROOT
BRANCH   9  14
ATOM     14  C   UNL     1       4.812   5.646  17.082  0.00  0.00    +0.000 A 
ATOM     15  C   UNL     1       4.513   4.415  16.465  0.00  0.00    +0.000 A 
ATOM     16  C   UNL     1       5.454   3.722  15.695  0.00  0.00    +0.000 A 
ATOM     17  C   UNL     1       6.700   4.280  15.451  0.00  0.00    +0.000 A 
ATOM     18  C   UNL     1       7.010   5.527  15.984  0.00  0.00    +0.000 A 
ATOM     19  C   UNL     1       6.082   6.191  16.799  0.00  0.00    +0.000 A 
BRANCH  19  20
ATOM     20  O   UNL     1       6.457   7.391  17.345  0.00  0.00    +0.000 OA
ATOM     21  H   UNL     1       6.012   7.508  18.198  0.00  0.00    +0.000 HD
ENDBRANCH  19  20
ENDBRANCH   9  14
BRANCH   1  23
ATOM     22  N   UNL     1       4.907   2.581  19.791  0.00  0.00    +0.000 NA
ATOM     23  C   UNL     1       4.207   3.504  19.827  0.00  0.00    +0.000 C 
ENDBRANCH   1  23
TORSDOF 3
ENDMDL
MODEL 7
REMARK VINA RESULT:      -7.0      2.488      4.341
REMARK  Name = 
REMARK  3 active torsions:
REMARK  status: ('A' for Active; 'I' for Inactive)
REMARK    1  A    between atoms: C_2  and  C_3
REMARK    2  A    between atoms: C_11  and  C_12
REMARK    3  A    between atoms: C_17  and  O_18
REMARK                            x       y       z     vdW  Elec       q    Type
REMARK                         _______ _______ _______ _____ _____    ______ ____
ROOT
ATOM      1  C   UNL     1       5.327   5.321  16.988  0.00  0.00    +0.000 A 
ATOM      2  C   UNL     1       6.089   4.366  16.341  0.00  0.00    +0.000 A 
ATOM      3  N   UNL     1       5.453   3.163  16.482  0.00  0.00    +0.000 N 
ATOM      4  C   UNL     1       4.299   3.337  17.191  0.00  0.00    +0.000 A 
ATOM      5  N   UNL     1       3.484   2.328  17.522  0.00  0.00    +0.000 NA
ATOM      6  C   UNL     1       2.426   2.727  18.221  0.00  0.00    +0.000 A 
ATOM      7  N   UNL     1       1.564   1.750  18.675  0.00  0.00    +0.000 N 
ATOM      8  N   UNL     1       2.103   3.992  18.498  0.00  0.00    +0.000 NA
ATOM      9  C   UNL     1       2.951   5.014  18.170  0.00  0.00    +0.000 A 
ATOM     10  C   UNL     1       4.143   4.686  17.489  0.00  0.00    +0.000 A 
ATOM     11  H   UNL     1       5.773   2.265  16.143  0.00  0.00    +0.000 HD
ATOM     12  H   UNL     1       1.610   0.933  18.086  0.00  0.00    +0.000 HD
ATOM     13  H   UNL     1       0.659   2.159  18.859  0.00  0.00    +0.000 HD
ENDROOT
BRANCH   9  14
ATOM     14  C   UNL     1       2.524   6.383  18.524  0.00  0.00    +0.000 A 
ATOM     15  C   UNL     1       2.348   7.367  17.531  0.00  0.00    +0.000 A 
ATOM     16  C   UNL     1       1.990   8.683  17.846  0.00  0.00    +0.000 A 
ATOM     17  C   UNL     1       1.717   9.036  19.160  0.00  0.00    +0.000 A 
ATOM     18  C   UNL     1       1.811   8.074  20.161  0.00  0.00    +0.000 A 
ATOM     19  C   UNL     1       2.223   6.772  19.846  0.00  0.00    +0.000 A 
BRANCH  19  20
ATOM     20  O   UNL     1       2.353   5.877  20.877  0.00  0.00    +0.000 OA
ATOM     21  H   UNL     1       3.182   6.049  21.347  0.00  0.00    +0.000 HD
ENDBRANCH  19  20
ENDBRANCH   9  14
BRANCH   1  23
ATOM     22  N   UNL     1       6.113   7.785  17.146  0.00  0.00    +0.000 NA
ATOM     23  C   UNL     1       5.738   6.689  17.088  0.00  0.00    +0.000 C 
ENDBRANCH   1  23
TORSDOF 3
ENDMDL
MODEL 8
REMARK VINA RESULT:      -7.0      1.106      1.554
REMARK  Name = 
REMARK  3 active torsions:
REMARK  status: ('A' for Active; 'I' for Inactive)
REMARK    1  A    between atoms: C_2  and  C_3
REMARK    2  A    between atoms: C_11  and  C_12
REMARK    3  A    between atoms: C_17  and  O_18
REMARK                            x       y       z     vdW  Elec       q    Type
REMARK                         _______ _______ _______ _____ _____    ______ ____
ROOT
ATOM      1  C   UNL     1       2.568   5.756  19.648  0.00  0.00    +0.000 A 
ATOM      2  C   UNL     1       1.464   5.388  20.394  0.00  0.00    +0.000 A 
ATOM      3  N   UNL     1       1.675   4.115  20.847  0.00  0.00    +0.000 N 
ATOM      4  C   UNL     1       2.893   3.673  20.417  0.00  0.00    +0.000 A 
ATOM      5  N   UNL     1       3.357   2.443  20.670  0.00  0.00    +0.000 NA
ATOM      6  C   UNL     1       4.559   2.227  20.144  0.00  0.00    +0.000 A 
ATOM      7  N   UNL     1       5.092   0.962  20.287  0.00  0.00    +0.000 N 
ATOM      8  N   UNL     1       5.313   3.132  19.517  0.00  0.00    +0.000 NA
ATOM      9  C   UNL     1       4.823   4.380  19.248  0.00  0.00    +0.000 A 
ATOM     10  C   UNL     1       3.522   4.686  19.701  0.00  0.00    +0.000 A 
ATOM     11  H   UNL     1       1.038   3.555  21.399  0.00  0.00    +0.000 HD
ATOM     12  H   UNL     1       4.711   0.505  21.100  0.00  0.00    +0.000 HD
ATOM     13  H   UNL     1       6.097   1.006  20.187  0.00  0.00    +0.000 HD
ENDROOT
BRANCH   9  14
ATOM     14  C   UNL     1       5.718   5.317  18.540  0.00  0.00    +0.000 A 
ATOM     15  C   UNL     1       6.905   5.782  19.141  0.00  0.00    +0.000 A 
ATOM     16  C   UNL     1       7.745   6.705  18.509  0.00  0.00    +0.000 A 
ATOM     17  C   UNL     1       7.465   7.133  17.219  0.00  0.00    +0.000 A 
ATOM     18  C   UNL     1       6.340   6.642  16.564  0.00  0.00    +0.000 A 
ATOM     19  C   UNL     1       5.474   5.759  17.223  0.00  0.00    +0.000 A 
BRANCH  19  20
ATOM     20  O   UNL     1       4.350   5.349  16.553  0.00  0.00    +0.000 OA
ATOM     21  H   UNL     1       3.662   5.118  17.194  0.00  0.00    +0.000 HD
ENDBRANCH  19  20
ENDBRANCH   9  14
BRANCH   1  23
ATOM     22  N   UNL     1       2.680   8.019  18.392  0.00  0.00    +0.000 NA
ATOM     23  C   UNL     1       2.649   7.015  18.971  0.00  0.00    +0.000 C 
ENDBRANCH   1  23
TORSDOF 3
ENDMDL
MODEL 9
REMARK VINA RESULT:      -7.0      2.491      4.726
REMARK  Name = 
REMARK  3 active torsions:
REMARK  status: ('A' for Active; 'I' for Inactive)
REMARK    1  A    between atoms: C_2  and  C_3
REMARK    2  A    between atoms: C_11  and  C_12
REMARK    3  A    between atoms: C_17  and  O_18
REMARK                            x       y       z     vdW  Elec       q    Type
REMARK                         _______ _______ _______ _____ _____    ______ ____
ROOT
ATOM      1  C   UNL     1       3.168   6.958  18.352  0.00  0.00    +0.000 A 
ATOM      2  C   UNL     1       3.525   7.954  17.461  0.00  0.00    +0.000 A 
ATOM      3  N   UNL     1       4.317   7.386  16.501  0.00  0.00    +0.000 N 
ATOM      4  C   UNL     1       4.458   6.052  16.755  0.00  0.00    +0.000 A 
ATOM      5  N   UNL     1       5.213   5.240  16.006  0.00  0.00    +0.000 NA
ATOM      6  C   UNL     1       5.213   3.985  16.445  0.00  0.00    +0.000 A 
ATOM      7  N   UNL     1       6.023   3.085  15.783  0.00  0.00    +0.000 N 
ATOM      8  N   UNL     1       4.475   3.507  17.449  0.00  0.00    +0.000 NA
ATOM      9  C   UNL     1       3.720   4.348  18.218  0.00  0.00    +0.000 A 
ATOM     10  C   UNL     1       3.711   5.718  17.880  0.00  0.00    +0.000 A 
ATOM     11  H   UNL     1       4.759   7.859  15.723  0.00  0.00    +0.000 HD
ATOM     12  H   UNL     1       6.179   3.379  14.832  0.00  0.00    +0.000 HD
ATOM     13  H   UNL     1       5.687   2.146  15.946  0.00  0.00    +0.000 HD
ENDROOT
BRANCH   9  14
ATOM     14  C   UNL     1       2.943   3.740  19.318  0.00  0.00    +0.000 A 
ATOM     15  C   UNL     1       1.551   3.933  19.415  0.00  0.00    +0.000 A 
ATOM     16  C   UNL     1       0.801   3.406  20.473  0.00  0.00    +0.000 A 
ATOM     17  C   UNL     1       1.409   2.600  21.425  0.00  0.00    +0.000 A 
ATOM     18  C   UNL     1       2.770   2.328  21.324  0.00  0.00    +0.000 A 
ATOM     19  C   UNL     1       3.525   2.903  20.293  0.00  0.00    +0.000 A 
BRANCH  19  20
ATOM     20  O   UNL     1       4.872   2.647  20.270  0.00  0.00    +0.000 OA
ATOM     21  H   UNL     1       5.176   2.613  19.351  0.00  0.00    +0.000 HD
ENDBRANCH  19  20
ENDBRANCH   9  14
BRANCH   1  23
ATOM     22  N   UNL     1       1.769   7.484  20.468  0.00  0.00    +0.000 NA
ATOM     23  C   UNL     1       2.386   7.223  19.522  0.00  0.00    +0.000 C 
ENDBRANCH   1  23
TORSDOF 3
ENDMDL
