MODEL 1
REMARK VINA RESULT:      -8.0      0.000      0.000
REMARK  Name = 
REMARK  8 active torsions:
REMARK  status: ('A' for Active; 'I' for Inactive)
REMARK    1  A    between atoms: C_1  and  C_2
REMARK    2  A    between atoms: C_2  and  N_3
REMARK    3  A    between atoms: N_6  and  C_7
REMARK    4  A    between atoms: C_7  and  C_8
REMARK    5  A    between atoms: C_8  and  O_9
REMARK    6  A    between atoms: O_9  and  C_10
REMARK    7  A    between atoms: C_10  and  C_11
REMARK    8  A    between atoms: C_10  and  C_18
REMARK                            x       y       z     vdW  Elec       q    Type
REMARK                         _______ _______ _______ _____ _____    ______ ____
ROOT
ATOM      1  C   UNL     1       2.661   5.919  17.965  0.00  0.00    +0.000 C 
ENDROOT
BRANCH   1   2
ATOM      2  C   UNL     1       4.009   5.555  17.360  0.00  0.00    +0.000 A 
ATOM      3  C   UNL     1       4.210   4.293  16.772  0.00  0.00    +0.000 A 
ATOM      4  C   UNL     1       5.460   3.932  16.277  0.00  0.00    +0.000 A 
ATOM      5  C   UNL     1       6.519   4.825  16.377  0.00  0.00    +0.000 A 
ATOM      6  F   UNL     1       7.722   4.476  15.904  0.00  0.00    +0.000 F 
ATOM      7  C   UNL     1       6.351   6.071  16.968  0.00  0.00    +0.000 A 
ATOM      8  C   UNL     1       5.098   6.440  17.460  0.00  0.00    +0.000 A 
ENDBRANCH   1   2
BRANCH   1   9
ATOM      9  C   UNL     1       2.210   4.961  19.056  0.00  0.00    +0.000 A 
ATOM     10  C   UNL     1       2.669   5.125  20.373  0.00  0.00    +0.000 A 
ATOM     11  C   UNL     1       2.257   4.244  21.375  0.00  0.00    +0.000 A 
ATOM     12  C   UNL     1       1.387   3.208  21.066  0.00  0.00    +0.000 A 
ATOM     13  F   UNL     1       0.998   2.364  22.034  0.00  0.00    +0.000 F 
ATOM     14  C   UNL     1       0.913   3.030  19.774  0.00  0.00    +0.000 A 
ATOM     15  C   UNL     1       1.322   3.906  18.773  0.00  0.00    +0.000 A 
ENDBRANCH   1   9
BRANCH   1  16
ATOM     16  O   UNL     1       2.707   7.242  18.522  0.00  0.00    +0.000 OA
BRANCH  16  17
ATOM     17  C   UNL     1       1.913   8.155  17.777  0.00  0.00    +0.000 C 
BRANCH  17  18
ATOM     18  C   UNL     1       1.952   9.530  18.436  0.00  0.00    +0.000 C 
BRANCH  18  22
ATOM     19  N   UNL     1       0.705  11.461  21.556  0.00  0.00    +0.000 NA
ATOM     20  C   UNL     1       0.977  10.013  21.497  0.00  0.00    +0.000 C 
ATOM     21  C   UNL     1       0.322   9.325  20.275  0.00  0.00    +0.000 C 
ATOM     22  N   UNL     1       0.632   9.919  18.953  0.00  0.00    +0.000 NA
ATOM     23  C   UNL     1       0.527  11.395  19.009  0.00  0.00    +0.000 C 
ATOM     24  C   UNL     1       1.220  11.987  20.256  0.00  0.00    +0.000 C 
BRANCH  19  26
ATOM     25  C   UNL     1      -1.318  11.196  23.054  0.00  0.00    +0.000 C 
ATOM     26  C   UNL     1      -0.750  11.714  21.734  0.00  0.00    +0.000 C 
ENDBRANCH  19  26
ENDBRANCH  18  22
ENDBRANCH  17  18
ENDBRANCH  16  17
ENDBRANCH   1  16
TORSDOF 7
ENDMDL
MODEL 2
REMARK VINA RESULT:      -7.8      3.462      7.191
REMARK  Name = 
REMARK  8 active torsions:
REMARK  status: ('A' for Active; 'I' for Inactive)
REMARK    1  A    between atoms: C_1  and  C_2
REMARK    2  A    between atoms: C_2  and  N_3
REMARK    3  A    between atoms: N_6  and  C_7
REMARK    4  A    between atoms: C_7  and  C_8
REMARK    5  A    between atoms: C_8  and  O_9
REMARK    6  A    between atoms: O_9  and  C_10
REMARK    7  A    between atoms: C_10  and  C_11
REMARK    8  A    between atoms: C_10  and  C_18
REMARK                            x       y       z     vdW  Elec       q    Type
REMARK                         _______ _______ _______ _____ _____    ______ ____
ROOT
ATOM      1  C   UNL     1       2.951   6.365  19.765  0.00  0.00    +0.000 C 
ENDROOT
BRANCH   1   2
ATOM      2  C   UNL     1       2.151   7.626  19.468  0.00  0.00    +0.000 A 
ATOM      3  C   UNL     1       2.234   8.243  18.207  0.00  0.00    +0.000 A 
ATOM      4  C   UNL     1       1.556   9.433  17.954  0.00  0.00    +0.000 A 
ATOM      5  C   UNL     1       0.802  10.018  18.963  0.00  0.00    +0.000 A 
ATOM      6  F   UNL     1       0.153  11.164  18.720  0.00  0.00    +0.000 F 
ATOM      7  C   UNL     1       0.718   9.438  20.223  0.00  0.00    +0.000 A 
ATOM      8  C   UNL     1       1.391   8.242  20.479  0.00  0.00    +0.000 A 
ENDBRANCH   1   2
BRANCH   1   9
ATOM      9  C   UNL     1       2.194   5.084  19.456  0.00  0.00    +0.000 A 
ATOM     10  C   UNL     1       1.708   4.282  20.500  0.00  0.00    +0.000 A 
ATOM     11  C   UNL     1       1.015   3.103  20.217  0.00  0.00    +0.000 A 
ATOM     12  C   UNL     1       0.803   2.730  18.898  0.00  0.00    +0.000 A 
ATOM     13  F   UNL     1       0.138   1.594  18.633  0.00  0.00    +0.000 F 
ATOM     14  C   UNL     1       1.266   3.509  17.847  0.00  0.00    +0.000 A 
ATOM     15  C   UNL     1       1.959   4.684  18.126  0.00  0.00    +0.000 A 
ENDBRANCH   1   9
BRANCH   1  16
ATOM     16  O   UNL     1       4.169   6.360  19.004  0.00  0.00    +0.000 OA
BRANCH  16  17
ATOM     17  C   UNL     1       5.049   5.327  19.428  0.00  0.00    +0.000 C 
BRANCH  17  18
ATOM     18  C   UNL     1       6.347   5.395  18.629  0.00  0.00    +0.000 C 
BRANCH  18  22
ATOM     19  N   UNL     1       5.949   5.027  14.791  0.00  0.00    +0.000 NA
ATOM     20  C   UNL     1       4.857   4.935  15.779  0.00  0.00    +0.000 C 
ATOM     21  C   UNL     1       5.191   3.993  16.961  0.00  0.00    +0.000 C 
ATOM     22  N   UNL     1       6.456   4.278  17.679  0.00  0.00    +0.000 NA
ATOM     23  C   UNL     1       7.553   4.538  16.718  0.00  0.00    +0.000 C 
ATOM     24  C   UNL     1       7.126   5.496  15.584  0.00  0.00    +0.000 C 
BRANCH  19  26
ATOM     25  C   UNL     1       6.505   3.787  12.656  0.00  0.00    +0.000 C 
ATOM     26  C   UNL     1       6.188   3.707  14.148  0.00  0.00    +0.000 C 
ENDBRANCH  19  26
ENDBRANCH  18  22
ENDBRANCH  17  18
ENDBRANCH  16  17
ENDBRANCH   1  16
TORSDOF 7
ENDMDL
MODEL 3
REMARK VINA RESULT:      -7.7      0.241      1.356
REMARK  Name = 
REMARK  8 active torsions:
REMARK  status: ('A' for Active; 'I' for Inactive)
REMARK    1  A    between atoms: C_1  and  C_2
REMARK    2  A    between atoms: C_2  and  N_3
REMARK    3  A    between atoms: N_6  and  C_7
REMARK    4  A    between atoms: C_7  and  C_8
REMARK    5  A    between atoms: C_8  and  O_9
REMARK    6  A    between atoms: O_9  and  C_10
REMARK    7  A    between atoms: C_10  and  C_11
REMARK    8  A    between atoms: C_10  and  C_18
REMARK                            x       y       z     vdW  Elec       q    Type
REMARK                         _______ _______ _______ _____ _____    ______ ____
ROOT
ATOM      1  C   UNL     1       2.698   5.874  17.999  0.00  0.00    +0.000 C 
ENDROOT
BRANCH   1   2
ATOM      2  C   UNL     1       4.054   5.497  17.422  0.00  0.00    +0.000 A 
ATOM      3  C   UNL     1       5.184   6.295  17.674  0.00  0.00    +0.000 A 
ATOM      4  C   UNL     1       6.413   5.990  17.094  0.00  0.00    +0.000 A 
ATOM      5  C   UNL     1       6.516   4.893  16.250  0.00  0.00    +0.000 A 
ATOM      6  F   UNL     1       7.697   4.602  15.689  0.00  0.00    +0.000 F 
ATOM      7  C   UNL     1       5.411   4.097  15.970  0.00  0.00    +0.000 A 
ATOM      8  C   UNL     1       4.179   4.396  16.554  0.00  0.00    +0.000 A 
ENDBRANCH   1   2
BRANCH   1   9
ATOM      9  C   UNL     1       2.227   4.936  19.098  0.00  0.00    +0.000 A 
ATOM     10  C   UNL     1       1.310   3.913  18.809  0.00  0.00    +0.000 A 
ATOM     11  C   UNL     1       0.875   3.052  19.819  0.00  0.00    +0.000 A 
ATOM     12  C   UNL     1       1.358   3.208  21.110  0.00  0.00    +0.000 A 
ATOM     13  F   UNL     1       0.933   2.379  22.077  0.00  0.00    +0.000 F 
ATOM     14  C   UNL     1       2.271   4.206  21.421  0.00  0.00    +0.000 A 
ATOM     15  C   UNL     1       2.705   5.067  20.416  0.00  0.00    +0.000 A 
ENDBRANCH   1   9
BRANCH   1  16
ATOM     16  O   UNL     1       2.739   7.206  18.535  0.00  0.00    +0.000 OA
BRANCH  16  17
ATOM     17  C   UNL     1       2.070   8.133  17.691  0.00  0.00    +0.000 C 
BRANCH  17  18
ATOM     18  C   UNL     1       1.968   9.486  18.389  0.00  0.00    +0.000 C 
BRANCH  18  22
ATOM     19  N   UNL     1       0.534  11.459  21.401  0.00  0.00    +0.000 NA
ATOM     20  C   UNL     1       1.018  10.066  21.441  0.00  0.00    +0.000 C 
ATOM     21  C   UNL     1       0.439   9.193  20.302  0.00  0.00    +0.000 C 
ATOM     22  N   UNL     1       0.620   9.717  18.927  0.00  0.00    +0.000 NA
ATOM     23  C   UNL     1       0.297  11.162  18.875  0.00  0.00    +0.000 C 
ATOM     24  C   UNL     1       0.928  11.948  20.046  0.00  0.00    +0.000 C 
BRANCH  19  26
ATOM     25  C   UNL     1      -1.348  11.957  23.018  0.00  0.00    +0.000 C 
ATOM     26  C   UNL     1      -0.937  11.509  21.616  0.00  0.00    +0.000 C 
ENDBRANCH  19  26
ENDBRANCH  18  22
ENDBRANCH  17  18
ENDBRANCH  16  17
ENDBRANCH   1  16
TORSDOF 7
ENDMDL
MODEL 4
REMARK VINA RESULT:      -7.6      0.961      1.451
REMARK  Name = 
REMARK  8 active torsions:
REMARK  status: ('A' for Active; 'I' for Inactive)
REMARK    1  A    between atoms: C_1  and  C_2
REMARK    2  A    between atoms: C_2  and  N_3
REMARK    3  A    between atoms: N_6  and  C_7
REMARK    4  A    between atoms: C_7  and  C_8
REMARK    5  A    between atoms: C_8  and  O_9
REMARK    6  A    between atoms: O_9  and  C_10
REMARK    7  A    between atoms: C_10  and  C_11
REMARK    8  A    between atoms: C_10  and  C_18
REMARK                            x       y       z     vdW  Elec       q    Type
REMARK                         _______ _______ _______ _____ _____    ______ ____
ROOT
ATOM      1  C   UNL     1       2.711   6.082  18.124  0.00  0.00    +0.000 C 
ENDROOT
BRANCH   1   2
ATOM      2  C   UNL     1       3.980   5.667  17.394  0.00  0.00    +0.000 A 
ATOM      3  C   UNL     1       4.138   4.349  16.930  0.00  0.00    +0.000 A 
ATOM      4  C   UNL     1       5.324   3.948  16.321  0.00  0.00    +0.000 A 
ATOM      5  C   UNL     1       6.363   4.859  16.182  0.00  0.00    +0.000 A 
ATOM      6  F   UNL     1       7.505   4.472  15.598  0.00  0.00    +0.000 F 
ATOM      7  C   UNL     1       6.240   6.163  16.647  0.00  0.00    +0.000 A 
ATOM      8  C   UNL     1       5.050   6.570  17.253  0.00  0.00    +0.000 A 
ENDBRANCH   1   2
BRANCH   1   9
ATOM      9  C   UNL     1       2.251   5.068  19.158  0.00  0.00    +0.000 A 
ATOM     10  C   UNL     1       1.297   4.095  18.818  0.00  0.00    +0.000 A 
ATOM     11  C   UNL     1       0.872   3.165  19.769  0.00  0.00    +0.000 A 
ATOM     12  C   UNL     1       1.400   3.202  21.051  0.00  0.00    +0.000 A 
ATOM     13  F   UNL     1       0.985   2.306  21.960  0.00  0.00    +0.000 F 
ATOM     14  C   UNL     1       2.350   4.147  21.410  0.00  0.00    +0.000 A 
ATOM     15  C   UNL     1       2.775   5.077  20.465  0.00  0.00    +0.000 A 
ENDBRANCH   1   9
BRANCH   1  16
ATOM     16  O   UNL     1       2.910   7.340  18.788  0.00  0.00    +0.000 OA
BRANCH  16  17
ATOM     17  C   UNL     1       1.694   8.065  18.915  0.00  0.00    +0.000 C 
BRANCH  17  18
ATOM     18  C   UNL     1       1.498   8.495  20.365  0.00  0.00    +0.000 C 
BRANCH  18  22
ATOM     19  N   UNL     1      -0.113  10.974  22.871  0.00  0.00    +0.000 NA
ATOM     20  C   UNL     1       0.114   9.537  23.113  0.00  0.00    +0.000 C 
ATOM     21  C   UNL     1      -0.384   8.644  21.951  0.00  0.00    +0.000 C 
ATOM     22  N   UNL     1       0.132   8.984  20.604  0.00  0.00    +0.000 NA
ATOM     23  C   UNL     1       0.072  10.446  20.379  0.00  0.00    +0.000 C 
ATOM     24  C   UNL     1       0.601  11.250  21.588  0.00  0.00    +0.000 C 
BRANCH  19  26
ATOM     25  C   UNL     1      -1.909  12.757  22.828  0.00  0.00    +0.000 C 
ATOM     26  C   UNL     1      -1.568  11.268  22.785  0.00  0.00    +0.000 C 
ENDBRANCH  19  26
ENDBRANCH  18  22
ENDBRANCH  17  18
ENDBRANCH  16  17
ENDBRANCH   1  16
TORSDOF 7
ENDMDL
MODEL 5
REMARK VINA RESULT:      -7.6      0.818      1.417
REMARK  Name = 
REMARK  8 active torsions:
REMARK  status: ('A' for Active; 'I' for Inactive)
REMARK    1  A    between atoms: C_1  and  C_2
REMARK    2  A    between atoms: C_2  and  N_3
REMARK    3  A    between atoms: N_6  and  C_7
REMARK    4  A    between atoms: C_7  and  C_8
REMARK    5  A    between atoms: C_8  and  O_9
REMARK    6  A    between atoms: O_9  and  C_10
REMARK    7  A    between atoms: C_10  and  C_11
REMARK    8  A    between atoms: C_10  and  C_18
REMARK                            x       y       z     vdW  Elec       q    Type
REMARK                         _______ _______ _______ _____ _____    ______ ____
ROOT
ATOM      1  C   UNL     1       2.751   5.933  17.887  0.00  0.00    +0.000 C 
ENDROOT
BRANCH   1   2
ATOM      2  C   UNL     1       4.097   5.535  17.297  0.00  0.00    +0.000 A 
ATOM      3  C   UNL     1       5.156   6.459  17.251  0.00  0.00    +0.000 A 
ATOM      4  C   UNL     1       6.367   6.119  16.652  0.00  0.00    +0.000 A 
ATOM      5  C   UNL     1       6.521   4.860  16.087  0.00  0.00    +0.000 A 
ATOM      6  F   UNL     1       7.684   4.536  15.507  0.00  0.00    +0.000 F 
ATOM      7  C   UNL     1       5.484   3.936  16.104  0.00  0.00    +0.000 A 
ATOM      8  C   UNL     1       4.271   4.270  16.708  0.00  0.00    +0.000 A 
ENDBRANCH   1   2
BRANCH   1   9
ATOM      9  C   UNL     1       2.271   4.995  18.982  0.00  0.00    +0.000 A 
ATOM     10  C   UNL     1       2.716   5.163  20.303  0.00  0.00    +0.000 A 
ATOM     11  C   UNL     1       2.276   4.300  21.308  0.00  0.00    +0.000 A 
ATOM     12  C   UNL     1       1.392   3.276  20.998  0.00  0.00    +0.000 A 
ATOM     13  F   UNL     1       0.976   2.449  21.969  0.00  0.00    +0.000 F 
ATOM     14  C   UNL     1       0.930   3.094  19.703  0.00  0.00    +0.000 A 
ATOM     15  C   UNL     1       1.368   3.952  18.698  0.00  0.00    +0.000 A 
ENDBRANCH   1   9
BRANCH   1  16
ATOM     16  O   UNL     1       2.822   7.259  18.435  0.00  0.00    +0.000 OA
BRANCH  16  17
ATOM     17  C   UNL     1       1.955   8.156  17.754  0.00  0.00    +0.000 C 
BRANCH  17  18
ATOM     18  C   UNL     1       1.847   9.462  18.535  0.00  0.00    +0.000 C 
BRANCH  18  22
ATOM     19  N   UNL     1      -0.216  12.327  20.134  0.00  0.00    +0.000 NA
ATOM     20  C   UNL     1       0.898  11.608  20.781  0.00  0.00    +0.000 C 
ATOM     21  C   UNL     1       0.770  10.070  20.669  0.00  0.00    +0.000 C 
ATOM     22  N   UNL     1       0.592   9.533  19.299  0.00  0.00    +0.000 NA
ATOM     23  C   UNL     1      -0.408  10.330  18.553  0.00  0.00    +0.000 C 
ATOM     24  C   UNL     1      -0.190  11.851  18.718  0.00  0.00    +0.000 C 
BRANCH  19  26
ATOM     25  C   UNL     1      -2.701  12.787  20.259  0.00  0.00    +0.000 C 
ATOM     26  C   UNL     1      -1.503  12.019  20.813  0.00  0.00    +0.000 C 
ENDBRANCH  19  26
ENDBRANCH  18  22
ENDBRANCH  17  18
ENDBRANCH  16  17
ENDBRANCH   1  16
TORSDOF 7
ENDMDL
MODEL 6
REMARK VINA RESULT:      -7.5      0.994      1.319
REMARK  Name = 
REMARK  8 active torsions:
REMARK  status: ('A' for Active; 'I' for Inactive)
REMARK    1  A    between atoms: C_1  and  C_2
REMARK    2  A    between atoms: C_2  and  N_3
REMARK    3  A    between atoms: N_6  and  C_7
REMARK    4  A    between atoms: C_7  and  C_8
REMARK    5  A    between atoms: C_8  and  O_9
REMARK    6  A    between atoms: O_9  and  C_10
REMARK    7  A    between atoms: C_10  and  C_11
REMARK    8  A    between atoms: C_10  and  C_18
REMARK                            x       y       z     vdW  Elec       q    Type
REMARK                         _______ _______ _______ _____ _____    ______ ____
ROOT
ATOM      1  C   UNL     1       2.758   6.046  17.985  0.00  0.00    +0.000 C 
ENDROOT
BRANCH   1   2
ATOM      2  C   UNL     1       4.051   5.609  17.310  0.00  0.00    +0.000 A 
ATOM      3  C   UNL     1       4.215   4.281  16.877  0.00  0.00    +0.000 A 
ATOM      4  C   UNL     1       5.420   3.861  16.319  0.00  0.00    +0.000 A 
ATOM      5  C   UNL     1       6.470   4.762  16.202  0.00  0.00    +0.000 A 
ATOM      6  F   UNL     1       7.630   4.357  15.669  0.00  0.00    +0.000 F 
ATOM      7  C   UNL     1       6.339   6.075  16.638  0.00  0.00    +0.000 A 
ATOM      8  C   UNL     1       5.131   6.502  17.193  0.00  0.00    +0.000 A 
ENDBRANCH   1   2
BRANCH   1   9
ATOM      9  C   UNL     1       2.264   5.065  19.035  0.00  0.00    +0.000 A 
ATOM     10  C   UNL     1       2.706   5.170  20.364  0.00  0.00    +0.000 A 
ATOM     11  C   UNL     1       2.254   4.268  21.329  0.00  0.00    +0.000 A 
ATOM     12  C   UNL     1       1.360   3.269  20.971  0.00  0.00    +0.000 A 
ATOM     13  F   UNL     1       0.932   2.403  21.903  0.00  0.00    +0.000 F 
ATOM     14  C   UNL     1       0.901   3.149  19.666  0.00  0.00    +0.000 A 
ATOM     15  C   UNL     1       1.352   4.046  18.702  0.00  0.00    +0.000 A 
ENDBRANCH   1   9
BRANCH   1  16
ATOM     16  O   UNL     1       2.936   7.325  18.616  0.00  0.00    +0.000 OA
BRANCH  16  17
ATOM     17  C   UNL     1       2.104   8.318  18.032  0.00  0.00    +0.000 C 
BRANCH  17  18
ATOM     18  C   UNL     1       1.371   9.086  19.128  0.00  0.00    +0.000 C 
BRANCH  18  22
ATOM     19  N   UNL     1      -0.128  12.355  20.571  0.00  0.00    +0.000 NA
ATOM     20  C   UNL     1      -0.782  11.033  20.586  0.00  0.00    +0.000 C 
ATOM     21  C   UNL     1      -0.756  10.332  19.207  0.00  0.00    +0.000 C 
ATOM     22  N   UNL     1       0.578  10.193  18.575  0.00  0.00    +0.000 NA
ATOM     23  C   UNL     1       1.337  11.460  18.681  0.00  0.00    +0.000 C 
ATOM     24  C   UNL     1       1.260  12.076  20.095  0.00  0.00    +0.000 C 
BRANCH  19  26
ATOM     25  C   UNL     1      -0.273  14.701  19.633  0.00  0.00    +0.000 C 
ATOM     26  C   UNL     1      -0.858  13.291  19.674  0.00  0.00    +0.000 C 
ENDBRANCH  19  26
ENDBRANCH  18  22
ENDBRANCH  17  18
ENDBRANCH  16  17
ENDBRANCH   1  16
TORSDOF 7
ENDMDL
MODEL 7
REMARK VINA RESULT:      -7.5      0.948      1.729
REMARK  Name = 
REMARK  8 active torsions:
REMARK  status: ('A' for Active; 'I' for Inactive)
REMARK    1  A    between atoms: C_1  and  C_2
REMARK    2  A    between atoms: C_2  and  N_3
REMARK    3  A    between atoms: N_6  and  C_7
REMARK    4  A    between atoms: C_7  and  C_8
REMARK    5  A    between atoms: C_8  and  O_9
REMARK    6  A    between atoms: O_9  and  C_10
REMARK    7  A    between atoms: C_10  and  C_11
REMARK    8  A    between atoms: C_10  and  C_18
REMARK                            x       y       z     vdW  Elec       q    Type
REMARK                         _______ _______ _______ _____ _____    ______ ____
ROOT
ATOM      1  C   UNL     1       2.702   5.995  17.997  0.00  0.00    +0.000 C 
ENDROOT
BRANCH   1   2
ATOM      2  C   UNL     1       3.975   5.553  17.291  0.00  0.00    +0.000 A 
ATOM      3  C   UNL     1       4.932   6.501  16.885  0.00  0.00    +0.000 A 
ATOM      4  C   UNL     1       6.067   6.106  16.180  0.00  0.00    +0.000 A 
ATOM      5  C   UNL     1       6.245   4.765  15.867  0.00  0.00    +0.000 A 
ATOM      6  F   UNL     1       7.334   4.387  15.186  0.00  0.00    +0.000 F 
ATOM      7  C   UNL     1       5.306   3.811  16.240  0.00  0.00    +0.000 A 
ATOM      8  C   UNL     1       4.170   4.201  16.953  0.00  0.00    +0.000 A 
ENDBRANCH   1   2
BRANCH   1   9
ATOM      9  C   UNL     1       2.229   5.017  19.060  0.00  0.00    +0.000 A 
ATOM     10  C   UNL     1       1.335   3.987  18.725  0.00  0.00    +0.000 A 
ATOM     11  C   UNL     1       0.899   3.089  19.701  0.00  0.00    +0.000 A 
ATOM     12  C   UNL     1       1.357   3.215  21.005  0.00  0.00    +0.000 A 
ATOM     13  F   UNL     1       0.932   2.349  21.938  0.00  0.00    +0.000 F 
ATOM     14  C   UNL     1       2.248   4.218  21.360  0.00  0.00    +0.000 A 
ATOM     15  C   UNL     1       2.683   5.116  20.389  0.00  0.00    +0.000 A 
ENDBRANCH   1   9
BRANCH   1  16
ATOM     16  O   UNL     1       2.899   7.273  18.622  0.00  0.00    +0.000 OA
BRANCH  16  17
ATOM     17  C   UNL     1       2.025   8.259  18.090  0.00  0.00    +0.000 C 
BRANCH  17  18
ATOM     18  C   UNL     1       1.372   9.038  19.227  0.00  0.00    +0.000 C 
BRANCH  18  22
ATOM     19  N   UNL     1      -0.078  12.286  20.767  0.00  0.00    +0.000 NA
ATOM     20  C   UNL     1      -0.722  10.959  20.801  0.00  0.00    +0.000 C 
ATOM     21  C   UNL     1      -0.756  10.269  19.416  0.00  0.00    +0.000 C 
ATOM     22  N   UNL     1       0.547  10.145  18.721  0.00  0.00    +0.000 NA
ATOM     23  C   UNL     1       1.303  11.416  18.803  0.00  0.00    +0.000 C 
ATOM     24  C   UNL     1       1.288  12.019  20.225  0.00  0.00    +0.000 C 
BRANCH  19  26
ATOM     25  C   UNL     1      -2.236  13.573  20.465  0.00  0.00    +0.000 C 
ATOM     26  C   UNL     1      -0.855  13.224  19.914  0.00  0.00    +0.000 C 
ENDBRANCH  19  26
ENDBRANCH  18  22
ENDBRANCH  17  18
ENDBRANCH  16  17
ENDBRANCH   1  16
TORSDOF 7
ENDMDL
MODEL 8
REMARK VINA RESULT:      -7.5      0.680      1.232
REMARK  Name = 
REMARK  8 active torsions:
REMARK  status: ('A' for Active; 'I' for Inactive)
REMARK    1  A    between atoms: C_1  and  C_2
REMARK    2  A    between atoms: C_2  and  N_3
REMARK    3  A    between atoms: N_6  and  C_7
REMARK    4  A    between atoms: C_7  and  C_8
REMARK    5  A    between atoms: C_8  and  O_9
REMARK    6  A    between atoms: O_9  and  C_10
REMARK    7  A    between atoms: C_10  and  C_11
REMARK    8  A    between atoms: C_10  and  C_18
REMARK                            x       y       z     vdW  Elec       q    Type
REMARK                         _______ _______ _______ _____ _____    ______ ____
ROOT
ATOM      1  C   UNL     1       2.739   6.074  17.925  0.00  0.00    +0.000 C 
ENDROOT
BRANCH   1   2
ATOM      2  C   UNL     1       4.071   5.667  17.312  0.00  0.00    +0.000 A 
ATOM      3  C   UNL     1       4.237   4.389  16.750  0.00  0.00    +0.000 A 
ATOM      4  C   UNL     1       5.473   3.989  16.248  0.00  0.00    +0.000 A 
ATOM      5  C   UNL     1       6.552   4.861  16.316  0.00  0.00    +0.000 A 
ATOM      6  F   UNL     1       7.742   4.475  15.836  0.00  0.00    +0.000 F 
ATOM      7  C   UNL     1       6.419   6.123  16.882  0.00  0.00    +0.000 A 
ATOM      8  C   UNL     1       5.180   6.530  17.381  0.00  0.00    +0.000 A 
ENDBRANCH   1   2
BRANCH   1   9
ATOM      9  C   UNL     1       2.245   5.109  18.991  0.00  0.00    +0.000 A 
ATOM     10  C   UNL     1       2.652   5.262  20.326  0.00  0.00    +0.000 A 
ATOM     11  C   UNL     1       2.201   4.375  21.305  0.00  0.00    +0.000 A 
ATOM     12  C   UNL     1       1.342   3.343  20.955  0.00  0.00    +0.000 A 
ATOM     13  F   UNL     1       0.914   2.492  21.900  0.00  0.00    +0.000 F 
ATOM     14  C   UNL     1       0.917   3.175  19.644  0.00  0.00    +0.000 A 
ATOM     15  C   UNL     1       1.367   4.057  18.665  0.00  0.00    +0.000 A 
ENDBRANCH   1   9
BRANCH   1  16
ATOM     16  O   UNL     1       2.842   7.379  18.517  0.00  0.00    +0.000 OA
BRANCH  16  17
ATOM     17  C   UNL     1       2.455   8.400  17.608  0.00  0.00    +0.000 C 
BRANCH  17  18
ATOM     18  C   UNL     1       1.181   9.077  18.104  0.00  0.00    +0.000 C 
BRANCH  18  22
ATOM     19  N   UNL     1      -0.988  11.400  20.322  0.00  0.00    +0.000 NA
ATOM     20  C   UNL     1      -0.369  11.774  19.036  0.00  0.00    +0.000 C 
ATOM     21  C   UNL     1       1.128  11.391  18.952  0.00  0.00    +0.000 C 
ATOM     22  N   UNL     1       1.451   9.973  19.237  0.00  0.00    +0.000 NA
ATOM     23  C   UNL     1       0.720   9.504  20.437  0.00  0.00    +0.000 C 
ATOM     24  C   UNL     1      -0.766   9.926  20.423  0.00  0.00    +0.000 C 
BRANCH  19  26
ATOM     25  C   UNL     1      -1.045  11.943  22.793  0.00  0.00    +0.000 C 
ATOM     26  C   UNL     1      -0.359  12.146  21.444  0.00  0.00    +0.000 C 
ENDBRANCH  19  26
ENDBRANCH  18  22
ENDBRANCH  17  18
ENDBRANCH  16  17
ENDBRANCH   1  16
TORSDOF 7
ENDMDL
MODEL 9
REMARK VINA RESULT:      -7.5      0.794      1.377
REMARK  Name = 
REMARK  8 active torsions:
REMARK  status: ('A' for Active; 'I' for Inactive)
REMARK    1  A    between atoms: C_1  and  C_2
REMARK    2  A    between atoms: C_2  and  N_3
REMARK    3  A    between atoms: N_6  and  C_7
REMARK    4  A    between atoms: C_7  and  C_8
REMARK    5  A    between atoms: C_8  and  O_9
REMARK    6  A    between atoms: O_9  and  C_10
REMARK    7  A    between atoms: C_10  and  C_11
REMARK    8  A    between atoms: C_10  and  C_18
REMARK                            x       y       z     vdW  Elec       q    Type
REMARK                         _______ _______ _______ _____ _____    ______ ____
ROOT
ATOM      1  C   UNL     1       2.679   5.941  17.962  0.00  0.00    +0.000 C 
ENDROOT
BRANCH   1   2
ATOM      2  C   UNL     1       4.007   5.561  17.321  0.00  0.00    +0.000 A 
ATOM      3  C   UNL     1       4.203   4.270  16.799  0.00  0.00    +0.000 A 
ATOM      4  C   UNL     1       5.438   3.899  16.271  0.00  0.00    +0.000 A 
ATOM      5  C   UNL     1       6.484   4.811  16.273  0.00  0.00    +0.000 A 
ATOM      6  F   UNL     1       7.672   4.452  15.769  0.00  0.00    +0.000 F 
ATOM      7  C   UNL     1       6.321   6.087  16.799  0.00  0.00    +0.000 A 
ATOM      8  C   UNL     1       5.084   6.466  17.323  0.00  0.00    +0.000 A 
ENDBRANCH   1   2
BRANCH   1   9
ATOM      9  C   UNL     1       2.252   4.994  19.071  0.00  0.00    +0.000 A 
ATOM     10  C   UNL     1       1.349   3.953  18.803  0.00  0.00    +0.000 A 
ATOM     11  C   UNL     1       0.954   3.085  19.822  0.00  0.00    +0.000 A 
ATOM     12  C   UNL     1       1.463   3.250  21.103  0.00  0.00    +0.000 A 
ATOM     13  F   UNL     1       1.077   2.412  22.078  0.00  0.00    +0.000 F 
ATOM     14  C   UNL     1       2.364   4.265  21.392  0.00  0.00    +0.000 A 
ATOM     15  C   UNL     1       2.758   5.133  20.378  0.00  0.00    +0.000 A 
ENDBRANCH   1   9
BRANCH   1  16
ATOM     16  O   UNL     1       2.754   7.266  18.509  0.00  0.00    +0.000 OA
BRANCH  16  17
ATOM     17  C   UNL     1       1.891   8.166  17.826  0.00  0.00    +0.000 C 
BRANCH  17  18
ATOM     18  C   UNL     1       1.773   9.466  18.615  0.00  0.00    +0.000 C 
BRANCH  18  22
ATOM     19  N   UNL     1      -0.197  12.346  20.303  0.00  0.00    +0.000 NA
ATOM     20  C   UNL     1       0.811  11.494  20.963  0.00  0.00    +0.000 C 
ATOM     21  C   UNL     1       0.583   9.984  20.712  0.00  0.00    +0.000 C 
ATOM     22  N   UNL     1       0.472   9.572  19.292  0.00  0.00    +0.000 NA
ATOM     23  C   UNL     1      -0.410  10.502  18.549  0.00  0.00    +0.000 C 
ATOM     24  C   UNL     1      -0.098  11.983  18.857  0.00  0.00    +0.000 C 
BRANCH  19  26
ATOM     25  C   UNL     1      -2.594  13.138  20.492  0.00  0.00    +0.000 C 
ATOM     26  C   UNL     1      -1.551  12.084  20.861  0.00  0.00    +0.000 C 
ENDBRANCH  19  26
ENDBRANCH  18  22
ENDBRANCH  17  18
ENDBRANCH  16  17
ENDBRANCH   1  16
TORSDOF 7
ENDMDL
