MODEL 1
REMARK VINA RESULT:      -7.3      0.000      0.000
REMARK  Name = 
REMARK  7 active torsions:
REMARK  status: ('A' for Active; 'I' for Inactive)
REMARK    1  A    between atoms: C_1  and  O_2
REMARK    2  A    between atoms: O_2  and  C_3
REMARK    3  A    between atoms: C_5  and  N_6
REMARK    4  A    between atoms: C_7  and  C_8
REMARK    5  A    between atoms: C_9  and  O_10
REMARK    6  A    between atoms: C_20  and  O_21
REMARK    7  A    between atoms: O_21  and  C_22
REMARK                            x       y       z     vdW  Elec       q    Type
REMARK                         _______ _______ _______ _____ _____    ______ ____
ROOT
ATOM      1  N   UNL     1       3.262   7.631  17.831  0.00  0.00    +0.000 NA
ATOM      2  C   UNL     1       2.400   7.596  18.798  0.00  0.00    +0.000 C 
ENDROOT
BRANCH   2   3
ATOM      3  C   UNL     1       1.637   8.769  19.240  0.00  0.00    +0.000 C 
ATOM      4  C   UNL     1       1.388   9.868  18.520  0.00  0.00    +0.000 C 
ATOM      5  C   UNL     1       0.485  10.754  19.237  0.00  0.00    +0.000 A 
ATOM      6  C   UNL     1      -0.128  11.936  18.865  0.00  0.00    +0.000 A 
ATOM      7  C   UNL     1      -0.925  12.594  19.809  0.00  0.00    +0.000 A 
ATOM      8  C   UNL     1      -1.090  12.070  21.106  0.00  0.00    +0.000 A 
ATOM      9  C   UNL     1      -0.502  10.854  21.461  0.00  0.00    +0.000 A 
ATOM     10  C   UNL     1       0.259  10.216  20.495  0.00  0.00    +0.000 A 
ATOM     11  C   UNL     1       0.933   8.916  20.532  0.00  0.00    +0.000 C 
ATOM     12  O   UNL     1       0.914   8.115  21.446  0.00  0.00    +0.000 OA
BRANCH   4  13
ATOM     13  O   UNL     1       1.873  10.212  17.293  0.00  0.00    +0.000 OA
ATOM     14  H   UNL     1       1.125  10.618  16.801  0.00  0.00    +0.000 HD
ENDBRANCH   4  13
ENDBRANCH   2   3
BRANCH   1  17
ATOM     15  C   UNL     1       5.648   5.394  16.060  0.00  0.00    +0.000 A 
ATOM     16  C   UNL     1       4.917   6.521  16.463  0.00  0.00    +0.000 A 
ATOM     17  C   UNL     1       3.951   6.444  17.471  0.00  0.00    +0.000 A 
ATOM     18  C   UNL     1       3.764   5.209  18.102  0.00  0.00    +0.000 A 
ATOM     19  C   UNL     1       4.473   4.070  17.703  0.00  0.00    +0.000 A 
ATOM     20  C   UNL     1       5.408   4.163  16.672  0.00  0.00    +0.000 A 
BRANCH  15  22
ATOM     21  C   UNL     1       6.718   4.601  14.081  0.00  0.00    +0.000 C 
ATOM     22  O   UNL     1       6.570   5.616  15.070  0.00  0.00    +0.000 OA
ENDBRANCH  15  22
BRANCH  19  23
ATOM     23  O   UNL     1       4.163   2.932  18.399  0.00  0.00    +0.000 OA
ATOM     24  C   UNL     1       3.087   2.143  17.905  0.00  0.00    +0.000 C 
ENDBRANCH  19  23
ENDBRANCH   1  17
TORSDOF 5
ENDMDL
MODEL 2
REMARK VINA RESULT:      -7.2      1.181      2.603
REMARK  Name = 
REMARK  7 active torsions:
REMARK  status: ('A' for Active; 'I' for Inactive)
REMARK    1  A    between atoms: C_1  and  O_2
REMARK    2  A    between atoms: O_2  and  C_3
REMARK    3  A    between atoms: C_5  and  N_6
REMARK    4  A    between atoms: C_7  and  C_8
REMARK    5  A    between atoms: C_9  and  O_10
REMARK    6  A    between atoms: C_20  and  O_21
REMARK    7  A    between atoms: O_21  and  C_22
REMARK                            x       y       z     vdW  Elec       q    Type
REMARK                         _______ _______ _______ _____ _____    ______ ____
ROOT
ATOM      1  N   UNL     1       3.084   7.318  18.089  0.00  0.00    +0.000 NA
ATOM      2  C   UNL     1       2.162   7.453  18.989  0.00  0.00    +0.000 C 
ENDROOT
BRANCH   2   3
ATOM      3  C   UNL     1       1.607   8.753  19.385  0.00  0.00    +0.000 C 
ATOM      4  C   UNL     1       1.458   9.823  18.597  0.00  0.00    +0.000 C 
ATOM      5  C   UNL     1       0.747  10.879  19.300  0.00  0.00    +0.000 A 
ATOM      6  C   UNL     1       0.277  12.108  18.875  0.00  0.00    +0.000 A 
ATOM      7  C   UNL     1      -0.344  12.939  19.815  0.00  0.00    +0.000 A 
ATOM      8  C   UNL     1      -0.480  12.537  21.158  0.00  0.00    +0.000 A 
ATOM      9  C   UNL     1      -0.041  11.277  21.570  0.00  0.00    +0.000 A 
ATOM     10  C   UNL     1       0.546  10.469  20.610  0.00  0.00    +0.000 A 
ATOM     11  C   UNL     1       1.033   9.090  20.706  0.00  0.00    +0.000 C 
ATOM     12  O   UNL     1       0.974   8.367  21.681  0.00  0.00    +0.000 OA
BRANCH   4  13
ATOM     13  O   UNL     1       1.889  10.006  17.317  0.00  0.00    +0.000 OA
ATOM     14  H   UNL     1       2.025   9.110  16.937  0.00  0.00    +0.000 HD
ENDBRANCH   4  13
ENDBRANCH   2   3
BRANCH   1  17
ATOM     15  C   UNL     1       3.033   3.655  17.449  0.00  0.00    +0.000 A 
ATOM     16  C   UNL     1       2.642   4.964  17.766  0.00  0.00    +0.000 A 
ATOM     17  C   UNL     1       3.558   6.020  17.769  0.00  0.00    +0.000 A 
ATOM     18  C   UNL     1       4.879   5.738  17.399  0.00  0.00    +0.000 A 
ATOM     19  C   UNL     1       5.290   4.436  17.094  0.00  0.00    +0.000 A 
ATOM     20  C   UNL     1       4.366   3.393  17.131  0.00  0.00    +0.000 A 
BRANCH  15  22
ATOM     21  C   UNL     1       1.267   2.620  18.672  0.00  0.00    +0.000 C 
ATOM     22  O   UNL     1       2.030   2.721  17.474  0.00  0.00    +0.000 OA
ENDBRANCH  15  22
BRANCH  19  23
ATOM     23  O   UNL     1       6.617   4.318  16.774  0.00  0.00    +0.000 OA
ATOM     24  C   UNL     1       7.559   4.720  17.761  0.00  0.00    +0.000 C 
ENDBRANCH  19  23
ENDBRANCH   1  17
TORSDOF 5
ENDMDL
MODEL 3
REMARK VINA RESULT:      -7.1      1.476      1.607
REMARK  Name = 
REMARK  7 active torsions:
REMARK  status: ('A' for Active; 'I' for Inactive)
REMARK    1  A    between atoms: C_1  and  O_2
REMARK    2  A    between atoms: O_2  and  C_3
REMARK    3  A    between atoms: C_5  and  N_6
REMARK    4  A    between atoms: C_7  and  C_8
REMARK    5  A    between atoms: C_9  and  O_10
REMARK    6  A    between atoms: C_20  and  O_21
REMARK    7  A    between atoms: O_21  and  C_22
REMARK                            x       y       z     vdW  Elec       q    Type
REMARK                         _______ _______ _______ _____ _____    ______ ____
ROOT
ATOM      1  N   UNL     1       2.760   7.287  18.371  0.00  0.00    +0.000 NA
ATOM      2  C   UNL     1       2.005   7.589  19.380  0.00  0.00    +0.000 C 
ENDROOT
BRANCH   2   3
ATOM      3  C   UNL     1       1.483   8.940  19.620  0.00  0.00    +0.000 C 
ATOM      4  C   UNL     1       1.366   9.915  18.712  0.00  0.00    +0.000 C 
ATOM      5  C   UNL     1       0.680  11.063  19.284  0.00  0.00    +0.000 A 
ATOM      6  C   UNL     1       0.245  12.247  18.717  0.00  0.00    +0.000 A 
ATOM      7  C   UNL     1      -0.359  13.197  19.550  0.00  0.00    +0.000 A 
ATOM      8  C   UNL     1      -0.511  12.956  20.929  0.00  0.00    +0.000 A 
ATOM      9  C   UNL     1      -0.107  11.740  21.486  0.00  0.00    +0.000 A 
ATOM     10  C   UNL     1       0.462  10.812  20.630  0.00  0.00    +0.000 A 
ATOM     11  C   UNL     1       0.912   9.442  20.888  0.00  0.00    +0.000 C 
ATOM     12  O   UNL     1       0.829   8.837  21.939  0.00  0.00    +0.000 OA
BRANCH   4  13
ATOM     13  O   UNL     1       1.808   9.939  17.423  0.00  0.00    +0.000 OA
ATOM     14  H   UNL     1       2.789   9.896  17.462  0.00  0.00    +0.000 HD
ENDBRANCH   4  13
ENDBRANCH   2   3
BRANCH   1  17
ATOM     15  C   UNL     1       5.114   4.413  18.192  0.00  0.00    +0.000 A 
ATOM     16  C   UNL     1       4.589   5.708  18.319  0.00  0.00    +0.000 A 
ATOM     17  C   UNL     1       3.216   5.953  18.219  0.00  0.00    +0.000 A 
ATOM     18  C   UNL     1       2.370   4.853  18.031  0.00  0.00    +0.000 A 
ATOM     19  C   UNL     1       2.877   3.557  17.886  0.00  0.00    +0.000 A 
ATOM     20  C   UNL     1       4.253   3.341  17.955  0.00  0.00    +0.000 A 
BRANCH  15  22
ATOM     21  C   UNL     1       7.261   4.602  17.169  0.00  0.00    +0.000 C 
ATOM     22  O   UNL     1       6.476   4.317  18.323  0.00  0.00    +0.000 OA
ENDBRANCH  15  22
BRANCH  19  23
ATOM     23  O   UNL     1       1.926   2.592  17.685  0.00  0.00    +0.000 OA
ATOM     24  C   UNL     1       0.922   2.454  18.683  0.00  0.00    +0.000 C 
ENDBRANCH  19  23
ENDBRANCH   1  17
TORSDOF 5
ENDMDL
MODEL 4
REMARK VINA RESULT:      -7.0      1.222      2.309
REMARK  Name = 
REMARK  7 active torsions:
REMARK  status: ('A' for Active; 'I' for Inactive)
REMARK    1  A    between atoms: C_1  and  O_2
REMARK    2  A    between atoms: O_2  and  C_3
REMARK    3  A    between atoms: C_5  and  N_6
REMARK    4  A    between atoms: C_7  and  C_8
REMARK    5  A    between atoms: C_9  and  O_10
REMARK    6  A    between atoms: C_20  and  O_21
REMARK    7  A    between atoms: O_21  and  C_22
REMARK                            x       y       z     vdW  Elec       q    Type
REMARK                         _______ _______ _______ _____ _____    ______ ____
ROOT
ATOM      1  N   UNL     1       2.544   6.802  19.232  0.00  0.00    +0.000 NA
ATOM      2  C   UNL     1       2.146   7.973  18.843  0.00  0.00    +0.000 C 
ENDROOT
BRANCH   2   3
ATOM      3  C   UNL     1       1.248   8.822  19.633  0.00  0.00    +0.000 C 
ATOM      4  C   UNL     1       1.100   8.797  20.962  0.00  0.00    +0.000 C 
ATOM      5  C   UNL     1       0.228   9.875  21.399  0.00  0.00    +0.000 A 
ATOM      6  C   UNL     1      -0.133  10.308  22.662  0.00  0.00    +0.000 A 
ATOM      7  C   UNL     1      -1.043  11.367  22.763  0.00  0.00    +0.000 A 
ATOM      8  C   UNL     1      -1.583  11.970  21.610  0.00  0.00    +0.000 A 
ATOM      9  C   UNL     1      -1.181  11.554  20.338  0.00  0.00    +0.000 A 
ATOM     10  C   UNL     1      -0.260  10.522  20.274  0.00  0.00    +0.000 A 
ATOM     11  C   UNL     1       0.403   9.920  19.114  0.00  0.00    +0.000 C 
ATOM     12  O   UNL     1       0.282  10.258  17.953  0.00  0.00    +0.000 OA
BRANCH   4  13
ATOM     13  O   UNL     1       1.629   7.921  21.863  0.00  0.00    +0.000 OA
ATOM     14  H   UNL     1       1.124   7.083  21.769  0.00  0.00    +0.000 HD
ENDBRANCH   4  13
ENDBRANCH   2   3
BRANCH   1  17
ATOM     15  C   UNL     1       5.391   6.047  16.963  0.00  0.00    +0.000 A 
ATOM     16  C   UNL     1       4.480   6.722  17.788  0.00  0.00    +0.000 A 
ATOM     17  C   UNL     1       3.416   6.053  18.401  0.00  0.00    +0.000 A 
ATOM     18  C   UNL     1       3.312   4.672  18.202  0.00  0.00    +0.000 A 
ATOM     19  C   UNL     1       4.203   3.984  17.370  0.00  0.00    +0.000 A 
ATOM     20  C   UNL     1       5.237   4.678  16.741  0.00  0.00    +0.000 A 
BRANCH  15  22
ATOM     21  C   UNL     1       7.355   7.345  17.346  0.00  0.00    +0.000 C 
ATOM     22  O   UNL     1       6.392   6.823  16.436  0.00  0.00    +0.000 OA
ENDBRANCH  15  22
BRANCH  19  23
ATOM     23  O   UNL     1       3.956   2.642  17.257  0.00  0.00    +0.000 OA
ATOM     24  C   UNL     1       2.803   2.137  17.918  0.00  0.00    +0.000 C 
ENDBRANCH  19  23
ENDBRANCH   1  17
TORSDOF 5
ENDMDL
MODEL 5
REMARK VINA RESULT:      -7.0      0.938      2.646
REMARK  Name = 
REMARK  7 active torsions:
REMARK  status: ('A' for Active; 'I' for Inactive)
REMARK    1  A    between atoms: C_1  and  O_2
REMARK    2  A    between atoms: O_2  and  C_3
REMARK    3  A    between atoms: C_5  and  N_6
REMARK    4  A    between atoms: C_7  and  C_8
REMARK    5  A    between atoms: C_9  and  O_10
REMARK    6  A    between atoms: C_20  and  O_21
REMARK    7  A    between atoms: O_21  and  C_22
REMARK                            x       y       z     vdW  Elec       q    Type
REMARK                         _______ _______ _______ _____ _____    ______ ____
ROOT
ATOM      1  N   UNL     1       2.538   7.837  18.136  0.00  0.00    +0.000 NA
ATOM      2  C   UNL     1       2.086   7.894  19.350  0.00  0.00    +0.000 C 
ENDROOT
BRANCH   2   3
ATOM      3  C   UNL     1       1.238   8.985  19.843  0.00  0.00    +0.000 C 
ATOM      4  C   UNL     1       0.537   9.843  19.094  0.00  0.00    +0.000 C 
ATOM      5  C   UNL     1      -0.292  10.693  19.933  0.00  0.00    +0.000 A 
ATOM      6  C   UNL     1      -1.246  11.643  19.617  0.00  0.00    +0.000 A 
ATOM      7  C   UNL     1      -1.858  12.341  20.666  0.00  0.00    +0.000 A 
ATOM      8  C   UNL     1      -1.504  12.087  22.006  0.00  0.00    +0.000 A 
ATOM      9  C   UNL     1      -0.571  11.096  22.319  0.00  0.00    +0.000 A 
ATOM     10  C   UNL     1      -0.004  10.407  21.260  0.00  0.00    +0.000 A 
ATOM     11  C   UNL     1       0.934   9.282  21.260  0.00  0.00    +0.000 C 
ATOM     12  O   UNL     1       1.374   8.705  22.235  0.00  0.00    +0.000 OA
BRANCH   4  13
ATOM     13  O   UNL     1       0.542   9.995  17.739  0.00  0.00    +0.000 OA
ATOM     14  H   UNL     1      -0.399  10.035  17.459  0.00  0.00    +0.000 HD
ENDBRANCH   4  13
ENDBRANCH   2   3
BRANCH   1  17
ATOM     15  C   UNL     1       3.752   4.333  17.855  0.00  0.00    +0.000 A 
ATOM     16  C   UNL     1       3.004   5.467  18.206  0.00  0.00    +0.000 A 
ATOM     17  C   UNL     1       3.350   6.742  17.748  0.00  0.00    +0.000 A 
ATOM     18  C   UNL     1       4.447   6.848  16.884  0.00  0.00    +0.000 A 
ATOM     19  C   UNL     1       5.214   5.730  16.535  0.00  0.00    +0.000 A 
ATOM     20  C   UNL     1       4.870   4.474  17.033  0.00  0.00    +0.000 A 
BRANCH  15  22
ATOM     21  C   UNL     1       1.935   2.807  18.100  0.00  0.00    +0.000 C 
ATOM     22  O   UNL     1       3.293   3.147  18.366  0.00  0.00    +0.000 OA
ENDBRANCH  15  22
BRANCH  19  23
ATOM     23  O   UNL     1       6.268   6.000  15.703  0.00  0.00    +0.000 OA
ATOM     24  C   UNL     1       6.944   4.886  15.133  0.00  0.00    +0.000 C 
ENDBRANCH  19  23
ENDBRANCH   1  17
TORSDOF 5
ENDMDL
MODEL 6
REMARK VINA RESULT:      -7.0      1.720      3.118
REMARK  Name = 
REMARK  7 active torsions:
REMARK  status: ('A' for Active; 'I' for Inactive)
REMARK    1  A    between atoms: C_1  and  O_2
REMARK    2  A    between atoms: O_2  and  C_3
REMARK    3  A    between atoms: C_5  and  N_6
REMARK    4  A    between atoms: C_7  and  C_8
REMARK    5  A    between atoms: C_9  and  O_10
REMARK    6  A    between atoms: C_20  and  O_21
REMARK    7  A    between atoms: O_21  and  C_22
REMARK                            x       y       z     vdW  Elec       q    Type
REMARK                         _______ _______ _______ _____ _____    ______ ____
ROOT
ATOM      1  N   UNL     1       3.662   6.172  18.562  0.00  0.00    +0.000 NA
ATOM      2  C   UNL     1       3.302   7.383  18.274  0.00  0.00    +0.000 C 
ENDROOT
BRANCH   2   3
ATOM      3  C   UNL     1       2.257   8.108  19.005  0.00  0.00    +0.000 C 
ATOM      4  C   UNL     1       1.792   7.811  20.223  0.00  0.00    +0.000 C 
ATOM      5  C   UNL     1       0.862   8.834  20.677  0.00  0.00    +0.000 A 
ATOM      6  C   UNL     1       0.216   9.013  21.887  0.00  0.00    +0.000 A 
ATOM      7  C   UNL     1      -0.670  10.091  22.010  0.00  0.00    +0.000 A 
ATOM      8  C   UNL     1      -0.902  10.963  20.928  0.00  0.00    +0.000 A 
ATOM      9  C   UNL     1      -0.213  10.800  19.724  0.00  0.00    +0.000 A 
ATOM     10  C   UNL     1       0.675   9.740  19.644  0.00  0.00    +0.000 A 
ATOM     11  C   UNL     1       1.585   9.351  18.564  0.00  0.00    +0.000 C 
ATOM     12  O   UNL     1       1.756   9.937  17.514  0.00  0.00    +0.000 OA
BRANCH   4  13
ATOM     13  O   UNL     1       2.069   6.727  21.001  0.00  0.00    +0.000 OA
ATOM     14  H   UNL     1       1.204   6.341  21.262  0.00  0.00    +0.000 HD
ENDBRANCH   4  13
ENDBRANCH   2   3
BRANCH   1  17
ATOM     15  C   UNL     1       6.984   4.725  17.725  0.00  0.00    +0.000 A 
ATOM     16  C   UNL     1       5.927   5.343  18.409  0.00  0.00    +0.000 A 
ATOM     17  C   UNL     1       4.685   5.551  17.801  0.00  0.00    +0.000 A 
ATOM     18  C   UNL     1       4.512   5.080  16.494  0.00  0.00    +0.000 A 
ATOM     19  C   UNL     1       5.560   4.475  15.791  0.00  0.00    +0.000 A 
ATOM     20  C   UNL     1       6.800   4.309  16.406  0.00  0.00    +0.000 A 
BRANCH  15  22
ATOM     21  C   UNL     1       8.307   5.410  19.587  0.00  0.00    +0.000 C 
ATOM     22  O   UNL     1       8.141   4.575  18.446  0.00  0.00    +0.000 OA
ENDBRANCH  15  22
BRANCH  19  23
ATOM     23  O   UNL     1       5.242   4.089  14.516  0.00  0.00    +0.000 OA
ATOM     24  C   UNL     1       6.317   3.941  13.597  0.00  0.00    +0.000 C 
ENDBRANCH  19  23
ENDBRANCH   1  17
TORSDOF 5
ENDMDL
MODEL 7
REMARK VINA RESULT:      -7.0      1.032      1.134
REMARK  Name = 
REMARK  7 active torsions:
REMARK  status: ('A' for Active; 'I' for Inactive)
REMARK    1  A    between atoms: C_1  and  O_2
REMARK    2  A    between atoms: O_2  and  C_3
REMARK    3  A    between atoms: C_5  and  N_6
REMARK    4  A    between atoms: C_7  and  C_8
REMARK    5  A    between atoms: C_9  and  O_10
REMARK    6  A    between atoms: C_20  and  O_21
REMARK    7  A    between atoms: O_21  and  C_22
REMARK                            x       y       z     vdW  Elec       q    Type
REMARK                         _______ _______ _______ _____ _____    ______ ____
ROOT
ATOM      1  N   UNL     1       2.268   7.739  18.345  0.00  0.00    +0.000 NA
ATOM      2  C   UNL     1       1.967   7.958  19.586  0.00  0.00    +0.000 C 
ENDROOT
BRANCH   2   3
ATOM      3  C   UNL     1       1.124   9.075  20.026  0.00  0.00    +0.000 C 
ATOM      4  C   UNL     1       0.422   9.895  19.237  0.00  0.00    +0.000 C 
ATOM      5  C   UNL     1      -0.402  10.790  20.034  0.00  0.00    +0.000 A 
ATOM      6  C   UNL     1      -1.355  11.725  19.674  0.00  0.00    +0.000 A 
ATOM      7  C   UNL     1      -1.959  12.478  20.688  0.00  0.00    +0.000 A 
ATOM      8  C   UNL     1      -1.599  12.294  22.037  0.00  0.00    +0.000 A 
ATOM      9  C   UNL     1      -0.667  11.319  22.396  0.00  0.00    +0.000 A 
ATOM     10  C   UNL     1      -0.107  10.573  21.372  0.00  0.00    +0.000 A 
ATOM     11  C   UNL     1       0.829   9.447  21.427  0.00  0.00    +0.000 C 
ATOM     12  O   UNL     1       1.272   8.921  22.428  0.00  0.00    +0.000 OA
BRANCH   4  13
ATOM     13  O   UNL     1       0.420   9.975  17.876  0.00  0.00    +0.000 OA
ATOM     14  H   UNL     1      -0.488  10.244  17.613  0.00  0.00    +0.000 HD
ENDBRANCH   4  13
ENDBRANCH   2   3
BRANCH   1  17
ATOM     15  C   UNL     1       5.078   5.814  16.853  0.00  0.00    +0.000 A 
ATOM     16  C   UNL     1       4.213   6.857  17.213  0.00  0.00    +0.000 A 
ATOM     17  C   UNL     1       3.088   6.631  18.013  0.00  0.00    +0.000 A 
ATOM     18  C   UNL     1       2.875   5.330  18.485  0.00  0.00    +0.000 A 
ATOM     19  C   UNL     1       3.719   4.274  18.123  0.00  0.00    +0.000 A 
ATOM     20  C   UNL     1       4.815   4.517  17.296  0.00  0.00    +0.000 A 
BRANCH  15  22
ATOM     21  C   UNL     1       6.924   5.132  15.505  0.00  0.00    +0.000 C 
ATOM     22  O   UNL     1       6.146   6.180  16.075  0.00  0.00    +0.000 OA
ENDBRANCH  15  22
BRANCH  19  23
ATOM     23  O   UNL     1       3.366   3.058  18.645  0.00  0.00    +0.000 OA
ATOM     24  C   UNL     1       2.614   2.187  17.808  0.00  0.00    +0.000 C 
ENDBRANCH  19  23
ENDBRANCH   1  17
TORSDOF 5
ENDMDL
MODEL 8
REMARK VINA RESULT:      -6.9      1.799      3.011
REMARK  Name = 
REMARK  7 active torsions:
REMARK  status: ('A' for Active; 'I' for Inactive)
REMARK    1  A    between atoms: C_1  and  O_2
REMARK    2  A    between atoms: O_2  and  C_3
REMARK    3  A    between atoms: C_5  and  N_6
REMARK    4  A    between atoms: C_7  and  C_8
REMARK    5  A    between atoms: C_9  and  O_10
REMARK    6  A    between atoms: C_20  and  O_21
REMARK    7  A    between atoms: O_21  and  C_22
REMARK                            x       y       z     vdW  Elec       q    Type
REMARK                         _______ _______ _______ _____ _____    ______ ____
ROOT
ATOM      1  N   UNL     1       2.415   6.998  18.932  0.00  0.00    +0.000 NA
ATOM      2  C   UNL     1       2.003   7.576  20.016  0.00  0.00    +0.000 C 
ENDROOT
BRANCH   2   3
ATOM      3  C   UNL     1       1.255   8.838  20.022  0.00  0.00    +0.000 C 
ATOM      4  C   UNL     1       0.993   9.608  18.960  0.00  0.00    +0.000 C 
ATOM      5  C   UNL     1       0.110  10.703  19.330  0.00  0.00    +0.000 A 
ATOM      6  C   UNL     1      -0.507  11.680  18.569  0.00  0.00    +0.000 A 
ATOM      7  C   UNL     1      -1.280  12.642  19.230  0.00  0.00    +0.000 A 
ATOM      8  C   UNL     1      -1.417  12.621  20.632  0.00  0.00    +0.000 A 
ATOM      9  C   UNL     1      -0.825  11.607  21.388  0.00  0.00    +0.000 A 
ATOM     10  C   UNL     1      -0.089  10.656  20.701  0.00  0.00    +0.000 A 
ATOM     11  C   UNL     1       0.581   9.448  21.190  0.00  0.00    +0.000 C 
ATOM     12  O   UNL     1       0.581   9.029  22.330  0.00  0.00    +0.000 OA
BRANCH   4  13
ATOM     13  O   UNL     1       1.450   9.483  17.682  0.00  0.00    +0.000 OA
ATOM     14  H   UNL     1       0.992   8.703  17.296  0.00  0.00    +0.000 HD
ENDBRANCH   4  13
ENDBRANCH   2   3
BRANCH   1  17
ATOM     15  C   UNL     1       3.033   3.343  19.231  0.00  0.00    +0.000 A 
ATOM     16  C   UNL     1       2.398   4.591  19.147  0.00  0.00    +0.000 A 
ATOM     17  C   UNL     1       3.129   5.776  19.023  0.00  0.00    +0.000 A 
ATOM     18  C   UNL     1       4.523   5.676  18.940  0.00  0.00    +0.000 A 
ATOM     19  C   UNL     1       5.174   4.442  19.037  0.00  0.00    +0.000 A 
ATOM     20  C   UNL     1       4.426   3.276  19.195  0.00  0.00    +0.000 A 
BRANCH  15  22
ATOM     21  C   UNL     1       0.887   2.401  18.786  0.00  0.00    +0.000 C 
ATOM     22  O   UNL     1       2.193   2.264  19.337  0.00  0.00    +0.000 OA
ENDBRANCH  15  22
BRANCH  19  23
ATOM     23  O   UNL     1       6.540   4.511  18.962  0.00  0.00    +0.000 OA
ATOM     24  C   UNL     1       7.094   5.195  17.845  0.00  0.00    +0.000 C 
ENDBRANCH  19  23
ENDBRANCH   1  17
TORSDOF 5
ENDMDL
MODEL 9
REMARK VINA RESULT:      -6.9      1.297      3.241
REMARK  Name = 
REMARK  7 active torsions:
REMARK  status: ('A' for Active; 'I' for Inactive)
REMARK    1  A    between atoms: C_1  and  O_2
REMARK    2  A    between atoms: O_2  and  C_3
REMARK    3  A    between atoms: C_5  and  N_6
REMARK    4  A    between atoms: C_7  and  C_8
REMARK    5  A    between atoms: C_9  and  O_10
REMARK    6  A    between atoms: C_20  and  O_21
REMARK    7  A    between atoms: O_21  and  C_22
REMARK                            x       y       z     vdW  Elec       q    Type
REMARK                         _______ _______ _______ _____ _____    ______ ____
ROOT
ATOM      1  N   UNL     1       2.571   7.100  19.271  0.00  0.00    +0.000 NA
ATOM      2  C   UNL     1       1.909   8.109  18.799  0.00  0.00    +0.000 C 
ENDROOT
BRANCH   2   3
ATOM      3  C   UNL     1       1.048   8.964  19.625  0.00  0.00    +0.000 C 
ATOM      4  C   UNL     1       0.956   8.941  20.959  0.00  0.00    +0.000 C 
ATOM      5  C   UNL     1       0.109  10.025  21.430  0.00  0.00    +0.000 A 
ATOM      6  C   UNL     1      -0.196  10.463  22.706  0.00  0.00    +0.000 A 
ATOM      7  C   UNL     1      -1.096  11.527  22.843  0.00  0.00    +0.000 A 
ATOM      8  C   UNL     1      -1.680  12.130  21.712  0.00  0.00    +0.000 A 
ATOM      9  C   UNL     1      -1.334  11.710  20.426  0.00  0.00    +0.000 A 
ATOM     10  C   UNL     1      -0.422  10.673  20.324  0.00  0.00    +0.000 A 
ATOM     11  C   UNL     1       0.188  10.065  19.139  0.00  0.00    +0.000 C 
ATOM     12  O   UNL     1       0.021  10.402  17.984  0.00  0.00    +0.000 OA
BRANCH   4  13
ATOM     13  O   UNL     1       1.518   8.064  21.838  0.00  0.00    +0.000 OA
ATOM     14  H   UNL     1       1.912   7.342  21.300  0.00  0.00    +0.000 HD
ENDBRANCH   4  13
ENDBRANCH   2   3
BRANCH   1  17
ATOM     15  C   UNL     1       3.712   4.212  17.223  0.00  0.00    +0.000 A 
ATOM     16  C   UNL     1       2.970   5.030  18.088  0.00  0.00    +0.000 A 
ATOM     17  C   UNL     1       3.381   6.330  18.397  0.00  0.00    +0.000 A 
ATOM     18  C   UNL     1       4.540   6.812  17.776  0.00  0.00    +0.000 A 
ATOM     19  C   UNL     1       5.301   6.006  16.922  0.00  0.00    +0.000 A 
ATOM     20  C   UNL     1       4.890   4.700  16.656  0.00  0.00    +0.000 A 
BRANCH  15  22
ATOM     21  C   UNL     1       3.409   1.979  18.003  0.00  0.00    +0.000 C 
ATOM     22  O   UNL     1       3.186   2.966  17.000  0.00  0.00    +0.000 OA
ENDBRANCH  15  22
BRANCH  19  23
ATOM     23  O   UNL     1       6.419   6.611  16.413  0.00  0.00    +0.000 OA
ATOM     24  C   UNL     1       7.333   7.173  17.345  0.00  0.00    +0.000 C 
ENDBRANCH  19  23
ENDBRANCH   1  17
TORSDOF 5
ENDMDL
