MODEL 1
REMARK VINA RESULT:      -7.5      0.000      0.000
REMARK  Name = 
REMARK  2 active torsions:
REMARK  status: ('A' for Active; 'I' for Inactive)
REMARK    1  A    between atoms: C_6  and  C_7
REMARK    2  A    between atoms: C_8  and  C_9
REMARK                            x       y       z     vdW  Elec       q    Type
REMARK                         _______ _______ _______ _____ _____    ______ ____
ROOT
ATOM      1  C   UNL     1       5.104   4.085  17.057  0.00  0.00    +0.000 C 
ATOM      2  C   UNL     1       3.825   4.419  17.302  0.00  0.00    +0.000 C 
ENDROOT
BRANCH   1   8
ATOM      3  O   UNL     1       8.015   5.309  20.499  0.00  0.00    +0.000 OA
ATOM      4  C   UNL     1       7.528   5.568  19.402  0.00  0.00    +0.000 C 
ATOM      5  C   UNL     1       8.003   6.727  18.625  0.00  0.00    +0.000 C 
ATOM      6  C   UNL     1       7.374   7.128  17.511  0.00  0.00    +0.000 C 
ATOM      7  C   UNL     1       6.218   6.355  16.958  0.00  0.00    +0.000 C 
ATOM      8  C   UNL     1       6.311   4.908  17.440  0.00  0.00    +0.000 C 
ATOM      9  O   UNL     1       6.520   4.845  18.865  0.00  0.00    +0.000 OA
ENDBRANCH   1   8
BRANCH   2  10
ATOM     10  C   UNL     1       2.678   3.434  17.225  0.00  0.00    +0.000 C 
ATOM     11  C   UNL     1       3.114   2.123  17.904  0.00  0.00    +0.000 C 
ATOM     12  C   UNL     1       3.290   2.290  19.414  0.00  0.00    +0.000 C 
ATOM     13  C   UNL     1       2.006   2.792  20.065  0.00  0.00    +0.000 C 
ATOM     14  C   UNL     1       1.461   4.057  19.402  0.00  0.00    +0.000 C 
ATOM     15  C   UNL     1       1.382   3.947  17.875  0.00  0.00    +0.000 C 
ENDBRANCH   2  10
TORSDOF 2
ENDMDL
MODEL 2
REMARK VINA RESULT:      -7.2      2.182      5.555
REMARK  Name = 
REMARK  2 active torsions:
REMARK  status: ('A' for Active; 'I' for Inactive)
REMARK    1  A    between atoms: C_6  and  C_7
REMARK    2  A    between atoms: C_8  and  C_9
REMARK                            x       y       z     vdW  Elec       q    Type
REMARK                         _______ _______ _______ _____ _____    ______ ____
ROOT
ATOM      1  C   UNL     1       3.272   5.296  18.001  0.00  0.00    +0.000 C 
ATOM      2  C   UNL     1       4.588   5.420  18.246  0.00  0.00    +0.000 C 
ENDROOT
BRANCH   1   8
ATOM      3  O   UNL     1       2.554   3.361  22.192  0.00  0.00    +0.000 OA
ATOM      4  C   UNL     1       2.206   3.470  21.019  0.00  0.00    +0.000 C 
ATOM      5  C   UNL     1       0.979   2.813  20.536  0.00  0.00    +0.000 C 
ATOM      6  C   UNL     1       0.673   2.775  19.231  0.00  0.00    +0.000 C 
ATOM      7  C   UNL     1       1.519   3.484  18.220  0.00  0.00    +0.000 C 
ATOM      8  C   UNL     1       2.274   4.618  18.911  0.00  0.00    +0.000 C 
ATOM      9  O   UNL     1       2.933   4.154  20.106  0.00  0.00    +0.000 OA
ENDBRANCH   1   8
BRANCH   2  10
ATOM     10  C   UNL     1       5.484   6.390  17.504  0.00  0.00    +0.000 C 
ATOM     11  C   UNL     1       6.948   5.969  17.725  0.00  0.00    +0.000 C 
ATOM     12  C   UNL     1       7.274   4.643  17.036  0.00  0.00    +0.000 C 
ATOM     13  C   UNL     1       6.991   4.717  15.540  0.00  0.00    +0.000 C 
ATOM     14  C   UNL     1       5.574   5.200  15.227  0.00  0.00    +0.000 C 
ATOM     15  C   UNL     1       5.190   6.468  15.996  0.00  0.00    +0.000 C 
ENDBRANCH   2  10
TORSDOF 2
ENDMDL
MODEL 3
REMARK VINA RESULT:      -7.2      0.942      1.316
REMARK  Name = 
REMARK  2 active torsions:
REMARK  status: ('A' for Active; 'I' for Inactive)
REMARK    1  A    between atoms: C_6  and  C_7
REMARK    2  A    between atoms: C_8  and  C_9
REMARK                            x       y       z     vdW  Elec       q    Type
REMARK                         _______ _______ _______ _____ _____    ______ ____
ROOT
ATOM      1  C   UNL     1       3.920   5.166  17.693  0.00  0.00    +0.000 C 
ATOM      2  C   UNL     1       3.082   5.189  18.744  0.00  0.00    +0.000 C 
ENDROOT
BRANCH   1   8
ATOM      3  O   UNL     1       7.755   5.280  20.357  0.00  0.00    +0.000 OA
ATOM      4  C   UNL     1       7.168   5.677  19.355  0.00  0.00    +0.000 C 
ATOM      5  C   UNL     1       7.850   6.552  18.384  0.00  0.00    +0.000 C 
ATOM      6  C   UNL     1       7.183   7.135  17.378  0.00  0.00    +0.000 C 
ATOM      7  C   UNL     1       5.734   6.843  17.144  0.00  0.00    +0.000 C 
ATOM      8  C   UNL     1       5.397   5.480  17.746  0.00  0.00    +0.000 C 
ATOM      9  O   UNL     1       5.874   5.377  19.102  0.00  0.00    +0.000 OA
ENDBRANCH   1   8
BRANCH   2  10
ATOM     10  C   UNL     1       1.713   4.543  18.730  0.00  0.00    +0.000 C 
ATOM     11  C   UNL     1       1.868   3.080  18.277  0.00  0.00    +0.000 C 
ATOM     12  C   UNL     1       2.610   2.234  19.313  0.00  0.00    +0.000 C 
ATOM     13  C   UNL     1       1.900   2.272  20.662  0.00  0.00    +0.000 C 
ATOM     14  C   UNL     1       1.639   3.695  21.155  0.00  0.00    +0.000 C 
ATOM     15  C   UNL     1       0.997   4.590  20.091  0.00  0.00    +0.000 C 
ENDBRANCH   2  10
TORSDOF 2
ENDMDL
MODEL 4
REMARK VINA RESULT:      -7.1      2.004      5.627
REMARK  Name = 
REMARK  2 active torsions:
REMARK  status: ('A' for Active; 'I' for Inactive)
REMARK    1  A    between atoms: C_6  and  C_7
REMARK    2  A    between atoms: C_8  and  C_9
REMARK                            x       y       z     vdW  Elec       q    Type
REMARK                         _______ _______ _______ _____ _____    ______ ____
ROOT
ATOM      1  C   UNL     1       3.788   3.866  17.649  0.00  0.00    +0.000 C 
ATOM      2  C   UNL     1       5.115   3.994  17.823  0.00  0.00    +0.000 C 
ENDROOT
BRANCH   1   8
ATOM      3  O   UNL     1       2.906   2.502  22.029  0.00  0.00    +0.000 OA
ATOM      4  C   UNL     1       2.468   2.815  20.925  0.00  0.00    +0.000 C 
ATOM      5  C   UNL     1       1.017   2.937  20.700  0.00  0.00    +0.000 C 
ATOM      6  C   UNL     1       0.512   3.107  19.470  0.00  0.00    +0.000 C 
ATOM      7  C   UNL     1       1.410   3.278  18.285  0.00  0.00    +0.000 C 
ATOM      8  C   UNL     1       2.763   3.806  18.758  0.00  0.00    +0.000 C 
ATOM      9  O   UNL     1       3.272   3.026  19.858  0.00  0.00    +0.000 OA
ENDBRANCH   1   8
BRANCH   2  10
ATOM     10  C   UNL     1       6.063   4.397  16.714  0.00  0.00    +0.000 C 
ATOM     11  C   UNL     1       5.521   5.674  16.047  0.00  0.00    +0.000 C 
ATOM     12  C   UNL     1       5.591   6.884  16.981  0.00  0.00    +0.000 C 
ATOM     13  C   UNL     1       7.018   7.130  17.456  0.00  0.00    +0.000 C 
ATOM     14  C   UNL     1       7.662   5.886  18.068  0.00  0.00    +0.000 C 
ATOM     15  C   UNL     1       7.505   4.637  17.195  0.00  0.00    +0.000 C 
ENDBRANCH   2  10
TORSDOF 2
ENDMDL
MODEL 5
REMARK VINA RESULT:      -7.1      1.571      2.209
REMARK  Name = 
REMARK  2 active torsions:
REMARK  status: ('A' for Active; 'I' for Inactive)
REMARK    1  A    between atoms: C_6  and  C_7
REMARK    2  A    between atoms: C_8  and  C_9
REMARK                            x       y       z     vdW  Elec       q    Type
REMARK                         _______ _______ _______ _____ _____    ______ ____
ROOT
ATOM      1  C   UNL     1       3.361   3.941  17.272  0.00  0.00    +0.000 C 
ATOM      2  C   UNL     1       2.868   4.618  18.324  0.00  0.00    +0.000 C 
ENDROOT
BRANCH   1   8
ATOM      3  O   UNL     1       7.763   4.734  18.620  0.00  0.00    +0.000 OA
ATOM      4  C   UNL     1       6.966   4.575  17.700  0.00  0.00    +0.000 C 
ATOM      5  C   UNL     1       7.434   4.506  16.305  0.00  0.00    +0.000 C 
ATOM      6  C   UNL     1       6.574   4.506  15.277  0.00  0.00    +0.000 C 
ATOM      7  C   UNL     1       5.096   4.478  15.509  0.00  0.00    +0.000 C 
ATOM      8  C   UNL     1       4.820   3.872  16.884  0.00  0.00    +0.000 C 
ATOM      9  O   UNL     1       5.631   4.494  17.900  0.00  0.00    +0.000 OA
ENDBRANCH   1   8
BRANCH   2  10
ATOM     10  C   UNL     1       1.480   4.388  18.883  0.00  0.00    +0.000 C 
ATOM     11  C   UNL     1       1.159   2.886  18.794  0.00  0.00    +0.000 C 
ATOM     12  C   UNL     1       2.026   2.056  19.742  0.00  0.00    +0.000 C 
ATOM     13  C   UNL     1       1.862   2.522  21.185  0.00  0.00    +0.000 C 
ATOM     14  C   UNL     1       2.091   4.024  21.353  0.00  0.00    +0.000 C 
ATOM     15  C   UNL     1       1.316   4.867  20.336  0.00  0.00    +0.000 C 
ENDBRANCH   2  10
TORSDOF 2
ENDMDL
MODEL 6
REMARK VINA RESULT:      -7.1      1.979      5.643
REMARK  Name = 
REMARK  2 active torsions:
REMARK  status: ('A' for Active; 'I' for Inactive)
REMARK    1  A    between atoms: C_6  and  C_7
REMARK    2  A    between atoms: C_8  and  C_9
REMARK                            x       y       z     vdW  Elec       q    Type
REMARK                         _______ _______ _______ _____ _____    ______ ____
ROOT
ATOM      1  C   UNL     1       3.753   3.830  17.022  0.00  0.00    +0.000 C 
ATOM      2  C   UNL     1       5.004   4.052  17.460  0.00  0.00    +0.000 C 
ENDROOT
BRANCH   1   8
ATOM      3  O   UNL     1       1.741   5.402  20.933  0.00  0.00    +0.000 OA
ATOM      4  C   UNL     1       1.780   4.551  20.049  0.00  0.00    +0.000 C 
ATOM      5  C   UNL     1       0.762   3.488  19.985  0.00  0.00    +0.000 C 
ATOM      6  C   UNL     1       0.880   2.456  19.138  0.00  0.00    +0.000 C 
ATOM      7  C   UNL     1       2.006   2.391  18.154  0.00  0.00    +0.000 C 
ATOM      8  C   UNL     1       2.515   3.807  17.888  0.00  0.00    +0.000 C 
ATOM      9  O   UNL     1       2.762   4.513  19.120  0.00  0.00    +0.000 OA
ENDBRANCH   1   8
BRANCH   2  10
ATOM     10  C   UNL     1       6.155   4.412  16.544  0.00  0.00    +0.000 C 
ATOM     11  C   UNL     1       5.823   5.741  15.842  0.00  0.00    +0.000 C 
ATOM     12  C   UNL     1       5.813   6.919  16.818  0.00  0.00    +0.000 C 
ATOM     13  C   UNL     1       7.151   7.048  17.537  0.00  0.00    +0.000 C 
ATOM     14  C   UNL     1       7.595   5.746  18.204  0.00  0.00    +0.000 C 
ATOM     15  C   UNL     1       7.505   4.534  17.271  0.00  0.00    +0.000 C 
ENDBRANCH   2  10
TORSDOF 2
ENDMDL
MODEL 7
REMARK VINA RESULT:      -7.0      2.408      5.943
REMARK  Name = 
REMARK  2 active torsions:
REMARK  status: ('A' for Active; 'I' for Inactive)
REMARK    1  A    between atoms: C_6  and  C_7
REMARK    2  A    between atoms: C_8  and  C_9
REMARK                            x       y       z     vdW  Elec       q    Type
REMARK                         _______ _______ _______ _____ _____    ______ ____
ROOT
ATOM      1  C   UNL     1       4.683   3.585  18.886  0.00  0.00    +0.000 C 
ATOM      2  C   UNL     1       4.981   4.622  18.084  0.00  0.00    +0.000 C 
ENDROOT
BRANCH   1   8
ATOM      3  O   UNL     1       0.314   2.008  18.383  0.00  0.00    +0.000 OA
ATOM      4  C   UNL     1       1.105   2.713  19.005  0.00  0.00    +0.000 C 
ATOM      5  C   UNL     1       0.681   3.415  20.229  0.00  0.00    +0.000 C 
ATOM      6  C   UNL     1       1.470   4.320  20.825  0.00  0.00    +0.000 C 
ATOM      7  C   UNL     1       2.855   4.584  20.324  0.00  0.00    +0.000 C 
ATOM      8  C   UNL     1       3.350   3.357  19.561  0.00  0.00    +0.000 C 
ATOM      9  O   UNL     1       2.376   2.917  18.593  0.00  0.00    +0.000 OA
ENDBRANCH   1   8
BRANCH   2  10
ATOM     10  C   UNL     1       6.180   4.640  17.161  0.00  0.00    +0.000 C 
ATOM     11  C   UNL     1       6.078   5.878  16.252  0.00  0.00    +0.000 C 
ATOM     12  C   UNL     1       6.257   7.181  17.034  0.00  0.00    +0.000 C 
ATOM     13  C   UNL     1       7.594   7.202  17.767  0.00  0.00    +0.000 C 
ATOM     14  C   UNL     1       7.812   5.967  18.640  0.00  0.00    +0.000 C 
ATOM     15  C   UNL     1       7.527   4.654  17.903  0.00  0.00    +0.000 C 
ENDBRANCH   2  10
TORSDOF 2
ENDMDL
MODEL 8
REMARK VINA RESULT:      -7.0      3.161      4.169
REMARK  Name = 
REMARK  2 active torsions:
REMARK  status: ('A' for Active; 'I' for Inactive)
REMARK    1  A    between atoms: C_6  and  C_7
REMARK    2  A    between atoms: C_8  and  C_9
REMARK                            x       y       z     vdW  Elec       q    Type
REMARK                         _______ _______ _______ _____ _____    ______ ____
ROOT
ATOM      1  C   UNL     1       6.099   4.421  16.420  0.00  0.00    +0.000 C 
ATOM      2  C   UNL     1       4.838   4.185  16.823  0.00  0.00    +0.000 C 
ENDROOT
BRANCH   1   8
ATOM      3  O   UNL     1       8.851   6.014  12.999  0.00  0.00    +0.000 OA
ATOM      4  C   UNL     1       7.910   5.301  13.335  0.00  0.00    +0.000 C 
ATOM      5  C   UNL     1       7.259   4.410  12.358  0.00  0.00    +0.000 C 
ATOM      6  C   UNL     1       6.128   3.755  12.655  0.00  0.00    +0.000 C 
ATOM      7  C   UNL     1       5.533   3.826  14.026  0.00  0.00    +0.000 C 
ATOM      8  C   UNL     1       6.632   4.176  15.028  0.00  0.00    +0.000 C 
ATOM      9  O   UNL     1       7.397   5.315  14.586  0.00  0.00    +0.000 OA
ENDBRANCH   1   8
BRANCH   2  10
ATOM     10  C   UNL     1       4.251   4.756  18.097  0.00  0.00    +0.000 C 
ATOM     11  C   UNL     1       2.790   5.155  17.825  0.00  0.00    +0.000 C 
ATOM     12  C   UNL     1       1.898   3.936  17.581  0.00  0.00    +0.000 C 
ATOM     13  C   UNL     1       1.946   2.974  18.763  0.00  0.00    +0.000 C 
ATOM     14  C   UNL     1       3.372   2.581  19.149  0.00  0.00    +0.000 C 
ATOM     15  C   UNL     1       4.309   3.786  19.289  0.00  0.00    +0.000 C 
ENDBRANCH   2  10
TORSDOF 2
ENDMDL
MODEL 9
REMARK VINA RESULT:      -6.9      1.845      2.671
REMARK  Name = 
REMARK  2 active torsions:
REMARK  status: ('A' for Active; 'I' for Inactive)
REMARK    1  A    between atoms: C_6  and  C_7
REMARK    2  A    between atoms: C_8  and  C_9
REMARK                            x       y       z     vdW  Elec       q    Type
REMARK                         _______ _______ _______ _____ _____    ______ ____
ROOT
ATOM      1  C   UNL     1       4.008   4.612  18.443  0.00  0.00    +0.000 C 
ATOM      2  C   UNL     1       2.840   3.971  18.259  0.00  0.00    +0.000 C 
ENDROOT
BRANCH   1   8
ATOM      3  O   UNL     1       7.703   6.850  16.665  0.00  0.00    +0.000 OA
ATOM      4  C   UNL     1       6.898   5.927  16.574  0.00  0.00    +0.000 C 
ATOM      5  C   UNL     1       7.040   4.910  15.517  0.00  0.00    +0.000 C 
ATOM      6  C   UNL     1       6.085   3.997  15.292  0.00  0.00    +0.000 C 
ATOM      7  C   UNL     1       4.877   3.913  16.172  0.00  0.00    +0.000 C 
ATOM      8  C   UNL     1       5.211   4.514  17.536  0.00  0.00    +0.000 C 
ATOM      9  O   UNL     1       5.832   5.808  17.397  0.00  0.00    +0.000 OA
ENDBRANCH   1   8
BRANCH   2  10
ATOM     10  C   UNL     1       1.561   4.353  18.973  0.00  0.00    +0.000 C 
ATOM     11  C   UNL     1       0.732   3.077  19.205  0.00  0.00    +0.000 C 
ATOM     12  C   UNL     1       1.394   2.139  20.216  0.00  0.00    +0.000 C 
ATOM     13  C   UNL     1       1.621   2.842  21.550  0.00  0.00    +0.000 C 
ATOM     14  C   UNL     1       2.378   4.162  21.403  0.00  0.00    +0.000 C 
ATOM     15  C   UNL     1       1.795   5.069  20.314  0.00  0.00    +0.000 C 
ENDBRANCH   2  10
TORSDOF 2
ENDMDL
