MODEL 1
REMARK VINA RESULT:      -7.2      0.000      0.000
REMARK  Name = 
REMARK  6 active torsions:
REMARK  status: ('A' for Active; 'I' for Inactive)
REMARK    1  A    between atoms: O_1  and  C_2
REMARK    2  A    between atoms: C_6  and  C_7
REMARK    3  A    between atoms: N_8  and  N_9
REMARK    4  A    between atoms: N_9  and  C_10
REMARK    5  A    between atoms: C_10  and  N_12
REMARK    6  A    between atoms: N_12  and  C_13
REMARK                            x       y       z     vdW  Elec       q    Type
REMARK                         _______ _______ _______ _____ _____    ______ ____
ROOT
ATOM      1  N   UNL     1       7.421   8.112  17.287  0.00  0.00    +0.000 N 
ATOM      2  H   UNL     1       6.902   8.553  16.538  0.00  0.00    +0.000 HD
ENDROOT
BRANCH   1   4
ATOM      3  C   UNL     1       8.659  10.010  17.658  0.00  0.00    +0.000 C 
ATOM      4  N   UNL     1       8.256   8.852  18.060  0.00  0.00    +0.000 NA
BRANCH   3   9
ATOM      5  C   UNL     1      10.108  11.644  20.727  0.00  0.00    +0.000 A 
ATOM      6  C   UNL     1      11.257  12.246  20.216  0.00  0.00    +0.000 A 
ATOM      7  C   UNL     1      11.545  12.128  18.858  0.00  0.00    +0.000 A 
ATOM      8  C   UNL     1      10.683  11.412  18.032  0.00  0.00    +0.000 A 
ATOM      9  C   UNL     1       9.532  10.802  18.558  0.00  0.00    +0.000 A 
ATOM     10  C   UNL     1       9.230  10.921  19.914  0.00  0.00    +0.000 A 
BRANCH   5  11
ATOM     11  O   UNL     1       9.805  11.740  22.053  0.00  0.00    +0.000 OA
ATOM     12  H   UNL     1       8.934  11.328  22.204  0.00  0.00    +0.000 HD
ENDBRANCH   5  11
ENDBRANCH   3   9
ENDBRANCH   1   4
BRANCH   1  13
ATOM     13  C   UNL     1       7.448   6.722  17.409  0.00  0.00    +0.000 C 
ATOM     14  S   UNL     1       7.680   5.921  18.872  0.00  0.00    +0.000 S 
BRANCH  13  15
ATOM     15  N   UNL     1       7.239   6.102  16.174  0.00  0.00    +0.000 N 
ATOM     16  H   UNL     1       7.902   6.429  15.482  0.00  0.00    +0.000 HD
BRANCH  15  17
ATOM     17  C   UNL     1       5.902   5.769  15.646  0.00  0.00    +0.000 C 
ATOM     18  C   UNL     1       5.622   4.257  15.694  0.00  0.00    +0.000 C 
ATOM     19  C   UNL     1       4.981   3.773  16.986  0.00  0.00    +0.000 C 
ATOM     20  C   UNL     1       3.710   4.560  17.267  0.00  0.00    +0.000 C 
ATOM     21  C   UNL     1       4.055   6.023  17.482  0.00  0.00    +0.000 C 
ATOM     22  C   UNL     1       4.799   6.634  16.298  0.00  0.00    +0.000 C 
ENDBRANCH  15  17
ENDBRANCH  13  15
ENDBRANCH   1  13
TORSDOF 6
ENDMDL
MODEL 2
REMARK VINA RESULT:      -7.2      1.750      2.495
REMARK  Name = 
REMARK  6 active torsions:
REMARK  status: ('A' for Active; 'I' for Inactive)
REMARK    1  A    between atoms: O_1  and  C_2
REMARK    2  A    between atoms: C_6  and  C_7
REMARK    3  A    between atoms: N_8  and  N_9
REMARK    4  A    between atoms: N_9  and  C_10
REMARK    5  A    between atoms: C_10  and  N_12
REMARK    6  A    between atoms: N_12  and  C_13
REMARK                            x       y       z     vdW  Elec       q    Type
REMARK                         _______ _______ _______ _____ _____    ______ ____
ROOT
ATOM      1  N   UNL     1       7.288   7.734  17.267  0.00  0.00    +0.000 N 
ATOM      2  H   UNL     1       6.938   7.894  16.330  0.00  0.00    +0.000 HD
ENDROOT
BRANCH   1   4
ATOM      3  C   UNL     1       8.132   9.740  18.001  0.00  0.00    +0.000 C 
ATOM      4  N   UNL     1       8.310   8.487  17.747  0.00  0.00    +0.000 NA
BRANCH   3   9
ATOM      5  C   UNL     1      11.304  11.745  18.324  0.00  0.00    +0.000 A 
ATOM      6  C   UNL     1      11.333  12.018  19.692  0.00  0.00    +0.000 A 
ATOM      7  C   UNL     1      10.317  11.526  20.508  0.00  0.00    +0.000 A 
ATOM      8  C   UNL     1       9.289  10.772  19.949  0.00  0.00    +0.000 A 
ATOM      9  C   UNL     1       9.265  10.509  18.569  0.00  0.00    +0.000 A 
ATOM     10  C   UNL     1      10.280  10.989  17.744  0.00  0.00    +0.000 A 
BRANCH   5  11
ATOM     11  O   UNL     1      12.283  12.218  17.501  0.00  0.00    +0.000 OA
ATOM     12  H   UNL     1      12.685  13.002  17.915  0.00  0.00    +0.000 HD
ENDBRANCH   5  11
ENDBRANCH   3   9
ENDBRANCH   1   4
BRANCH   1  13
ATOM     13  C   UNL     1       6.872   6.621  17.998  0.00  0.00    +0.000 C 
ATOM     14  S   UNL     1       7.877   5.769  19.046  0.00  0.00    +0.000 S 
BRANCH  13  15
ATOM     15  N   UNL     1       5.526   6.332  17.757  0.00  0.00    +0.000 N 
ATOM     16  H   UNL     1       5.026   7.151  17.434  0.00  0.00    +0.000 HD
BRANCH  15  17
ATOM     17  C   UNL     1       4.732   5.404  18.586  0.00  0.00    +0.000 C 
ATOM     18  C   UNL     1       3.372   6.005  18.984  0.00  0.00    +0.000 C 
ATOM     19  C   UNL     1       2.245   5.727  18.000  0.00  0.00    +0.000 C 
ATOM     20  C   UNL     1       2.118   4.231  17.759  0.00  0.00    +0.000 C 
ATOM     21  C   UNL     1       3.389   3.710  17.112  0.00  0.00    +0.000 C 
ATOM     22  C   UNL     1       4.636   4.002  17.942  0.00  0.00    +0.000 C 
ENDBRANCH  15  17
ENDBRANCH  13  15
ENDBRANCH   1  13
TORSDOF 6
ENDMDL
MODEL 3
REMARK VINA RESULT:      -7.2      5.754      7.307
REMARK  Name = 
REMARK  6 active torsions:
REMARK  status: ('A' for Active; 'I' for Inactive)
REMARK    1  A    between atoms: O_1  and  C_2
REMARK    2  A    between atoms: C_6  and  C_7
REMARK    3  A    between atoms: N_8  and  N_9
REMARK    4  A    between atoms: N_9  and  C_10
REMARK    5  A    between atoms: C_10  and  N_12
REMARK    6  A    between atoms: N_12  and  C_13
REMARK                            x       y       z     vdW  Elec       q    Type
REMARK                         _______ _______ _______ _____ _____    ______ ____
ROOT
ATOM      1  N   UNL     1       4.310   5.970  17.573  0.00  0.00    +0.000 N 
ATOM      2  H   UNL     1       3.358   6.309  17.510  0.00  0.00    +0.000 HD
ENDROOT
BRANCH   1   4
ATOM      3  C   UNL     1       5.057   4.682  15.825  0.00  0.00    +0.000 C 
ATOM      4  N   UNL     1       5.051   5.813  16.447  0.00  0.00    +0.000 NA
BRANCH   3   9
ATOM      5  C   UNL     1       7.735   5.147  13.218  0.00  0.00    +0.000 A 
ATOM      6  C   UNL     1       7.320   4.266  12.219  0.00  0.00    +0.000 A 
ATOM      7  C   UNL     1       6.148   3.533  12.399  0.00  0.00    +0.000 A 
ATOM      8  C   UNL     1       5.412   3.689  13.570  0.00  0.00    +0.000 A 
ATOM      9  C   UNL     1       5.843   4.573  14.572  0.00  0.00    +0.000 A 
ATOM     10  C   UNL     1       7.009   5.317  14.400  0.00  0.00    +0.000 A 
BRANCH   5  11
ATOM     11  O   UNL     1       8.880   5.873  13.070  0.00  0.00    +0.000 OA
ATOM     12  H   UNL     1       8.721   6.574  12.412  0.00  0.00    +0.000 HD
ENDBRANCH   5  11
ENDBRANCH   3   9
ENDBRANCH   1   4
BRANCH   1  13
ATOM     13  C   UNL     1       4.806   5.470  18.778  0.00  0.00    +0.000 C 
ATOM     14  S   UNL     1       6.448   5.374  19.140  0.00  0.00    +0.000 S 
BRANCH  13  15
ATOM     15  N   UNL     1       3.768   5.086  19.631  0.00  0.00    +0.000 N 
ATOM     16  H   UNL     1       3.692   5.713  20.423  0.00  0.00    +0.000 HD
BRANCH  15  17
ATOM     17  C   UNL     1       3.427   3.679  19.916  0.00  0.00    +0.000 C 
ATOM     18  C   UNL     1       2.134   3.554  20.743  0.00  0.00    +0.000 C 
ATOM     19  C   UNL     1       0.862   3.455  19.915  0.00  0.00    +0.000 C 
ATOM     20  C   UNL     1       0.972   2.311  18.919  0.00  0.00    +0.000 C 
ATOM     21  C   UNL     1       2.098   2.595  17.940  0.00  0.00    +0.000 C 
ATOM     22  C   UNL     1       3.439   2.818  18.633  0.00  0.00    +0.000 C 
ENDBRANCH  15  17
ENDBRANCH  13  15
ENDBRANCH   1  13
TORSDOF 6
ENDMDL
MODEL 4
REMARK VINA RESULT:      -7.1      5.293      7.944
REMARK  Name = 
REMARK  6 active torsions:
REMARK  status: ('A' for Active; 'I' for Inactive)
REMARK    1  A    between atoms: O_1  and  C_2
REMARK    2  A    between atoms: C_6  and  C_7
REMARK    3  A    between atoms: N_8  and  N_9
REMARK    4  A    between atoms: N_9  and  C_10
REMARK    5  A    between atoms: C_10  and  N_12
REMARK    6  A    between atoms: N_12  and  C_13
REMARK                            x       y       z     vdW  Elec       q    Type
REMARK                         _______ _______ _______ _____ _____    ______ ____
ROOT
ATOM      1  N   UNL     1       4.658   6.542  16.831  0.00  0.00    +0.000 N 
ATOM      2  H   UNL     1       4.140   7.381  16.600  0.00  0.00    +0.000 HD
ENDROOT
BRANCH   1   4
ATOM      3  C   UNL     1       2.843   5.663  17.930  0.00  0.00    +0.000 C 
ATOM      4  N   UNL     1       4.095   5.594  17.623  0.00  0.00    +0.000 NA
BRANCH   3   9
ATOM      5  C   UNL     1       1.956   3.469  20.860  0.00  0.00    +0.000 A 
ATOM      6  C   UNL     1       1.074   2.557  20.279  0.00  0.00    +0.000 A 
ATOM      7  C   UNL     1       0.786   2.656  18.919  0.00  0.00    +0.000 A 
ATOM      8  C   UNL     1       1.381   3.661  18.162  0.00  0.00    +0.000 A 
ATOM      9  C   UNL     1       2.262   4.579  18.758  0.00  0.00    +0.000 A 
ATOM     10  C   UNL     1       2.563   4.485  20.115  0.00  0.00    +0.000 A 
BRANCH   5  11
ATOM     11  O   UNL     1       2.251   3.398  22.189  0.00  0.00    +0.000 OA
ATOM     12  H   UNL     1       1.728   2.678  22.586  0.00  0.00    +0.000 HD
ENDBRANCH   5  11
ENDBRANCH   3   9
ENDBRANCH   1   4
BRANCH   1  13
ATOM     13  C   UNL     1       6.013   6.435  16.515  0.00  0.00    +0.000 C 
ATOM     14  S   UNL     1       7.250   6.677  17.631  0.00  0.00    +0.000 S 
BRANCH  13  15
ATOM     15  N   UNL     1       6.193   6.087  15.173  0.00  0.00    +0.000 N 
ATOM     16  H   UNL     1       5.366   6.293  14.626  0.00  0.00    +0.000 HD
BRANCH  15  17
ATOM     17  C   UNL     1       6.948   4.897  14.736  0.00  0.00    +0.000 C 
ATOM     18  C   UNL     1       6.043   3.661  14.586  0.00  0.00    +0.000 C 
ATOM     19  C   UNL     1       5.426   3.493  13.205  0.00  0.00    +0.000 C 
ATOM     20  C   UNL     1       6.513   3.491  12.142  0.00  0.00    +0.000 C 
ATOM     21  C   UNL     1       7.220   4.835  12.134  0.00  0.00    +0.000 C 
ATOM     22  C   UNL     1       7.815   5.196  13.492  0.00  0.00    +0.000 C 
ENDBRANCH  15  17
ENDBRANCH  13  15
ENDBRANCH   1  13
TORSDOF 6
ENDMDL
MODEL 5
REMARK VINA RESULT:      -7.1      5.468      7.996
REMARK  Name = 
REMARK  6 active torsions:
REMARK  status: ('A' for Active; 'I' for Inactive)
REMARK    1  A    between atoms: O_1  and  C_2
REMARK    2  A    between atoms: C_6  and  C_7
REMARK    3  A    between atoms: N_8  and  N_9
REMARK    4  A    between atoms: N_9  and  C_10
REMARK    5  A    between atoms: C_10  and  N_12
REMARK    6  A    between atoms: N_12  and  C_13
REMARK                            x       y       z     vdW  Elec       q    Type
REMARK                         _______ _______ _______ _____ _____    ______ ____
ROOT
ATOM      1  N   UNL     1       5.053   6.959  17.203  0.00  0.00    +0.000 N 
ATOM      2  H   UNL     1       4.887   7.917  16.919  0.00  0.00    +0.000 HD
ENDROOT
BRANCH   1   4
ATOM      3  C   UNL     1       3.443   5.350  17.512  0.00  0.00    +0.000 C 
ATOM      4  N   UNL     1       4.151   6.319  17.989  0.00  0.00    +0.000 NA
BRANCH   3   9
ATOM      5  C   UNL     1       0.958   2.883  18.899  0.00  0.00    +0.000 A 
ATOM      6  C   UNL     1       0.810   3.332  20.211  0.00  0.00    +0.000 A 
ATOM      7  C   UNL     1       1.516   4.456  20.633  0.00  0.00    +0.000 A 
ATOM      8  C   UNL     1       2.357   5.115  19.739  0.00  0.00    +0.000 A 
ATOM      9  C   UNL     1       2.505   4.650  18.422  0.00  0.00    +0.000 A 
ATOM     10  C   UNL     1       1.797   3.531  17.988  0.00  0.00    +0.000 A 
BRANCH   5  11
ATOM     11  O   UNL     1       0.282   1.782  18.461  0.00  0.00    +0.000 OA
ATOM     12  H   UNL     1       0.881   1.251  17.905  0.00  0.00    +0.000 HD
ENDBRANCH   5  11
ENDBRANCH   3   9
ENDBRANCH   1   4
BRANCH   1  13
ATOM     13  C   UNL     1       6.287   6.353  16.967  0.00  0.00    +0.000 C 
ATOM     14  S   UNL     1       7.378   5.958  18.188  0.00  0.00    +0.000 S 
BRANCH  13  15
ATOM     15  N   UNL     1       6.478   6.108  15.604  0.00  0.00    +0.000 N 
ATOM     16  H   UNL     1       5.717   6.484  15.053  0.00  0.00    +0.000 HD
BRANCH  15  17
ATOM     17  C   UNL     1       7.074   4.865  15.076  0.00  0.00    +0.000 C 
ATOM     18  C   UNL     1       6.024   3.755  14.890  0.00  0.00    +0.000 C 
ATOM     19  C   UNL     1       5.352   3.743  13.525  0.00  0.00    +0.000 C 
ATOM     20  C   UNL     1       6.401   3.674  12.426  0.00  0.00    +0.000 C 
ATOM     21  C   UNL     1       7.263   4.925  12.467  0.00  0.00    +0.000 C 
ATOM     22  C   UNL     1       7.935   5.133  13.821  0.00  0.00    +0.000 C 
ENDBRANCH  15  17
ENDBRANCH  13  15
ENDBRANCH   1  13
TORSDOF 6
ENDMDL
MODEL 6
REMARK VINA RESULT:      -7.0      1.206      1.633
REMARK  Name = 
REMARK  6 active torsions:
REMARK  status: ('A' for Active; 'I' for Inactive)
REMARK    1  A    between atoms: O_1  and  C_2
REMARK    2  A    between atoms: C_6  and  C_7
REMARK    3  A    between atoms: N_8  and  N_9
REMARK    4  A    between atoms: N_9  and  C_10
REMARK    5  A    between atoms: C_10  and  N_12
REMARK    6  A    between atoms: N_12  and  C_13
REMARK                            x       y       z     vdW  Elec       q    Type
REMARK                         _______ _______ _______ _____ _____    ______ ____
ROOT
ATOM      1  N   UNL     1       7.387   7.897  17.314  0.00  0.00    +0.000 N 
ATOM      2  H   UNL     1       6.863   8.313  16.553  0.00  0.00    +0.000 HD
ENDROOT
BRANCH   1   4
ATOM      3  C   UNL     1       8.467   9.885  17.709  0.00  0.00    +0.000 C 
ATOM      4  N   UNL     1       8.313   8.632  17.981  0.00  0.00    +0.000 NA
BRANCH   3   9
ATOM      5  C   UNL     1      11.351  12.119  18.647  0.00  0.00    +0.000 A 
ATOM      6  C   UNL     1      11.246  12.155  20.037  0.00  0.00    +0.000 A 
ATOM      7  C   UNL     1      10.236  11.429  20.666  0.00  0.00    +0.000 A 
ATOM      8  C   UNL     1       9.348  10.681  19.898  0.00  0.00    +0.000 A 
ATOM      9  C   UNL     1       9.457  10.658  18.498  0.00  0.00    +0.000 A 
ATOM     10  C   UNL     1      10.468  11.373  17.860  0.00  0.00    +0.000 A 
BRANCH   5  11
ATOM     11  O   UNL     1      12.326  12.824  18.006  0.00  0.00    +0.000 OA
ATOM     12  H   UNL     1      12.020  13.741  17.886  0.00  0.00    +0.000 HD
ENDBRANCH   5  11
ENDBRANCH   3   9
ENDBRANCH   1   4
BRANCH   1  13
ATOM     13  C   UNL     1       7.318   6.525  17.555  0.00  0.00    +0.000 C 
ATOM     14  S   UNL     1       7.737   5.817  19.024  0.00  0.00    +0.000 S 
BRANCH  13  15
ATOM     15  N   UNL     1       6.844   5.838  16.434  0.00  0.00    +0.000 N 
ATOM     16  H   UNL     1       7.513   5.867  15.675  0.00  0.00    +0.000 HD
BRANCH  15  17
ATOM     17  C   UNL     1       5.428   5.842  16.016  0.00  0.00    +0.000 C 
ATOM     18  C   UNL     1       4.939   4.437  15.622  0.00  0.00    +0.000 C 
ATOM     19  C   UNL     1       4.359   3.624  16.771  0.00  0.00    +0.000 C 
ATOM     20  C   UNL     1       3.248   4.404  17.456  0.00  0.00    +0.000 C 
ATOM     21  C   UNL     1       3.820   5.669  18.072  0.00  0.00    +0.000 C 
ATOM     22  C   UNL     1       4.529   6.554  17.051  0.00  0.00    +0.000 C 
ENDBRANCH  15  17
ENDBRANCH  13  15
ENDBRANCH   1  13
TORSDOF 6
ENDMDL
MODEL 7
REMARK VINA RESULT:      -6.9      6.230      7.607
REMARK  Name = 
REMARK  6 active torsions:
REMARK  status: ('A' for Active; 'I' for Inactive)
REMARK    1  A    between atoms: O_1  and  C_2
REMARK    2  A    between atoms: C_6  and  C_7
REMARK    3  A    between atoms: N_8  and  N_9
REMARK    4  A    between atoms: N_9  and  C_10
REMARK    5  A    between atoms: C_10  and  N_12
REMARK    6  A    between atoms: N_12  and  C_13
REMARK                            x       y       z     vdW  Elec       q    Type
REMARK                         _______ _______ _______ _____ _____    ______ ____
ROOT
ATOM      1  N   UNL     1       5.098   4.104  17.903  0.00  0.00    +0.000 N 
ATOM      2  H   UNL     1       5.608   3.940  18.762  0.00  0.00    +0.000 HD
ENDROOT
BRANCH   1   4
ATOM      3  C   UNL     1       5.280   3.851  15.628  0.00  0.00    +0.000 C 
ATOM      4  N   UNL     1       5.772   4.287  16.739  0.00  0.00    +0.000 NA
BRANCH   3   9
ATOM      5  C   UNL     1       7.807   5.183  13.172  0.00  0.00    +0.000 A 
ATOM      6  C   UNL     1       7.448   4.517  12.001  0.00  0.00    +0.000 A 
ATOM      7  C   UNL     1       6.362   3.643  12.016  0.00  0.00    +0.000 A 
ATOM      8  C   UNL     1       5.654   3.448  13.199  0.00  0.00    +0.000 A 
ATOM      9  C   UNL     1       6.030   4.117  14.376  0.00  0.00    +0.000 A 
ATOM     10  C   UNL     1       7.109   4.999  14.369  0.00  0.00    +0.000 A 
BRANCH   5  11
ATOM     11  O   UNL     1       8.868   6.039  13.186  0.00  0.00    +0.000 OA
ATOM     12  H   UNL     1       8.533   6.947  13.300  0.00  0.00    +0.000 HD
ENDBRANCH   5  11
ENDBRANCH   3   9
ENDBRANCH   1   4
BRANCH   1  13
ATOM     13  C   UNL     1       3.724   4.344  17.928  0.00  0.00    +0.000 C 
ATOM     14  S   UNL     1       3.047   5.828  18.348  0.00  0.00    +0.000 S 
BRANCH  13  15
ATOM     15  N   UNL     1       3.004   3.208  17.546  0.00  0.00    +0.000 N 
ATOM     16  H   UNL     1       2.430   3.393  16.733  0.00  0.00    +0.000 HD
BRANCH  15  17
ATOM     17  C   UNL     1       2.431   2.247  18.508  0.00  0.00    +0.000 C 
ATOM     18  C   UNL     1       3.304   2.098  19.766  0.00  0.00    +0.000 C 
ATOM     19  C   UNL     1       2.967   3.070  20.888  0.00  0.00    +0.000 C 
ATOM     20  C   UNL     1       1.492   2.966  21.245  0.00  0.00    +0.000 C 
ATOM     21  C   UNL     1       0.649   3.381  20.052  0.00  0.00    +0.000 C 
ATOM     22  C   UNL     1       0.945   2.553  18.804  0.00  0.00    +0.000 C 
ENDBRANCH  15  17
ENDBRANCH  13  15
ENDBRANCH   1  13
TORSDOF 6
ENDMDL
MODEL 8
REMARK VINA RESULT:      -6.9      6.669      7.832
REMARK  Name = 
REMARK  6 active torsions:
REMARK  status: ('A' for Active; 'I' for Inactive)
REMARK    1  A    between atoms: O_1  and  C_2
REMARK    2  A    between atoms: C_6  and  C_7
REMARK    3  A    between atoms: N_8  and  N_9
REMARK    4  A    between atoms: N_9  and  C_10
REMARK    5  A    between atoms: C_10  and  N_12
REMARK    6  A    between atoms: N_12  and  C_13
REMARK                            x       y       z     vdW  Elec       q    Type
REMARK                         _______ _______ _______ _____ _____    ______ ____
ROOT
ATOM      1  N   UNL     1       5.371   3.955  17.973  0.00  0.00    +0.000 N 
ATOM      2  H   UNL     1       5.694   4.767  18.486  0.00  0.00    +0.000 HD
ENDROOT
BRANCH   1   4
ATOM      3  C   UNL     1       5.688   4.720  15.832  0.00  0.00    +0.000 C 
ATOM      4  N   UNL     1       5.770   3.760  16.691  0.00  0.00    +0.000 NA
BRANCH   3   9
ATOM      5  C   UNL     1       6.036   3.368  12.333  0.00  0.00    +0.000 A 
ATOM      6  C   UNL     1       7.111   4.110  11.844  0.00  0.00    +0.000 A 
ATOM      7  C   UNL     1       7.730   5.043  12.673  0.00  0.00    +0.000 A 
ATOM      8  C   UNL     1       7.269   5.221  13.974  0.00  0.00    +0.000 A 
ATOM      9  C   UNL     1       6.181   4.473  14.454  0.00  0.00    +0.000 A 
ATOM     10  C   UNL     1       5.559   3.532  13.637  0.00  0.00    +0.000 A 
BRANCH   5  11
ATOM     11  O   UNL     1       5.408   2.451  11.542  0.00  0.00    +0.000 OA
ATOM     12  H   UNL     1       5.946   1.639  11.520  0.00  0.00    +0.000 HD
ENDBRANCH   5  11
ENDBRANCH   3   9
ENDBRANCH   1   4
BRANCH   1  13
ATOM     13  C   UNL     1       4.365   3.142  18.495  0.00  0.00    +0.000 C 
ATOM     14  S   UNL     1       4.455   2.406  20.007  0.00  0.00    +0.000 S 
BRANCH  13  15
ATOM     15  N   UNL     1       3.286   3.043  17.612  0.00  0.00    +0.000 N 
ATOM     16  H   UNL     1       3.601   2.992  16.651  0.00  0.00    +0.000 HD
BRANCH  15  17
ATOM     17  C   UNL     1       2.005   3.748  17.810  0.00  0.00    +0.000 C 
ATOM     18  C   UNL     1       0.964   2.865  18.522  0.00  0.00    +0.000 C 
ATOM     19  C   UNL     1       0.988   2.959  20.041  0.00  0.00    +0.000 C 
ATOM     20  C   UNL     1       0.847   4.408  20.478  0.00  0.00    +0.000 C 
ATOM     21  C   UNL     1       2.039   5.208  19.981  0.00  0.00    +0.000 C 
ATOM     22  C   UNL     1       2.210   5.132  18.467  0.00  0.00    +0.000 C 
ENDBRANCH  15  17
ENDBRANCH  13  15
ENDBRANCH   1  13
TORSDOF 6
ENDMDL
MODEL 9
REMARK VINA RESULT:      -6.9      6.255      7.635
REMARK  Name = 
REMARK  6 active torsions:
REMARK  status: ('A' for Active; 'I' for Inactive)
REMARK    1  A    between atoms: O_1  and  C_2
REMARK    2  A    between atoms: C_6  and  C_7
REMARK    3  A    between atoms: N_8  and  N_9
REMARK    4  A    between atoms: N_9  and  C_10
REMARK    5  A    between atoms: C_10  and  N_12
REMARK    6  A    between atoms: N_12  and  C_13
REMARK                            x       y       z     vdW  Elec       q    Type
REMARK                         _______ _______ _______ _____ _____    ______ ____
ROOT
ATOM      1  N   UNL     1       5.204   6.109  17.562  0.00  0.00    +0.000 N 
ATOM      2  H   UNL     1       5.937   6.367  18.212  0.00  0.00    +0.000 HD
ENDROOT
BRANCH   1   4
ATOM      3  C   UNL     1       6.373   4.936  15.970  0.00  0.00    +0.000 C 
ATOM      4  N   UNL     1       5.509   5.849  16.265  0.00  0.00    +0.000 NA
BRANCH   3   9
ATOM      5  C   UNL     1       6.169   3.483  12.501  0.00  0.00    +0.000 A 
ATOM      6  C   UNL     1       7.132   4.228  11.821  0.00  0.00    +0.000 A 
ATOM      7  C   UNL     1       7.859   5.196  12.510  0.00  0.00    +0.000 A 
ATOM      8  C   UNL     1       7.615   5.406  13.864  0.00  0.00    +0.000 A 
ATOM      9  C   UNL     1       6.637   4.656  14.538  0.00  0.00    +0.000 A 
ATOM     10  C   UNL     1       5.909   3.679  13.861  0.00  0.00    +0.000 A 
BRANCH   5  11
ATOM     11  O   UNL     1       5.439   2.533  11.851  0.00  0.00    +0.000 OA
ATOM     12  H   UNL     1       6.009   1.760  11.688  0.00  0.00    +0.000 HD
ENDBRANCH   5  11
ENDBRANCH   3   9
ENDBRANCH   1   4
BRANCH   1  13
ATOM     13  C   UNL     1       3.862   6.212  17.929  0.00  0.00    +0.000 C 
ATOM     14  S   UNL     1       2.968   7.633  17.796  0.00  0.00    +0.000 S 
BRANCH  13  15
ATOM     15  N   UNL     1       3.370   4.990  18.396  0.00  0.00    +0.000 N 
ATOM     16  H   UNL     1       3.693   4.220  17.822  0.00  0.00    +0.000 HD
BRANCH  15  17
ATOM     17  C   UNL     1       2.018   4.820  18.961  0.00  0.00    +0.000 C 
ATOM     18  C   UNL     1       1.387   3.476  18.556  0.00  0.00    +0.000 C 
ATOM     19  C   UNL     1       1.681   2.326  19.509  0.00  0.00    +0.000 C 
ATOM     20  C   UNL     1       1.273   2.702  20.924  0.00  0.00    +0.000 C 
ATOM     21  C   UNL     1       2.109   3.877  21.401  0.00  0.00    +0.000 C 
ATOM     22  C   UNL     1       1.997   5.091  20.483  0.00  0.00    +0.000 C 
ENDBRANCH  15  17
ENDBRANCH  13  15
ENDBRANCH   1  13
TORSDOF 6
ENDMDL
