MODEL 1
REMARK VINA RESULT:      -7.2      0.000      0.000
REMARK  Name = 
REMARK  6 active torsions:
REMARK  status: ('A' for Active; 'I' for Inactive)
REMARK    1  A    between atoms: C_2  and  C_3
REMARK    2  A    between atoms: C_6  and  C_7
REMARK    3  A    between atoms: C_8  and  C_9
REMARK    4  A    between atoms: N_19  and  C_20
REMARK    5  A    between atoms: C_22  and  C_23
REMARK    6  A    between atoms: C_23  and  O_25
REMARK                            x       y       z     vdW  Elec       q    Type
REMARK                         _______ _______ _______ _____ _____    ______ ____
ROOT
ATOM      1  C   UNL     1      -4.346  13.843  22.963  0.00  0.00    +0.000 A 
ATOM      2  N   UNL     1      -3.906  14.695  23.836  0.00  0.00    +0.000 NA
ATOM      3  C   UNL     1      -4.623  15.873  24.046  0.00  0.00    +0.000 A 
ATOM      4  C   UNL     1      -4.143  16.779  24.994  0.00  0.00    +0.000 A 
ATOM      5  C   UNL     1      -4.842  17.954  25.271  0.00  0.00    +0.000 A 
ATOM      6  C   UNL     1      -6.025  18.239  24.588  0.00  0.00    +0.000 A 
ATOM      7  C   UNL     1      -6.501  17.351  23.622  0.00  0.00    +0.000 A 
ATOM      8  C   UNL     1      -5.799  16.168  23.361  0.00  0.00    +0.000 A 
ATOM      9  C   UNL     1      -6.300  15.173  22.390  0.00  0.00    +0.000 A 
ATOM     10  O   UNL     1      -7.390  15.364  21.849  0.00  0.00    +0.000 OA
ATOM     11  N   UNL     1      -5.507  14.033  22.216  0.00  0.00    +0.000 N 
ENDROOT
BRANCH  11  12
ATOM     12  C   UNL     1      -5.985  13.024  21.314  0.00  0.00    +0.000 A 
ATOM     13  C   UNL     1      -5.608  13.101  19.958  0.00  0.00    +0.000 A 
ATOM     14  C   UNL     1      -6.212  12.270  19.008  0.00  0.00    +0.000 A 
ATOM     15  C   UNL     1      -7.157  11.324  19.420  0.00  0.00    +0.000 A 
ATOM     16  C   UNL     1      -7.495  11.204  20.771  0.00  0.00    +0.000 A 
ATOM     17  C   UNL     1      -6.921  12.055  21.719  0.00  0.00    +0.000 A 
ATOM     18 CL   UNL     1      -7.548  11.985  23.328  0.00  0.00    +0.000 Cl
BRANCH  14  19
ATOM     19  C   UNL     1      -6.003  12.462  17.550  0.00  0.00    +0.000 C 
ATOM     20  O   UNL     1      -6.310  13.497  16.984  0.00  0.00    +0.000 OA
BRANCH  19  21
ATOM     21  O   UNL     1      -5.435  11.418  16.914  0.00  0.00    +0.000 OA
ATOM     22  H   UNL     1      -4.485  11.497  16.716  0.00  0.00    +0.000 HD
ENDBRANCH  19  21
ENDBRANCH  14  19
ENDBRANCH  11  12
BRANCH   1  24
ATOM     23  C   UNL     1      -2.200  12.715  22.524  0.00  0.00    +0.000 C 
ATOM     24  C   UNL     1      -3.529  12.622  22.689  0.00  0.00    +0.000 C 
BRANCH  23  28
ATOM     25  C   UNL     1       0.211   9.318  21.508  0.00  0.00    +0.000 A 
ATOM     26  C   UNL     1      -0.278   9.456  22.808  0.00  0.00    +0.000 A 
ATOM     27  C   UNL     1      -1.048  10.571  23.153  0.00  0.00    +0.000 A 
ATOM     28  C   UNL     1      -1.332  11.570  22.212  0.00  0.00    +0.000 A 
ATOM     29  C   UNL     1      -0.831  11.427  20.910  0.00  0.00    +0.000 A 
ATOM     30  C   UNL     1      -0.061  10.311  20.561  0.00  0.00    +0.000 A 
BRANCH  25  32
ATOM     31  N   UNL     1       1.563   7.202  20.859  0.00  0.00    +0.000 NA
ATOM     32  C   UNL     1       0.962   8.154  21.144  0.00  0.00    +0.000 C 
ENDBRANCH  25  32
ENDBRANCH  23  28
ENDBRANCH   1  24
TORSDOF 6
ENDMDL
MODEL 2
REMARK VINA RESULT:      -7.0      0.376      1.038
REMARK  Name = 
REMARK  6 active torsions:
REMARK  status: ('A' for Active; 'I' for Inactive)
REMARK    1  A    between atoms: C_2  and  C_3
REMARK    2  A    between atoms: C_6  and  C_7
REMARK    3  A    between atoms: C_8  and  C_9
REMARK    4  A    between atoms: N_19  and  C_20
REMARK    5  A    between atoms: C_22  and  C_23
REMARK    6  A    between atoms: C_23  and  O_25
REMARK                            x       y       z     vdW  Elec       q    Type
REMARK                         _______ _______ _______ _____ _____    ______ ____
ROOT
ATOM      1  C   UNL     1      -4.197  13.712  22.947  0.00  0.00    +0.000 A 
ATOM      2  N   UNL     1      -3.691  14.545  23.802  0.00  0.00    +0.000 NA
ATOM      3  C   UNL     1      -4.355  15.749  24.041  0.00  0.00    +0.000 A 
ATOM      4  C   UNL     1      -3.805  16.634  24.969  0.00  0.00    +0.000 A 
ATOM      5  C   UNL     1      -4.448  17.834  25.275  0.00  0.00    +0.000 A 
ATOM      6  C   UNL     1      -5.645  18.164  24.639  0.00  0.00    +0.000 A 
ATOM      7  C   UNL     1      -6.192  17.296  23.692  0.00  0.00    +0.000 A 
ATOM      8  C   UNL     1      -5.546  16.088  23.403  0.00  0.00    +0.000 A 
ATOM      9  C   UNL     1      -6.121  15.114  22.453  0.00  0.00    +0.000 A 
ATOM     10  O   UNL     1      -7.224  15.346  21.956  0.00  0.00    +0.000 OA
ATOM     11  N   UNL     1      -5.379  13.946  22.247  0.00  0.00    +0.000 N 
ENDROOT
BRANCH  11  12
ATOM     12  C   UNL     1      -5.930  12.957  21.364  0.00  0.00    +0.000 A 
ATOM     13  C   UNL     1      -5.486  12.927  20.027  0.00  0.00    +0.000 A 
ATOM     14  C   UNL     1      -6.139  12.128  19.082  0.00  0.00    +0.000 A 
ATOM     15  C   UNL     1      -7.205  11.315  19.486  0.00  0.00    +0.000 A 
ATOM     16  C   UNL     1      -7.613  11.296  20.822  0.00  0.00    +0.000 A 
ATOM     17  C   UNL     1      -6.989  12.120  21.762  0.00  0.00    +0.000 A 
ATOM     18 CL   UNL     1      -7.690  12.196  23.340  0.00  0.00    +0.000 Cl
BRANCH  14  19
ATOM     19  C   UNL     1      -5.845  12.226  17.630  0.00  0.00    +0.000 C 
ATOM     20  O   UNL     1      -4.737  11.990  17.178  0.00  0.00    +0.000 OA
BRANCH  19  21
ATOM     21  O   UNL     1      -6.893  12.575  16.858  0.00  0.00    +0.000 OA
ATOM     22  H   UNL     1      -7.700  12.854  17.327  0.00  0.00    +0.000 HD
ENDBRANCH  19  21
ENDBRANCH  14  19
ENDBRANCH  11  12
BRANCH   1  24
ATOM     23  C   UNL     1      -2.137  12.518  22.313  0.00  0.00    +0.000 C 
ATOM     24  C   UNL     1      -3.437  12.462  22.640  0.00  0.00    +0.000 C 
BRANCH  23  28
ATOM     25  C   UNL     1       0.350   9.159  21.360  0.00  0.00    +0.000 A 
ATOM     26  C   UNL     1      -0.124   9.980  20.336  0.00  0.00    +0.000 A 
ATOM     27  C   UNL     1      -0.953  11.066  20.637  0.00  0.00    +0.000 A 
ATOM     28  C   UNL     1      -1.329  11.341  21.958  0.00  0.00    +0.000 A 
ATOM     29  C   UNL     1      -0.854  10.507  22.979  0.00  0.00    +0.000 A 
ATOM     30  C   UNL     1      -0.023   9.420  22.683  0.00  0.00    +0.000 A 
BRANCH  25  32
ATOM     31  N   UNL     1       1.939   7.187  20.800  0.00  0.00    +0.000 NA
ATOM     32  C   UNL     1       1.234   8.072  21.057  0.00  0.00    +0.000 C 
ENDBRANCH  25  32
ENDBRANCH  23  28
ENDBRANCH   1  24
TORSDOF 6
ENDMDL
MODEL 3
REMARK VINA RESULT:      -7.0      4.420      9.279
REMARK  Name = 
REMARK  6 active torsions:
REMARK  status: ('A' for Active; 'I' for Inactive)
REMARK    1  A    between atoms: C_2  and  C_3
REMARK    2  A    between atoms: C_6  and  C_7
REMARK    3  A    between atoms: C_8  and  C_9
REMARK    4  A    between atoms: N_19  and  C_20
REMARK    5  A    between atoms: C_22  and  C_23
REMARK    6  A    between atoms: C_23  and  O_25
REMARK                            x       y       z     vdW  Elec       q    Type
REMARK                         _______ _______ _______ _____ _____    ______ ____
ROOT
ATOM      1  C   UNL     1       1.011   9.868  20.697  0.00  0.00    +0.000 A 
ATOM      2  N   UNL     1       1.204   8.697  21.221  0.00  0.00    +0.000 NA
ATOM      3  C   UNL     1       1.615   7.651  20.396  0.00  0.00    +0.000 A 
ATOM      4  C   UNL     1       1.827   6.397  20.974  0.00  0.00    +0.000 A 
ATOM      5  C   UNL     1       2.276   5.326  20.201  0.00  0.00    +0.000 A 
ATOM      6  C   UNL     1       2.503   5.498  18.836  0.00  0.00    +0.000 A 
ATOM      7  C   UNL     1       2.272   6.741  18.243  0.00  0.00    +0.000 A 
ATOM      8  C   UNL     1       1.835   7.814  19.030  0.00  0.00    +0.000 A 
ATOM      9  C   UNL     1       1.637   9.161  18.456  0.00  0.00    +0.000 A 
ATOM     10  O   UNL     1       1.924   9.353  17.274  0.00  0.00    +0.000 OA
ATOM     11  N   UNL     1       1.195  10.147  19.345  0.00  0.00    +0.000 N 
ENDROOT
BRANCH  11  12
ATOM     12  C   UNL     1       1.034  11.479  18.831  0.00  0.00    +0.000 A 
ATOM     13  C   UNL     1       2.159  12.327  18.800  0.00  0.00    +0.000 A 
ATOM     14  C   UNL     1       2.010  13.688  18.508  0.00  0.00    +0.000 A 
ATOM     15  C   UNL     1       0.743  14.191  18.193  0.00  0.00    +0.000 A 
ATOM     16  C   UNL     1      -0.368  13.344  18.166  0.00  0.00    +0.000 A 
ATOM     17  C   UNL     1      -0.231  11.992  18.493  0.00  0.00    +0.000 A 
ATOM     18 CL   UNL     1      -1.681  11.063  18.643  0.00  0.00    +0.000 Cl
BRANCH  14  19
ATOM     19  C   UNL     1       3.126  14.654  18.673  0.00  0.00    +0.000 C 
ATOM     20  O   UNL     1       3.105  15.526  19.525  0.00  0.00    +0.000 OA
BRANCH  19  21
ATOM     21  O   UNL     1       4.160  14.480  17.827  0.00  0.00    +0.000 OA
ATOM     22  H   UNL     1       4.106  14.949  16.975  0.00  0.00    +0.000 HD
ENDBRANCH  19  21
ENDBRANCH  14  19
ENDBRANCH  11  12
BRANCH   1  24
ATOM     23  C   UNL     1      -0.818  11.068  21.830  0.00  0.00    +0.000 C 
ATOM     24  C   UNL     1       0.495  10.962  21.575  0.00  0.00    +0.000 C 
BRANCH  23  28
ATOM     25  C   UNL     1      -2.658  14.210  24.093  0.00  0.00    +0.000 A 
ATOM     26  C   UNL     1      -1.360  14.376  23.609  0.00  0.00    +0.000 A 
ATOM     27  C   UNL     1      -0.745  13.347  22.888  0.00  0.00    +0.000 A 
ATOM     28  C   UNL     1      -1.410  12.137  22.649  0.00  0.00    +0.000 A 
ATOM     29  C   UNL     1      -2.711  11.977  23.144  0.00  0.00    +0.000 A 
ATOM     30  C   UNL     1      -3.331  13.005  23.866  0.00  0.00    +0.000 A 
BRANCH  25  32
ATOM     31  N   UNL     1      -3.821  16.157  25.352  0.00  0.00    +0.000 NA
ATOM     32  C   UNL     1      -3.305  15.280  24.794  0.00  0.00    +0.000 C 
ENDBRANCH  25  32
ENDBRANCH  23  28
ENDBRANCH   1  24
TORSDOF 6
ENDMDL
MODEL 4
REMARK VINA RESULT:      -6.9      4.965      7.191
REMARK  Name = 
REMARK  6 active torsions:
REMARK  status: ('A' for Active; 'I' for Inactive)
REMARK    1  A    between atoms: C_2  and  C_3
REMARK    2  A    between atoms: C_6  and  C_7
REMARK    3  A    between atoms: C_8  and  C_9
REMARK    4  A    between atoms: N_19  and  C_20
REMARK    5  A    between atoms: C_22  and  C_23
REMARK    6  A    between atoms: C_23  and  O_25
REMARK                            x       y       z     vdW  Elec       q    Type
REMARK                         _______ _______ _______ _____ _____    ______ ____
ROOT
ATOM      1  C   UNL     1      -0.033  11.752  21.583  0.00  0.00    +0.000 A 
ATOM      2  N   UNL     1      -1.045  11.382  22.303  0.00  0.00    +0.000 NA
ATOM      3  C   UNL     1      -1.883  12.360  22.839  0.00  0.00    +0.000 A 
ATOM      4  C   UNL     1      -2.974  11.947  23.606  0.00  0.00    +0.000 A 
ATOM      5  C   UNL     1      -3.865  12.882  24.134  0.00  0.00    +0.000 A 
ATOM      6  C   UNL     1      -3.662  14.243  23.908  0.00  0.00    +0.000 A 
ATOM      7  C   UNL     1      -2.561  14.668  23.162  0.00  0.00    +0.000 A 
ATOM      8  C   UNL     1      -1.680  13.720  22.626  0.00  0.00    +0.000 A 
ATOM      9  C   UNL     1      -0.537  14.123  21.780  0.00  0.00    +0.000 A 
ATOM     10  O   UNL     1      -0.398  15.312  21.492  0.00  0.00    +0.000 OA
ATOM     11  N   UNL     1       0.271  13.083  21.306  0.00  0.00    +0.000 N 
ENDROOT
BRANCH  11  12
ATOM     12  C   UNL     1       1.365  13.434  20.444  0.00  0.00    +0.000 A 
ATOM     13  C   UNL     1       2.588  13.813  21.031  0.00  0.00    +0.000 A 
ATOM     14  C   UNL     1       3.610  14.361  20.247  0.00  0.00    +0.000 A 
ATOM     15  C   UNL     1       3.428  14.481  18.865  0.00  0.00    +0.000 A 
ATOM     16  C   UNL     1       2.239  14.054  18.268  0.00  0.00    +0.000 A 
ATOM     17  C   UNL     1       1.202  13.540  19.051  0.00  0.00    +0.000 A 
ATOM     18 CL   UNL     1      -0.308  13.237  18.266  0.00  0.00    +0.000 Cl
BRANCH  14  19
ATOM     19  C   UNL     1       4.825  14.968  20.849  0.00  0.00    +0.000 C 
ATOM     20  O   UNL     1       5.382  14.473  21.814  0.00  0.00    +0.000 OA
BRANCH  19  21
ATOM     21  O   UNL     1       5.267  16.084  20.238  0.00  0.00    +0.000 OA
ATOM     22  H   UNL     1       5.812  16.685  20.777  0.00  0.00    +0.000 HD
ENDBRANCH  19  21
ENDBRANCH  14  19
ENDBRANCH  11  12
BRANCH   1  24
ATOM     23  C   UNL     1       0.602   9.993  19.979  0.00  0.00    +0.000 C 
ATOM     24  C   UNL     1       0.903  10.701  21.079  0.00  0.00    +0.000 C 
BRANCH  23  28
ATOM     25  C   UNL     1       2.942   6.817  18.300  0.00  0.00    +0.000 A 
ATOM     26  C   UNL     1       2.477   6.715  19.612  0.00  0.00    +0.000 A 
ATOM     27  C   UNL     1       1.731   7.756  20.174  0.00  0.00    +0.000 A 
ATOM     28  C   UNL     1       1.447   8.916  19.442  0.00  0.00    +0.000 A 
ATOM     29  C   UNL     1       1.924   9.013  18.127  0.00  0.00    +0.000 A 
ATOM     30  C   UNL     1       2.671   7.973  17.560  0.00  0.00    +0.000 A 
BRANCH  25  32
ATOM     31  N   UNL     1       4.245   4.850  17.223  0.00  0.00    +0.000 NA
ATOM     32  C   UNL     1       3.670   5.733  17.710  0.00  0.00    +0.000 C 
ENDBRANCH  25  32
ENDBRANCH  23  28
ENDBRANCH   1  24
TORSDOF 6
ENDMDL
MODEL 5
REMARK VINA RESULT:      -6.8      5.134      7.397
REMARK  Name = 
REMARK  6 active torsions:
REMARK  status: ('A' for Active; 'I' for Inactive)
REMARK    1  A    between atoms: C_2  and  C_3
REMARK    2  A    between atoms: C_6  and  C_7
REMARK    3  A    between atoms: C_8  and  C_9
REMARK    4  A    between atoms: N_19  and  C_20
REMARK    5  A    between atoms: C_22  and  C_23
REMARK    6  A    between atoms: C_23  and  O_25
REMARK                            x       y       z     vdW  Elec       q    Type
REMARK                         _______ _______ _______ _____ _____    ______ ____
ROOT
ATOM      1  C   UNL     1      -0.075  12.109  21.261  0.00  0.00    +0.000 A 
ATOM      2  N   UNL     1      -1.118  11.667  21.891  0.00  0.00    +0.000 NA
ATOM      3  C   UNL     1      -1.784  12.521  22.771  0.00  0.00    +0.000 A 
ATOM      4  C   UNL     1      -2.910  12.035  23.438  0.00  0.00    +0.000 A 
ATOM      5  C   UNL     1      -3.635  12.858  24.299  0.00  0.00    +0.000 A 
ATOM      6  C   UNL     1      -3.228  14.175  24.512  0.00  0.00    +0.000 A 
ATOM      7  C   UNL     1      -2.089  14.664  23.868  0.00  0.00    +0.000 A 
ATOM      8  C   UNL     1      -1.377  13.833  22.995  0.00  0.00    +0.000 A 
ATOM      9  C   UNL     1      -0.202  14.328  22.247  0.00  0.00    +0.000 A 
ATOM     10  O   UNL     1       0.114  15.514  22.350  0.00  0.00    +0.000 OA
ATOM     11  N   UNL     1       0.426  13.401  21.408  0.00  0.00    +0.000 N 
ENDROOT
BRANCH  11  12
ATOM     12  C   UNL     1       1.543  13.859  20.632  0.00  0.00    +0.000 A 
ATOM     13  C   UNL     1       2.816  13.883  21.235  0.00  0.00    +0.000 A 
ATOM     14  C   UNL     1       3.890  14.513  20.597  0.00  0.00    +0.000 A 
ATOM     15  C   UNL     1       3.705  15.074  19.328  0.00  0.00    +0.000 A 
ATOM     16  C   UNL     1       2.460  15.004  18.699  0.00  0.00    +0.000 A 
ATOM     17  C   UNL     1       1.375  14.408  19.347  0.00  0.00    +0.000 A 
ATOM     18 CL   UNL     1      -0.175  14.552  18.595  0.00  0.00    +0.000 Cl
BRANCH  14  19
ATOM     19  C   UNL     1       5.186  14.748  21.284  0.00  0.00    +0.000 C 
ATOM     20  O   UNL     1       5.958  15.622  20.925  0.00  0.00    +0.000 OA
BRANCH  19  21
ATOM     21  O   UNL     1       5.428  13.941  22.335  0.00  0.00    +0.000 OA
ATOM     22  H   UNL     1       5.467  14.369  23.209  0.00  0.00    +0.000 HD
ENDBRANCH  19  21
ENDBRANCH  14  19
ENDBRANCH  11  12
BRANCH   1  24
ATOM     23  C   UNL     1       0.590   9.838  20.576  0.00  0.00    +0.000 C 
ATOM     24  C   UNL     1       0.676  11.163  20.381  0.00  0.00    +0.000 C 
BRANCH  23  28
ATOM     25  C   UNL     1       2.874   6.962  18.363  0.00  0.00    +0.000 A 
ATOM     26  C   UNL     1       2.493   8.159  17.754  0.00  0.00    +0.000 A 
ATOM     27  C   UNL     1       1.730   9.093  18.463  0.00  0.00    +0.000 A 
ATOM     28  C   UNL     1       1.328   8.843  19.781  0.00  0.00    +0.000 A 
ATOM     29  C   UNL     1       1.709   7.636  20.382  0.00  0.00    +0.000 A 
ATOM     30  C   UNL     1       2.474   6.699  19.677  0.00  0.00    +0.000 A 
BRANCH  25  32
ATOM     31  N   UNL     1       4.358   5.257  17.091  0.00  0.00    +0.000 NA
ATOM     32  C   UNL     1       3.692   6.025  17.652  0.00  0.00    +0.000 C 
ENDBRANCH  25  32
ENDBRANCH  23  28
ENDBRANCH   1  24
TORSDOF 6
ENDMDL
MODEL 6
REMARK VINA RESULT:      -6.7      4.336      7.300
REMARK  Name = 
REMARK  6 active torsions:
REMARK  status: ('A' for Active; 'I' for Inactive)
REMARK    1  A    between atoms: C_2  and  C_3
REMARK    2  A    between atoms: C_6  and  C_7
REMARK    3  A    between atoms: C_8  and  C_9
REMARK    4  A    between atoms: N_19  and  C_20
REMARK    5  A    between atoms: C_22  and  C_23
REMARK    6  A    between atoms: C_23  and  O_25
REMARK                            x       y       z     vdW  Elec       q    Type
REMARK                         _______ _______ _______ _____ _____    ______ ____
ROOT
ATOM      1  C   UNL     1       0.031  14.291  19.823  0.00  0.00    +0.000 A 
ATOM      2  N   UNL     1       0.686  15.373  20.111  0.00  0.00    +0.000 NA
ATOM      3  C   UNL     1       2.003  15.499  19.667  0.00  0.00    +0.000 A 
ATOM      4  C   UNL     1       2.694  16.672  19.978  0.00  0.00    +0.000 A 
ATOM      5  C   UNL     1       4.000  16.866  19.526  0.00  0.00    +0.000 A 
ATOM      6  C   UNL     1       4.630  15.879  18.769  0.00  0.00    +0.000 A 
ATOM      7  C   UNL     1       3.956  14.693  18.473  0.00  0.00    +0.000 A 
ATOM      8  C   UNL     1       2.641  14.513  18.920  0.00  0.00    +0.000 A 
ATOM      9  C   UNL     1       1.869  13.300  18.578  0.00  0.00    +0.000 A 
ATOM     10  O   UNL     1       2.377  12.461  17.832  0.00  0.00    +0.000 OA
ATOM     11  N   UNL     1       0.567  13.237  19.086  0.00  0.00    +0.000 N 
ENDROOT
BRANCH  11  12
ATOM     12  C   UNL     1      -0.227  12.093  18.736  0.00  0.00    +0.000 A 
ATOM     13  C   UNL     1      -1.224  12.242  17.752  0.00  0.00    +0.000 A 
ATOM     14  C   UNL     1      -2.156  11.222  17.529  0.00  0.00    +0.000 A 
ATOM     15  C   UNL     1      -2.058  10.028  18.252  0.00  0.00    +0.000 A 
ATOM     16  C   UNL     1      -1.036   9.851  19.190  0.00  0.00    +0.000 A 
ATOM     17  C   UNL     1      -0.126  10.881  19.443  0.00  0.00    +0.000 A 
ATOM     18 CL   UNL     1       0.969  10.663  20.763  0.00  0.00    +0.000 Cl
BRANCH  14  19
ATOM     19  C   UNL     1      -3.344  11.419  16.660  0.00  0.00    +0.000 C 
ATOM     20  O   UNL     1      -4.473  11.481  17.115  0.00  0.00    +0.000 OA
BRANCH  19  21
ATOM     21  O   UNL     1      -3.075  11.540  15.345  0.00  0.00    +0.000 OA
ATOM     22  H   UNL     1      -2.362  12.159  15.105  0.00  0.00    +0.000 HD
ENDBRANCH  19  21
ENDBRANCH  14  19
ENDBRANCH  11  12
BRANCH   1  24
ATOM     23  C   UNL     1      -1.554  13.493  21.532  0.00  0.00    +0.000 C 
ATOM     24  C   UNL     1      -1.351  14.132  20.369  0.00  0.00    +0.000 C 
BRANCH  23  28
ATOM     25  C   UNL     1      -5.482  12.955  23.162  0.00  0.00    +0.000 A 
ATOM     26  C   UNL     1      -4.406  13.198  24.017  0.00  0.00    +0.000 A 
ATOM     27  C   UNL     1      -3.118  13.354  23.495  0.00  0.00    +0.000 A 
ATOM     28  C   UNL     1      -2.883  13.259  22.117  0.00  0.00    +0.000 A 
ATOM     29  C   UNL     1      -3.969  13.008  21.266  0.00  0.00    +0.000 A 
ATOM     30  C   UNL     1      -5.260  12.853  21.785  0.00  0.00    +0.000 A 
BRANCH  25  32
ATOM     31  N   UNL     1      -7.878  12.755  24.136  0.00  0.00    +0.000 NA
ATOM     32  C   UNL     1      -6.808  12.839  23.693  0.00  0.00    +0.000 C 
ENDBRANCH  25  32
ENDBRANCH  23  28
ENDBRANCH   1  24
TORSDOF 6
ENDMDL
MODEL 7
REMARK VINA RESULT:      -6.6      4.503      9.273
REMARK  Name = 
REMARK  6 active torsions:
REMARK  status: ('A' for Active; 'I' for Inactive)
REMARK    1  A    between atoms: C_2  and  C_3
REMARK    2  A    between atoms: C_6  and  C_7
REMARK    3  A    between atoms: C_8  and  C_9
REMARK    4  A    between atoms: N_19  and  C_20
REMARK    5  A    between atoms: C_22  and  C_23
REMARK    6  A    between atoms: C_23  and  O_25
REMARK                            x       y       z     vdW  Elec       q    Type
REMARK                         _______ _______ _______ _____ _____    ______ ____
ROOT
ATOM      1  C   UNL     1       0.981   9.667  20.734  0.00  0.00    +0.000 A 
ATOM      2  N   UNL     1       1.203   8.471  21.184  0.00  0.00    +0.000 NA
ATOM      3  C   UNL     1       1.667   7.496  20.301  0.00  0.00    +0.000 A 
ATOM      4  C   UNL     1       1.909   6.214  20.800  0.00  0.00    +0.000 A 
ATOM      5  C   UNL     1       2.410   5.212  19.969  0.00  0.00    +0.000 A 
ATOM      6  C   UNL     1       2.660   5.482  18.623  0.00  0.00    +0.000 A 
ATOM      7  C   UNL     1       2.399   6.754  18.109  0.00  0.00    +0.000 A 
ATOM      8  C   UNL     1       1.909   7.757  18.955  0.00  0.00    +0.000 A 
ATOM      9  C   UNL     1       1.677   9.132  18.466  0.00  0.00    +0.000 A 
ATOM     10  O   UNL     1       1.982   9.411  17.306  0.00  0.00    +0.000 OA
ATOM     11  N   UNL     1       1.184  10.042  19.407  0.00  0.00    +0.000 N 
ENDROOT
BRANCH  11  12
ATOM     12  C   UNL     1       0.989  11.398  18.979  0.00  0.00    +0.000 A 
ATOM     13  C   UNL     1       1.983  12.349  19.283  0.00  0.00    +0.000 A 
ATOM     14  C   UNL     1       1.746  13.712  19.075  0.00  0.00    +0.000 A 
ATOM     15  C   UNL     1       0.533  14.123  18.510  0.00  0.00    +0.000 A 
ATOM     16  C   UNL     1      -0.436  13.181  18.153  0.00  0.00    +0.000 A 
ATOM     17  C   UNL     1      -0.219  11.821  18.393  0.00  0.00    +0.000 A 
ATOM     18 CL   UNL     1      -1.546  10.748  18.121  0.00  0.00    +0.000 Cl
BRANCH  14  19
ATOM     19  C   UNL     1       2.674  14.758  19.576  0.00  0.00    +0.000 C 
ATOM     20  O   UNL     1       3.009  14.817  20.747  0.00  0.00    +0.000 OA
BRANCH  19  21
ATOM     21  O   UNL     1       3.126  15.615  18.640  0.00  0.00    +0.000 OA
ATOM     22  H   UNL     1       3.464  16.469  18.963  0.00  0.00    +0.000 HD
ENDBRANCH  19  21
ENDBRANCH  14  19
ENDBRANCH  11  12
BRANCH   1  24
ATOM     23  C   UNL     1      -0.812  11.195  21.456  0.00  0.00    +0.000 C 
ATOM     24  C   UNL     1       0.411  10.683  21.670  0.00  0.00    +0.000 C 
BRANCH  23  28
ATOM     25  C   UNL     1      -2.475  14.187  24.036  0.00  0.00    +0.000 A 
ATOM     26  C   UNL     1      -3.127  12.962  23.888  0.00  0.00    +0.000 A 
ATOM     27  C   UNL     1      -2.602  11.988  23.032  0.00  0.00    +0.000 A 
ATOM     28  C   UNL     1      -1.428  12.226  22.305  0.00  0.00    +0.000 A 
ATOM     29  C   UNL     1      -0.784  13.461  22.455  0.00  0.00    +0.000 A 
ATOM     30  C   UNL     1      -1.305  14.438  23.312  0.00  0.00    +0.000 A 
BRANCH  25  32
ATOM     31  N   UNL     1      -3.398  15.975  25.674  0.00  0.00    +0.000 NA
ATOM     32  C   UNL     1      -2.989  15.168  24.946  0.00  0.00    +0.000 C 
ENDBRANCH  25  32
ENDBRANCH  23  28
ENDBRANCH   1  24
TORSDOF 6
ENDMDL
MODEL 8
REMARK VINA RESULT:      -6.6      4.386      7.388
REMARK  Name = 
REMARK  6 active torsions:
REMARK  status: ('A' for Active; 'I' for Inactive)
REMARK    1  A    between atoms: C_2  and  C_3
REMARK    2  A    between atoms: C_6  and  C_7
REMARK    3  A    between atoms: C_8  and  C_9
REMARK    4  A    between atoms: N_19  and  C_20
REMARK    5  A    between atoms: C_22  and  C_23
REMARK    6  A    between atoms: C_23  and  O_25
REMARK                            x       y       z     vdW  Elec       q    Type
REMARK                         _______ _______ _______ _____ _____    ______ ____
ROOT
ATOM      1  C   UNL     1       0.053  14.384  19.725  0.00  0.00    +0.000 A 
ATOM      2  N   UNL     1       0.690  15.477  20.008  0.00  0.00    +0.000 NA
ATOM      3  C   UNL     1       2.034  15.585  19.650  0.00  0.00    +0.000 A 
ATOM      4  C   UNL     1       2.706  16.770  19.954  0.00  0.00    +0.000 A 
ATOM      5  C   UNL     1       4.040  16.944  19.584  0.00  0.00    +0.000 A 
ATOM      6  C   UNL     1       4.718  15.924  18.917  0.00  0.00    +0.000 A 
ATOM      7  C   UNL     1       4.061  14.726  18.629  0.00  0.00    +0.000 A 
ATOM      8  C   UNL     1       2.719  14.566  18.993  0.00  0.00    +0.000 A 
ATOM      9  C   UNL     1       1.969  13.338  18.653  0.00  0.00    +0.000 A 
ATOM     10  O   UNL     1       2.524  12.468  17.982  0.00  0.00    +0.000 OA
ATOM     11  N   UNL     1       0.635  13.298  19.074  0.00  0.00    +0.000 N 
ENDROOT
BRANCH  11  12
ATOM     12  C   UNL     1      -0.137  12.140  18.723  0.00  0.00    +0.000 A 
ATOM     13  C   UNL     1      -1.048  12.238  17.652  0.00  0.00    +0.000 A 
ATOM     14  C   UNL     1      -1.966  11.210  17.408  0.00  0.00    +0.000 A 
ATOM     15  C   UNL     1      -1.938  10.058  18.202  0.00  0.00    +0.000 A 
ATOM     16  C   UNL     1      -0.999   9.929  19.229  0.00  0.00    +0.000 A 
ATOM     17  C   UNL     1      -0.105  10.968  19.501  0.00  0.00    +0.000 A 
ATOM     18 CL   UNL     1       0.875  10.819  20.917  0.00  0.00    +0.000 Cl
BRANCH  14  19
ATOM     19  C   UNL     1      -3.076  11.363  16.434  0.00  0.00    +0.000 C 
ATOM     20  O   UNL     1      -3.009  10.912  15.303  0.00  0.00    +0.000 OA
BRANCH  19  21
ATOM     21  O   UNL     1      -4.159  12.016  16.901  0.00  0.00    +0.000 OA
ATOM     22  H   UNL     1      -4.625  12.589  16.266  0.00  0.00    +0.000 HD
ENDBRANCH  19  21
ENDBRANCH  14  19
ENDBRANCH  11  12
BRANCH   1  24
ATOM     23  C   UNL     1      -1.643  13.724  21.386  0.00  0.00    +0.000 C 
ATOM     24  C   UNL     1      -1.363  14.249  20.183  0.00  0.00    +0.000 C 
BRANCH  23  28
ATOM     25  C   UNL     1      -5.564  13.001  22.962  0.00  0.00    +0.000 A 
ATOM     26  C   UNL     1      -5.306  12.761  21.612  0.00  0.00    +0.000 A 
ATOM     27  C   UNL     1      -4.036  13.014  21.085  0.00  0.00    +0.000 A 
ATOM     28  C   UNL     1      -3.008  13.519  21.893  0.00  0.00    +0.000 A 
ATOM     29  C   UNL     1      -3.278  13.763  23.247  0.00  0.00    +0.000 A 
ATOM     30  C   UNL     1      -4.548  13.510  23.778  0.00  0.00    +0.000 A 
BRANCH  25  32
ATOM     31  N   UNL     1      -7.893  12.466  23.970  0.00  0.00    +0.000 NA
ATOM     32  C   UNL     1      -6.853  12.701  23.511  0.00  0.00    +0.000 C 
ENDBRANCH  25  32
ENDBRANCH  23  28
ENDBRANCH   1  24
TORSDOF 6
ENDMDL
MODEL 9
REMARK VINA RESULT:      -6.6     11.946     15.083
REMARK  Name = 
REMARK  6 active torsions:
REMARK  status: ('A' for Active; 'I' for Inactive)
REMARK    1  A    between atoms: C_2  and  C_3
REMARK    2  A    between atoms: C_6  and  C_7
REMARK    3  A    between atoms: C_8  and  C_9
REMARK    4  A    between atoms: N_19  and  C_20
REMARK    5  A    between atoms: C_22  and  C_23
REMARK    6  A    between atoms: C_23  and  O_25
REMARK                            x       y       z     vdW  Elec       q    Type
REMARK                         _______ _______ _______ _____ _____    ______ ____
ROOT
ATOM      1  C   UNL     1       6.767   5.892  16.204  0.00  0.00    +0.000 A 
ATOM      2  N   UNL     1       7.387   5.899  15.065  0.00  0.00    +0.000 NA
ATOM      3  C   UNL     1       7.009   4.979  14.087  0.00  0.00    +0.000 A 
ATOM      4  C   UNL     1       7.679   5.003  12.863  0.00  0.00    +0.000 A 
ATOM      5  C   UNL     1       7.314   4.130  11.837  0.00  0.00    +0.000 A 
ATOM      6  C   UNL     1       6.281   3.215  12.035  0.00  0.00    +0.000 A 
ATOM      7  C   UNL     1       5.619   3.168  13.264  0.00  0.00    +0.000 A 
ATOM      8  C   UNL     1       5.984   4.057  14.282  0.00  0.00    +0.000 A 
ATOM      9  C   UNL     1       5.270   4.082  15.576  0.00  0.00    +0.000 A 
ATOM     10  O   UNL     1       4.294   3.346  15.732  0.00  0.00    +0.000 OA
ATOM     11  N   UNL     1       5.731   5.013  16.513  0.00  0.00    +0.000 N 
ENDROOT
BRANCH  11  12
ATOM     12  C   UNL     1       5.032   5.096  17.764  0.00  0.00    +0.000 A 
ATOM     13  C   UNL     1       5.115   4.007  18.654  0.00  0.00    +0.000 A 
ATOM     14  C   UNL     1       4.290   3.951  19.783  0.00  0.00    +0.000 A 
ATOM     15  C   UNL     1       3.418   5.012  20.053  0.00  0.00    +0.000 A 
ATOM     16  C   UNL     1       3.371   6.122  19.205  0.00  0.00    +0.000 A 
ATOM     17  C   UNL     1       4.166   6.166  18.057  0.00  0.00    +0.000 A 
ATOM     18 CL   UNL     1       3.893   7.469  16.954  0.00  0.00    +0.000 Cl
BRANCH  14  19
ATOM     19  C   UNL     1       4.192   2.732  20.626  0.00  0.00    +0.000 C 
ATOM     20  O   UNL     1       3.280   2.567  21.418  0.00  0.00    +0.000 OA
BRANCH  19  21
ATOM     21  O   UNL     1       5.171   1.826  20.434  0.00  0.00    +0.000 OA
ATOM     22  H   UNL     1       4.900   0.973  20.049  0.00  0.00    +0.000 HD
ENDBRANCH  19  21
ENDBRANCH  14  19
ENDBRANCH  11  12
BRANCH   1  24
ATOM     23  C   UNL     1       7.686   8.052  16.955  0.00  0.00    +0.000 C 
ATOM     24  C   UNL     1       7.233   6.828  17.272  0.00  0.00    +0.000 C 
BRANCH  23  28
ATOM     25  C   UNL     1       9.310  10.897  19.719  0.00  0.00    +0.000 A 
ATOM     26  C   UNL     1       9.285   9.543  20.056  0.00  0.00    +0.000 A 
ATOM     27  C   UNL     1       8.737   8.611  19.168  0.00  0.00    +0.000 A 
ATOM     28  C   UNL     1       8.199   9.016  17.940  0.00  0.00    +0.000 A 
ATOM     29  C   UNL     1       8.223  10.378  17.613  0.00  0.00    +0.000 A 
ATOM     30  C   UNL     1       8.771  11.315  18.497  0.00  0.00    +0.000 A 
BRANCH  25  32
ATOM     31  N   UNL     1      10.381  12.621  21.335  0.00  0.00    +0.000 NA
ATOM     32  C   UNL     1       9.910  11.847  20.609  0.00  0.00    +0.000 C 
ENDBRANCH  25  32
ENDBRANCH  23  28
ENDBRANCH   1  24
TORSDOF 6
ENDMDL
