MODEL 1
REMARK VINA RESULT:      -8.3      0.000      0.000
REMARK  Name = 
REMARK  8 active torsions:
REMARK  status: ('A' for Active; 'I' for Inactive)
REMARK    1  A    between atoms: C_1  and  C_2
REMARK    2  A    between atoms: C_2  and  C_3
REMARK    3  A    between atoms: C_4  and  C_5
REMARK    4  A    between atoms: C_5  and  N_6
REMARK    5  A    between atoms: C_12  and  N_13
REMARK    6  A    between atoms: N_20  and  C_21
REMARK    7  A    between atoms: C_21  and  C_22
REMARK    8  A    between atoms: N_32  and  C_33
REMARK                            x       y       z     vdW  Elec       q    Type
REMARK                         _______ _______ _______ _____ _____    ______ ____
ROOT
ATOM      1  N   UNL     1       2.375   7.272  18.689  0.00  0.00    +0.000 N 
ATOM      2  C   UNL     1       2.132   6.363  19.727  0.00  0.00    +0.000 A 
ATOM      3  N   UNL     1       2.575   5.068  19.729  0.00  0.00    +0.000 N 
ATOM      4  C   UNL     1       2.982   4.476  21.020  0.00  0.00    +0.000 C 
ATOM      5  C   UNL     1       1.909   3.571  21.629  0.00  0.00    +0.000 C 
ATOM      6  C   UNL     1       1.450   2.502  20.643  0.00  0.00    +0.000 C 
ATOM      7  C   UNL     1       0.936   3.174  19.372  0.00  0.00    +0.000 C 
ATOM      8  C   UNL     1       2.030   4.091  18.769  0.00  0.00    +0.000 C 
ATOM      9  N   UNL     1       1.524   6.975  20.726  0.00  0.00    +0.000 NA
ATOM     10  C   UNL     1       1.326   8.257  20.303  0.00  0.00    +0.000 A 
ATOM     11  C   UNL     1       1.854   8.496  19.072  0.00  0.00    +0.000 A 
ATOM     12  C   UNL     1       1.772   9.784  18.436  0.00  0.00    +0.000 A 
ATOM     13  O   UNL     1       2.245  10.015  17.331  0.00  0.00    +0.000 OA
ATOM     14  N   UNL     1       1.036  10.735  19.177  0.00  0.00    +0.000 N 
ATOM     15  C   UNL     1       0.411  10.472  20.411  0.00  0.00    +0.000 A 
ATOM     16  O   UNL     1      -0.341  11.301  20.935  0.00  0.00    +0.000 OA
ATOM     17  N   UNL     1       0.631   9.221  20.993  0.00  0.00    +0.000 N 
ATOM     18  C   UNL     1       0.028   8.875  22.269  0.00  0.00    +0.000 C 
ENDROOT
BRANCH   7  19
ATOM     19  N   UNL     1       0.488   2.139  18.428  0.00  0.00    +0.000 NA
ATOM     20  H   UNL     1       0.025   1.382  18.929  0.00  0.00    +0.000 HD
ATOM     21  H   UNL     1       1.294   1.726  17.960  0.00  0.00    +0.000 HD
ENDBRANCH   7  19
BRANCH   1  22
ATOM     22  C   UNL     1       3.113   7.009  17.458  0.00  0.00    +0.000 C 
BRANCH  22  26
ATOM     23  C   UNL     1       7.011   6.864  17.193  0.00  0.00    +0.000 C 
ATOM     24  C   UNL     1       5.570   6.604  16.846  0.00  0.00    +0.000 C 
ATOM     25  C   UNL     1       5.283   5.864  15.572  0.00  0.00    +0.000 C 
ATOM     26  C   UNL     1       4.605   7.051  17.672  0.00  0.00    +0.000 C 
ENDBRANCH  22  26
ENDBRANCH   1  22
BRANCH  14  27
ATOM     27  C   UNL     1       0.758  12.058  18.562  0.00  0.00    +0.000 C 
BRANCH  27  28
ATOM     28  C   UNL     1       1.811  13.170  18.809  0.00  0.00    +0.000 C 
ATOM     29  O   UNL     1       3.017  12.909  18.797  0.00  0.00    +0.000 OA
ATOM     30  N   UNL     1       1.346  14.496  18.961  0.00  0.00    +0.000 N 
ATOM     31  C   UNL     1       2.324  15.590  19.012  0.00  0.00    +0.000 C 
ATOM     32  C   UNL     1       1.835  16.797  18.205  0.00  0.00    +0.000 C 
ATOM     33  C   UNL     1       0.459  17.265  18.678  0.00  0.00    +0.000 C 
ATOM     34  C   UNL     1      -0.535  16.106  18.706  0.00  0.00    +0.000 C 
ATOM     35  C   UNL     1       0.014  14.874  19.440  0.00  0.00    +0.000 C 
ENDBRANCH  27  28
ENDBRANCH  14  27
TORSDOF 5
ENDMDL
MODEL 2
REMARK VINA RESULT:      -7.8      1.936      3.062
REMARK  Name = 
REMARK  8 active torsions:
REMARK  status: ('A' for Active; 'I' for Inactive)
REMARK    1  A    between atoms: C_1  and  C_2
REMARK    2  A    between atoms: C_2  and  C_3
REMARK    3  A    between atoms: C_4  and  C_5
REMARK    4  A    between atoms: C_5  and  N_6
REMARK    5  A    between atoms: C_12  and  N_13
REMARK    6  A    between atoms: N_20  and  C_21
REMARK    7  A    between atoms: C_21  and  C_22
REMARK    8  A    between atoms: N_32  and  C_33
REMARK                            x       y       z     vdW  Elec       q    Type
REMARK                         _______ _______ _______ _____ _____    ______ ____
ROOT
ATOM      1  N   UNL     1       2.267   7.222  18.719  0.00  0.00    +0.000 N 
ATOM      2  C   UNL     1       2.143   6.286  19.754  0.00  0.00    +0.000 A 
ATOM      3  N   UNL     1       2.608   5.001  19.682  0.00  0.00    +0.000 N 
ATOM      4  C   UNL     1       3.150   4.389  20.913  0.00  0.00    +0.000 C 
ATOM      5  C   UNL     1       2.159   3.449  21.603  0.00  0.00    +0.000 C 
ATOM      6  C   UNL     1       1.624   2.393  20.641  0.00  0.00    +0.000 C 
ATOM      7  C   UNL     1       0.976   3.082  19.443  0.00  0.00    +0.000 C 
ATOM      8  C   UNL     1       1.989   4.034  18.757  0.00  0.00    +0.000 C 
ATOM      9  N   UNL     1       1.625   6.864  20.822  0.00  0.00    +0.000 NA
ATOM     10  C   UNL     1       1.364   8.151  20.450  0.00  0.00    +0.000 A 
ATOM     11  C   UNL     1       1.764   8.427  19.180  0.00  0.00    +0.000 A 
ATOM     12  C   UNL     1       1.596   9.727  18.586  0.00  0.00    +0.000 A 
ATOM     13  O   UNL     1       1.954   9.991  17.446  0.00  0.00    +0.000 OA
ATOM     14  N   UNL     1       0.920  10.646  19.417  0.00  0.00    +0.000 N 
ATOM     15  C   UNL     1       0.424  10.343  20.700  0.00  0.00    +0.000 A 
ATOM     16  O   UNL     1      -0.287  11.145  21.315  0.00  0.00    +0.000 OA
ATOM     17  N   UNL     1       0.723   9.085  21.228  0.00  0.00    +0.000 N 
ATOM     18  C   UNL     1       0.254   8.699  22.548  0.00  0.00    +0.000 C 
ENDROOT
BRANCH   7  19
ATOM     19  N   UNL     1       0.456   2.059  18.523  0.00  0.00    +0.000 NA
ATOM     20  H   UNL     1       1.025   2.023  17.678  0.00  0.00    +0.000 HD
ATOM     21  H   UNL     1      -0.487   2.309  18.226  0.00  0.00    +0.000 HD
ENDBRANCH   7  19
BRANCH   1  22
ATOM     22  C   UNL     1       2.885   7.001  17.416  0.00  0.00    +0.000 C 
BRANCH  22  26
ATOM     23  C   UNL     1       6.746   6.479  17.094  0.00  0.00    +0.000 C 
ATOM     24  C   UNL     1       5.277   6.154  17.049  0.00  0.00    +0.000 C 
ATOM     25  C   UNL     1       4.876   4.816  16.501  0.00  0.00    +0.000 C 
ATOM     26  C   UNL     1       4.390   7.069  17.484  0.00  0.00    +0.000 C 
ENDBRANCH  22  26
ENDBRANCH   1  22
BRANCH  14  27
ATOM     27  C   UNL     1       0.559  11.976  18.864  0.00  0.00    +0.000 C 
BRANCH  27  28
ATOM     28  C   UNL     1      -0.950  12.335  18.857  0.00  0.00    +0.000 C 
ATOM     29  O   UNL     1      -1.352  13.375  19.386  0.00  0.00    +0.000 OA
ATOM     30  N   UNL     1      -1.829  11.478  18.156  0.00  0.00    +0.000 N 
ATOM     31  C   UNL     1      -3.227  11.887  17.976  0.00  0.00    +0.000 C 
ATOM     32  C   UNL     1      -3.716  11.556  16.563  0.00  0.00    +0.000 C 
ATOM     33  C   UNL     1      -3.529  10.073  16.241  0.00  0.00    +0.000 C 
ATOM     34  C   UNL     1      -2.093   9.629  16.510  0.00  0.00    +0.000 C 
ATOM     35  C   UNL     1      -1.594  10.055  17.898  0.00  0.00    +0.000 C 
ENDBRANCH  27  28
ENDBRANCH  14  27
TORSDOF 5
ENDMDL
MODEL 3
REMARK VINA RESULT:      -7.2      2.823      5.070
REMARK  Name = 
REMARK  8 active torsions:
REMARK  status: ('A' for Active; 'I' for Inactive)
REMARK    1  A    between atoms: C_1  and  C_2
REMARK    2  A    between atoms: C_2  and  C_3
REMARK    3  A    between atoms: C_4  and  C_5
REMARK    4  A    between atoms: C_5  and  N_6
REMARK    5  A    between atoms: C_12  and  N_13
REMARK    6  A    between atoms: N_20  and  C_21
REMARK    7  A    between atoms: C_21  and  C_22
REMARK    8  A    between atoms: N_32  and  C_33
REMARK                            x       y       z     vdW  Elec       q    Type
REMARK                         _______ _______ _______ _____ _____    ______ ____
ROOT
ATOM      1  N   UNL     1       2.071   7.083  19.878  0.00  0.00    +0.000 N 
ATOM      2  C   UNL     1       2.992   7.044  18.824  0.00  0.00    +0.000 A 
ATOM      3  N   UNL     1       3.695   5.926  18.463  0.00  0.00    +0.000 N 
ATOM      4  C   UNL     1       3.974   5.715  17.028  0.00  0.00    +0.000 C 
ATOM      5  C   UNL     1       5.397   6.114  16.628  0.00  0.00    +0.000 C 
ATOM      6  C   UNL     1       6.440   5.432  17.507  0.00  0.00    +0.000 C 
ATOM      7  C   UNL     1       6.169   5.776  18.970  0.00  0.00    +0.000 C 
ATOM      8  C   UNL     1       4.726   5.371  19.360  0.00  0.00    +0.000 C 
ATOM      9  N   UNL     1       2.985   8.195  18.178  0.00  0.00    +0.000 NA
ATOM     10  C   UNL     1       2.104   8.988  18.856  0.00  0.00    +0.000 A 
ATOM     11  C   UNL     1       1.498   8.342  19.889  0.00  0.00    +0.000 A 
ATOM     12  C   UNL     1       0.524   8.985  20.732  0.00  0.00    +0.000 A 
ATOM     13  O   UNL     1      -0.032   8.417  21.662  0.00  0.00    +0.000 OA
ATOM     14  N   UNL     1       0.322  10.348  20.426  0.00  0.00    +0.000 N 
ATOM     15  C   UNL     1       1.010  11.047  19.416  0.00  0.00    +0.000 A 
ATOM     16  O   UNL     1       0.896  12.272  19.297  0.00  0.00    +0.000 OA
ATOM     17  N   UNL     1       1.863  10.314  18.587  0.00  0.00    +0.000 N 
ATOM     18  C   UNL     1       2.602  10.960  17.517  0.00  0.00    +0.000 C 
ENDROOT
BRANCH   7  19
ATOM     19  N   UNL     1       7.182   5.122  19.813  0.00  0.00    +0.000 NA
ATOM     20  H   UNL     1       6.893   5.140  20.790  0.00  0.00    +0.000 HD
ATOM     21  H   UNL     1       8.060   5.639  19.762  0.00  0.00    +0.000 HD
ENDBRANCH   7  19
BRANCH   1  22
ATOM     22  C   UNL     1       1.712   5.977  20.761  0.00  0.00    +0.000 C 
BRANCH  22  26
ATOM     23  C   UNL     1       0.673   2.432  19.481  0.00  0.00    +0.000 C 
ATOM     24  C   UNL     1       1.351   3.476  20.328  0.00  0.00    +0.000 C 
ATOM     25  C   UNL     1       2.128   3.007  21.522  0.00  0.00    +0.000 C 
ATOM     26  C   UNL     1       1.225   4.774  19.993  0.00  0.00    +0.000 C 
ENDBRANCH  22  26
ENDBRANCH   1  22
BRANCH  14  27
ATOM     27  C   UNL     1      -0.551  11.156  21.315  0.00  0.00    +0.000 C 
BRANCH  27  28
ATOM     28  C   UNL     1      -1.833  11.748  20.672  0.00  0.00    +0.000 C 
ATOM     29  O   UNL     1      -2.103  11.529  19.488  0.00  0.00    +0.000 OA
ATOM     30  N   UNL     1      -2.717  12.468  21.508  0.00  0.00    +0.000 N 
ATOM     31  C   UNL     1      -4.021  12.881  20.975  0.00  0.00    +0.000 C 
ATOM     32  C   UNL     1      -5.125  12.684  22.018  0.00  0.00    +0.000 C 
ATOM     33  C   UNL     1      -4.802  13.420  23.318  0.00  0.00    +0.000 C 
ATOM     34  C   UNL     1      -3.409  13.055  23.826  0.00  0.00    +0.000 C 
ATOM     35  C   UNL     1      -2.334  13.171  22.736  0.00  0.00    +0.000 C 
ENDBRANCH  27  28
ENDBRANCH  14  27
TORSDOF 5
ENDMDL
MODEL 4
REMARK VINA RESULT:      -7.2      1.236      1.690
REMARK  Name = 
REMARK  8 active torsions:
REMARK  status: ('A' for Active; 'I' for Inactive)
REMARK    1  A    between atoms: C_1  and  C_2
REMARK    2  A    between atoms: C_2  and  C_3
REMARK    3  A    between atoms: C_4  and  C_5
REMARK    4  A    between atoms: C_5  and  N_6
REMARK    5  A    between atoms: C_12  and  N_13
REMARK    6  A    between atoms: N_20  and  C_21
REMARK    7  A    between atoms: C_21  and  C_22
REMARK    8  A    between atoms: N_32  and  C_33
REMARK                            x       y       z     vdW  Elec       q    Type
REMARK                         _______ _______ _______ _____ _____    ______ ____
ROOT
ATOM      1  N   UNL     1       2.336   7.427  18.822  0.00  0.00    +0.000 N 
ATOM      2  C   UNL     1       2.119   6.449  19.802  0.00  0.00    +0.000 A 
ATOM      3  N   UNL     1       2.633   5.182  19.745  0.00  0.00    +0.000 N 
ATOM      4  C   UNL     1       3.042   4.541  21.012  0.00  0.00    +0.000 C 
ATOM      5  C   UNL     1       2.006   3.547  21.543  0.00  0.00    +0.000 C 
ATOM      6  C   UNL     1       1.629   2.512  20.489  0.00  0.00    +0.000 C 
ATOM      7  C   UNL     1       1.109   3.226  19.244  0.00  0.00    +0.000 C 
ATOM      8  C   UNL     1       2.164   4.232  18.719  0.00  0.00    +0.000 C 
ATOM      9  N   UNL     1       1.456   6.971  20.817  0.00  0.00    +0.000 NA
ATOM     10  C   UNL     1       1.198   8.263  20.460  0.00  0.00    +0.000 A 
ATOM     11  C   UNL     1       1.740   8.597  19.258  0.00  0.00    +0.000 A 
ATOM     12  C   UNL     1       1.601   9.913  18.691  0.00  0.00    +0.000 A 
ATOM     13  O   UNL     1       2.086  10.230  17.613  0.00  0.00    +0.000 OA
ATOM     14  N   UNL     1       0.798  10.781  19.464  0.00  0.00    +0.000 N 
ATOM     15  C   UNL     1       0.161  10.416  20.665  0.00  0.00    +0.000 A 
ATOM     16  O   UNL     1      -0.647  11.172  21.214  0.00  0.00    +0.000 OA
ATOM     17  N   UNL     1       0.436   9.148  21.184  0.00  0.00    +0.000 N 
ATOM     18  C   UNL     1      -0.176   8.699  22.423  0.00  0.00    +0.000 C 
ENDROOT
BRANCH   7  19
ATOM     19  N   UNL     1       0.739   2.223  18.233  0.00  0.00    +0.000 NA
ATOM     20  H   UNL     1       0.002   1.617  18.591  0.00  0.00    +0.000 HD
ATOM     21  H   UNL     1       1.538   1.620  18.037  0.00  0.00    +0.000 HD
ENDBRANCH   7  19
BRANCH   1  22
ATOM     22  C   UNL     1       3.115   7.273  17.598  0.00  0.00    +0.000 C 
BRANCH  22  26
ATOM     23  C   UNL     1       6.998   6.833  17.485  0.00  0.00    +0.000 C 
ATOM     24  C   UNL     1       5.558   6.711  17.062  0.00  0.00    +0.000 C 
ATOM     25  C   UNL     1       5.274   6.077  15.732  0.00  0.00    +0.000 C 
ATOM     26  C   UNL     1       4.594   7.182  17.876  0.00  0.00    +0.000 C 
ENDBRANCH  22  26
ENDBRANCH   1  22
BRANCH  14  27
ATOM     27  C   UNL     1       0.462  12.119  18.916  0.00  0.00    +0.000 C 
BRANCH  27  28
ATOM     28  C   UNL     1       0.913  13.343  19.755  0.00  0.00    +0.000 C 
ATOM     29  O   UNL     1       0.284  13.682  20.761  0.00  0.00    +0.000 OA
ATOM     30  N   UNL     1       2.107  13.997  19.378  0.00  0.00    +0.000 N 
ATOM     31  C   UNL     1       2.655  15.039  20.256  0.00  0.00    +0.000 C 
ATOM     32  C   UNL     1       4.178  14.922  20.358  0.00  0.00    +0.000 C 
ATOM     33  C   UNL     1       4.836  14.962  18.979  0.00  0.00    +0.000 C 
ATOM     34  C   UNL     1       4.206  13.935  18.040  0.00  0.00    +0.000 C 
ATOM     35  C   UNL     1       2.672  14.011  18.025  0.00  0.00    +0.000 C 
ENDBRANCH  27  28
ENDBRANCH  14  27
TORSDOF 5
ENDMDL
MODEL 5
REMARK VINA RESULT:      -7.1      1.597      2.293
REMARK  Name = 
REMARK  8 active torsions:
REMARK  status: ('A' for Active; 'I' for Inactive)
REMARK    1  A    between atoms: C_1  and  C_2
REMARK    2  A    between atoms: C_2  and  C_3
REMARK    3  A    between atoms: C_4  and  C_5
REMARK    4  A    between atoms: C_5  and  N_6
REMARK    5  A    between atoms: C_12  and  N_13
REMARK    6  A    between atoms: N_20  and  C_21
REMARK    7  A    between atoms: C_21  and  C_22
REMARK    8  A    between atoms: N_32  and  C_33
REMARK                            x       y       z     vdW  Elec       q    Type
REMARK                         _______ _______ _______ _____ _____    ______ ____
ROOT
ATOM      1  N   UNL     1       2.259   7.232  18.762  0.00  0.00    +0.000 N 
ATOM      2  C   UNL     1       2.144   6.278  19.781  0.00  0.00    +0.000 A 
ATOM      3  N   UNL     1       2.589   4.988  19.676  0.00  0.00    +0.000 N 
ATOM      4  C   UNL     1       3.149   4.346  20.883  0.00  0.00    +0.000 C 
ATOM      5  C   UNL     1       2.158   3.406  21.576  0.00  0.00    +0.000 C 
ATOM      6  C   UNL     1       1.590   2.375  20.607  0.00  0.00    +0.000 C 
ATOM      7  C   UNL     1       0.926   3.096  19.435  0.00  0.00    +0.000 C 
ATOM      8  C   UNL     1       1.937   4.047  18.746  0.00  0.00    +0.000 C 
ATOM      9  N   UNL     1       1.656   6.842  20.871  0.00  0.00    +0.000 NA
ATOM     10  C   UNL     1       1.405   8.139  20.529  0.00  0.00    +0.000 A 
ATOM     11  C   UNL     1       1.783   8.433  19.256  0.00  0.00    +0.000 A 
ATOM     12  C   UNL     1       1.620   9.747  18.689  0.00  0.00    +0.000 A 
ATOM     13  O   UNL     1       1.958  10.028  17.547  0.00  0.00    +0.000 OA
ATOM     14  N   UNL     1       0.975  10.659  19.552  0.00  0.00    +0.000 N 
ATOM     15  C   UNL     1       0.502  10.339  20.839  0.00  0.00    +0.000 A 
ATOM     16  O   UNL     1      -0.186  11.139  21.483  0.00  0.00    +0.000 OA
ATOM     17  N   UNL     1       0.793   9.067  21.337  0.00  0.00    +0.000 N 
ATOM     18  C   UNL     1       0.347   8.662  22.659  0.00  0.00    +0.000 C 
ENDROOT
BRANCH   7  19
ATOM     19  N   UNL     1       0.373   2.098  18.508  0.00  0.00    +0.000 NA
ATOM     20  H   UNL     1      -0.295   1.499  18.992  0.00  0.00    +0.000 HD
ATOM     21  H   UNL     1       1.118   1.487  18.173  0.00  0.00    +0.000 HD
ENDBRANCH   7  19
BRANCH   1  22
ATOM     22  C   UNL     1       2.847   7.026  17.442  0.00  0.00    +0.000 C 
BRANCH  22  26
ATOM     23  C   UNL     1       6.702   6.515  17.049  0.00  0.00    +0.000 C 
ATOM     24  C   UNL     1       5.234   6.181  17.048  0.00  0.00    +0.000 C 
ATOM     25  C   UNL     1       4.830   4.824  16.551  0.00  0.00    +0.000 C 
ATOM     26  C   UNL     1       4.352   7.104  17.474  0.00  0.00    +0.000 C 
ENDBRANCH  22  26
ENDBRANCH   1  22
BRANCH  14  27
ATOM     27  C   UNL     1       0.621  12.004  19.031  0.00  0.00    +0.000 C 
BRANCH  27  28
ATOM     28  C   UNL     1      -0.889  12.283  18.806  0.00  0.00    +0.000 C 
ATOM     29  O   UNL     1      -1.518  11.676  17.935  0.00  0.00    +0.000 OA
ATOM     30  N   UNL     1      -1.531  13.184  19.685  0.00  0.00    +0.000 N 
ATOM     31  C   UNL     1      -2.990  13.328  19.614  0.00  0.00    +0.000 C 
ATOM     32  C   UNL     1      -3.599  13.419  21.016  0.00  0.00    +0.000 C 
ATOM     33  C   UNL     1      -2.972  14.554  21.825  0.00  0.00    +0.000 C 
ATOM     34  C   UNL     1      -1.448  14.452  21.826  0.00  0.00    +0.000 C 
ATOM     35  C   UNL     1      -0.868  14.268  20.417  0.00  0.00    +0.000 C 
ENDBRANCH  27  28
ENDBRANCH  14  27
TORSDOF 5
ENDMDL
MODEL 6
REMARK VINA RESULT:      -7.1      4.086      9.520
REMARK  Name = 
REMARK  8 active torsions:
REMARK  status: ('A' for Active; 'I' for Inactive)
REMARK    1  A    between atoms: C_1  and  C_2
REMARK    2  A    between atoms: C_2  and  C_3
REMARK    3  A    between atoms: C_4  and  C_5
REMARK    4  A    between atoms: C_5  and  N_6
REMARK    5  A    between atoms: C_12  and  N_13
REMARK    6  A    between atoms: N_20  and  C_21
REMARK    7  A    between atoms: C_21  and  C_22
REMARK    8  A    between atoms: N_32  and  C_33
REMARK                            x       y       z     vdW  Elec       q    Type
REMARK                         _______ _______ _______ _____ _____    ______ ____
ROOT
ATOM      1  N   UNL     1      -1.946  12.295  21.700  0.00  0.00    +0.000 N 
ATOM      2  C   UNL     1      -3.077  12.736  21.001  0.00  0.00    +0.000 A 
ATOM      3  N   UNL     1      -4.051  13.529  21.545  0.00  0.00    +0.000 N 
ATOM      4  C   UNL     1      -4.694  14.534  20.674  0.00  0.00    +0.000 C 
ATOM      5  C   UNL     1      -6.063  14.089  20.153  0.00  0.00    +0.000 C 
ATOM      6  C   UNL     1      -6.985  13.663  21.290  0.00  0.00    +0.000 C 
ATOM      7  C   UNL     1      -6.318  12.546  22.089  0.00  0.00    +0.000 C 
ATOM      8  C   UNL     1      -4.933  13.007  22.606  0.00  0.00    +0.000 C 
ATOM      9  N   UNL     1      -2.993  12.370  19.736  0.00  0.00    +0.000 NA
ATOM     10  C   UNL     1      -1.840  11.646  19.641  0.00  0.00    +0.000 A 
ATOM     11  C   UNL     1      -1.150  11.595  20.811  0.00  0.00    +0.000 A 
ATOM     12  C   UNL     1       0.101  10.894  20.936  0.00  0.00    +0.000 A 
ATOM     13  O   UNL     1       0.736  10.842  21.981  0.00  0.00    +0.000 OA
ATOM     14  N   UNL     1       0.492  10.218  19.760  0.00  0.00    +0.000 N 
ATOM     15  C   UNL     1      -0.261  10.193  18.570  0.00  0.00    +0.000 A 
ATOM     16  O   UNL     1       0.061   9.462  17.627  0.00  0.00    +0.000 OA
ATOM     17  N   UNL     1      -1.412  10.983  18.516  0.00  0.00    +0.000 N 
ATOM     18  C   UNL     1      -2.238  11.018  17.321  0.00  0.00    +0.000 C 
ENDROOT
BRANCH   7  19
ATOM     19  N   UNL     1      -7.215  12.133  23.180  0.00  0.00    +0.000 NA
ATOM     20  H   UNL     1      -7.134  12.778  23.965  0.00  0.00    +0.000 HD
ATOM     21  H   UNL     1      -6.935  11.217  23.529  0.00  0.00    +0.000 HD
ENDBRANCH   7  19
BRANCH   1  22
ATOM     22  C   UNL     1      -1.617  12.584  23.092  0.00  0.00    +0.000 C 
BRANCH  22  26
ATOM     23  C   UNL     1      -0.588  16.190  24.199  0.00  0.00    +0.000 C 
ATOM     24  C   UNL     1      -1.413  14.935  24.095  0.00  0.00    +0.000 C 
ATOM     25  C   UNL     1      -2.641  14.836  24.951  0.00  0.00    +0.000 C 
ATOM     26  C   UNL     1      -1.016  13.957  23.259  0.00  0.00    +0.000 C 
ENDBRANCH  22  26
ENDBRANCH   1  22
BRANCH  14  27
ATOM     27  C   UNL     1       1.689   9.342  19.805  0.00  0.00    +0.000 C 
BRANCH  27  28
ATOM     28  C   UNL     1       1.513   7.964  20.496  0.00  0.00    +0.000 C 
ATOM     29  O   UNL     1       0.826   7.856  21.516  0.00  0.00    +0.000 OA
ATOM     30  N   UNL     1       2.091   6.835  19.873  0.00  0.00    +0.000 N 
ATOM     31  C   UNL     1       1.788   5.499  20.402  0.00  0.00    +0.000 C 
ATOM     32  C   UNL     1       1.559   4.501  19.264  0.00  0.00    +0.000 C 
ATOM     33  C   UNL     1       2.752   4.458  18.309  0.00  0.00    +0.000 C 
ATOM     34  C   UNL     1       3.120   5.860  17.827  0.00  0.00    +0.000 C 
ATOM     35  C   UNL     1       3.253   6.865  18.980  0.00  0.00    +0.000 C 
ENDBRANCH  27  28
ENDBRANCH  14  27
TORSDOF 5
ENDMDL
MODEL 7
REMARK VINA RESULT:      -6.8      2.714      4.909
REMARK  Name = 
REMARK  8 active torsions:
REMARK  status: ('A' for Active; 'I' for Inactive)
REMARK    1  A    between atoms: C_1  and  C_2
REMARK    2  A    between atoms: C_2  and  C_3
REMARK    3  A    between atoms: C_4  and  C_5
REMARK    4  A    between atoms: C_5  and  N_6
REMARK    5  A    between atoms: C_12  and  N_13
REMARK    6  A    between atoms: N_20  and  C_21
REMARK    7  A    between atoms: C_21  and  C_22
REMARK    8  A    between atoms: N_32  and  C_33
REMARK                            x       y       z     vdW  Elec       q    Type
REMARK                         _______ _______ _______ _____ _____    ______ ____
ROOT
ATOM      1  N   UNL     1       2.258   6.857  19.728  0.00  0.00    +0.000 N 
ATOM      2  C   UNL     1       3.234   6.919  18.724  0.00  0.00    +0.000 A 
ATOM      3  N   UNL     1       4.075   5.886  18.410  0.00  0.00    +0.000 N 
ATOM      4  C   UNL     1       4.452   5.705  16.993  0.00  0.00    +0.000 C 
ATOM      5  C   UNL     1       5.841   6.260  16.667  0.00  0.00    +0.000 C 
ATOM      6  C   UNL     1       6.904   5.699  17.605  0.00  0.00    +0.000 C 
ATOM      7  C   UNL     1       6.519   6.012  19.049  0.00  0.00    +0.000 C 
ATOM      8  C   UNL     1       5.111   5.450  19.365  0.00  0.00    +0.000 C 
ATOM      9  N   UNL     1       3.134   8.062  18.071  0.00  0.00    +0.000 NA
ATOM     10  C   UNL     1       2.135   8.753  18.696  0.00  0.00    +0.000 A 
ATOM     11  C   UNL     1       1.550   8.046  19.699  0.00  0.00    +0.000 A 
ATOM     12  C   UNL     1       0.467   8.577  20.484  0.00  0.00    +0.000 A 
ATOM     13  O   UNL     1      -0.072   7.952  21.388  0.00  0.00    +0.000 OA
ATOM     14  N   UNL     1       0.132   9.910  20.158  0.00  0.00    +0.000 N 
ATOM     15  C   UNL     1       0.791  10.679  19.180  0.00  0.00    +0.000 A 
ATOM     16  O   UNL     1       0.550  11.884  19.047  0.00  0.00    +0.000 OA
ATOM     17  N   UNL     1       1.764  10.044  18.404  0.00  0.00    +0.000 N 
ATOM     18  C   UNL     1       2.484  10.766  17.370  0.00  0.00    +0.000 C 
ENDROOT
BRANCH   7  19
ATOM     19  N   UNL     1       7.552   5.476  19.949  0.00  0.00    +0.000 NA
ATOM     20  H   UNL     1       7.190   4.672  20.461  0.00  0.00    +0.000 HD
ATOM     21  H   UNL     1       7.798   6.176  20.649  0.00  0.00    +0.000 HD
ENDBRANCH   7  19
BRANCH   1  22
ATOM     22  C   UNL     1       1.978   5.720  20.598  0.00  0.00    +0.000 C 
BRANCH  22  26
ATOM     23  C   UNL     1       0.649   2.254  19.370  0.00  0.00    +0.000 C 
ATOM     24  C   UNL     1       1.305   3.268  20.270  0.00  0.00    +0.000 C 
ATOM     25  C   UNL     1       1.737   2.814  21.633  0.00  0.00    +0.000 C 
ATOM     26  C   UNL     1       1.465   4.530  19.828  0.00  0.00    +0.000 C 
ENDBRANCH  22  26
ENDBRANCH   1  22
BRANCH  14  27
ATOM     27  C   UNL     1      -0.871  10.617  20.993  0.00  0.00    +0.000 C 
BRANCH  27  28
ATOM     28  C   UNL     1      -0.344  11.790  21.861  0.00  0.00    +0.000 C 
ATOM     29  O   UNL     1       0.841  12.129  21.809  0.00  0.00    +0.000 OA
ATOM     30  N   UNL     1      -1.281  12.505  22.642  0.00  0.00    +0.000 N 
ATOM     31  C   UNL     1      -0.847  13.728  23.328  0.00  0.00    +0.000 C 
ATOM     32  C   UNL     1      -1.918  14.818  23.230  0.00  0.00    +0.000 C 
ATOM     33  C   UNL     1      -3.263  14.331  23.768  0.00  0.00    +0.000 C 
ATOM     34  C   UNL     1      -3.671  13.013  23.115  0.00  0.00    +0.000 C 
ATOM     35  C   UNL     1      -2.548  11.966  23.144  0.00  0.00    +0.000 C 
ENDBRANCH  27  28
ENDBRANCH  14  27
TORSDOF 5
ENDMDL
MODEL 8
REMARK VINA RESULT:      -6.6      4.481      9.523
REMARK  Name = 
REMARK  8 active torsions:
REMARK  status: ('A' for Active; 'I' for Inactive)
REMARK    1  A    between atoms: C_1  and  C_2
REMARK    2  A    between atoms: C_2  and  C_3
REMARK    3  A    between atoms: C_4  and  C_5
REMARK    4  A    between atoms: C_5  and  N_6
REMARK    5  A    between atoms: C_12  and  N_13
REMARK    6  A    between atoms: N_20  and  C_21
REMARK    7  A    between atoms: C_21  and  C_22
REMARK    8  A    between atoms: N_32  and  C_33
REMARK                            x       y       z     vdW  Elec       q    Type
REMARK                         _______ _______ _______ _____ _____    ______ ____
ROOT
ATOM      1  N   UNL     1      -2.680  12.456  20.550  0.00  0.00    +0.000 N 
ATOM      2  C   UNL     1      -3.829  12.464  19.749  0.00  0.00    +0.000 A 
ATOM      3  N   UNL     1      -4.957  13.184  20.036  0.00  0.00    +0.000 N 
ATOM      4  C   UNL     1      -5.715  13.765  18.909  0.00  0.00    +0.000 C 
ATOM      5  C   UNL     1      -6.952  12.945  18.532  0.00  0.00    +0.000 C 
ATOM      6  C   UNL     1      -7.849  12.695  19.740  0.00  0.00    +0.000 C 
ATOM      7  C   UNL     1      -7.043  11.993  20.830  0.00  0.00    +0.000 C 
ATOM      8  C   UNL     1      -5.793  12.830  21.199  0.00  0.00    +0.000 C 
ATOM      9  N   UNL     1      -3.609  11.777  18.643  0.00  0.00    +0.000 NA
ATOM     10  C   UNL     1      -2.343  11.282  18.767  0.00  0.00    +0.000 A 
ATOM     11  C   UNL     1      -1.723  11.693  19.905  0.00  0.00    +0.000 A 
ATOM     12  C   UNL     1      -0.378  11.300  20.233  0.00  0.00    +0.000 A 
ATOM     13  O   UNL     1       0.195  11.664  21.252  0.00  0.00    +0.000 OA
ATOM     14  N   UNL     1       0.193  10.404  19.303  0.00  0.00    +0.000 N 
ATOM     15  C   UNL     1      -0.474   9.904  18.168  0.00  0.00    +0.000 A 
ATOM     16  O   UNL     1       0.025   9.009  17.477  0.00  0.00    +0.000 OA
ATOM     17  N   UNL     1      -1.741  10.420  17.883  0.00  0.00    +0.000 N 
ATOM     18  C   UNL     1      -2.490   9.962  16.725  0.00  0.00    +0.000 C 
ENDROOT
BRANCH   7  19
ATOM     19  N   UNL     1      -7.915  11.747  21.989  0.00  0.00    +0.000 NA
ATOM     20  H   UNL     1      -8.697  11.150  21.722  0.00  0.00    +0.000 HD
ATOM     21  H   UNL     1      -8.320  12.626  22.310  0.00  0.00    +0.000 HD
ENDBRANCH   7  19
BRANCH   1  22
ATOM     22  C   UNL     1      -2.488  13.183  21.802  0.00  0.00    +0.000 C 
BRANCH  22  26
ATOM     23  C   UNL     1      -4.498  12.245  25.021  0.00  0.00    +0.000 C 
ATOM     24  C   UNL     1      -3.733  13.094  24.041  0.00  0.00    +0.000 C 
ATOM     25  C   UNL     1      -3.638  14.565  24.320  0.00  0.00    +0.000 C 
ATOM     26  C   UNL     1      -3.183  12.511  22.959  0.00  0.00    +0.000 C 
ENDBRANCH  22  26
ENDBRANCH   1  22
BRANCH  14  27
ATOM     27  C   UNL     1       1.521   9.814  19.605  0.00  0.00    +0.000 C 
BRANCH  27  28
ATOM     28  C   UNL     1       1.531   8.571  20.534  0.00  0.00    +0.000 C 
ATOM     29  O   UNL     1       1.134   8.654  21.700  0.00  0.00    +0.000 OA
ATOM     30  N   UNL     1       1.927   7.334  19.977  0.00  0.00    +0.000 N 
ATOM     31  C   UNL     1       1.772   6.113  20.776  0.00  0.00    +0.000 C 
ATOM     32  C   UNL     1       1.254   4.957  19.914  0.00  0.00    +0.000 C 
ATOM     33  C   UNL     1       2.157   4.714  18.705  0.00  0.00    +0.000 C 
ATOM     34  C   UNL     1       2.387   6.005  17.923  0.00  0.00    +0.000 C 
ATOM     35  C   UNL     1       2.816   7.173  18.822  0.00  0.00    +0.000 C 
ENDBRANCH  27  28
ENDBRANCH  14  27
TORSDOF 5
ENDMDL
MODEL 9
REMARK VINA RESULT:      -6.6      5.458      9.282
REMARK  Name = 
REMARK  8 active torsions:
REMARK  status: ('A' for Active; 'I' for Inactive)
REMARK    1  A    between atoms: C_1  and  C_2
REMARK    2  A    between atoms: C_2  and  C_3
REMARK    3  A    between atoms: C_4  and  C_5
REMARK    4  A    between atoms: C_5  and  N_6
REMARK    5  A    between atoms: C_12  and  N_13
REMARK    6  A    between atoms: N_20  and  C_21
REMARK    7  A    between atoms: C_21  and  C_22
REMARK    8  A    between atoms: N_32  and  C_33
REMARK                            x       y       z     vdW  Elec       q    Type
REMARK                         _______ _______ _______ _____ _____    ______ ____
ROOT
ATOM      1  N   UNL     1      -1.694  12.413  20.351  0.00  0.00    +0.000 N 
ATOM      2  C   UNL     1      -0.672  12.152  19.431  0.00  0.00    +0.000 A 
ATOM      3  N   UNL     1       0.663  12.237  19.724  0.00  0.00    +0.000 N 
ATOM      4  C   UNL     1       1.578  11.271  19.084  0.00  0.00    +0.000 C 
ATOM      5  C   UNL     1       2.327  11.858  17.884  0.00  0.00    +0.000 C 
ATOM      6  C   UNL     1       3.046  13.151  18.250  0.00  0.00    +0.000 C 
ATOM      7  C   UNL     1       2.035  14.153  18.802  0.00  0.00    +0.000 C 
ATOM      8  C   UNL     1       1.281  13.545  20.011  0.00  0.00    +0.000 C 
ATOM      9  N   UNL     1      -1.188  11.707  18.300  0.00  0.00    +0.000 NA
ATOM     10  C   UNL     1      -2.541  11.742  18.479  0.00  0.00    +0.000 A 
ATOM     11  C   UNL     1      -2.900  12.141  19.728  0.00  0.00    +0.000 A 
ATOM     12  C   UNL     1      -4.275  12.240  20.139  0.00  0.00    +0.000 A 
ATOM     13  O   UNL     1      -4.614  12.594  21.261  0.00  0.00    +0.000 OA
ATOM     14  N   UNL     1      -5.197  11.954  19.108  0.00  0.00    +0.000 N 
ATOM     15  C   UNL     1      -4.835  11.625  17.787  0.00  0.00    +0.000 A 
ATOM     16  O   UNL     1      -5.687  11.533  16.897  0.00  0.00    +0.000 OA
ATOM     17  N   UNL     1      -3.475  11.459  17.511  0.00  0.00    +0.000 N 
ATOM     18  C   UNL     1      -3.022  11.112  16.176  0.00  0.00    +0.000 C 
ENDROOT
BRANCH   7  19
ATOM     19  N   UNL     1       2.733  15.401  19.146  0.00  0.00    +0.000 NA
ATOM     20  H   UNL     1       2.774  16.017  18.334  0.00  0.00    +0.000 HD
ATOM     21  H   UNL     1       3.698  15.198  19.403  0.00  0.00    +0.000 HD
ENDBRANCH   7  19
BRANCH   1  22
ATOM     22  C   UNL     1      -1.528  12.821  21.743  0.00  0.00    +0.000 C 
BRANCH  22  26
ATOM     23  C   UNL     1      -2.388  16.428  22.982  0.00  0.00    +0.000 C 
ATOM     24  C   UNL     1      -2.414  14.924  22.911  0.00  0.00    +0.000 C 
ATOM     25  C   UNL     1      -3.192  14.191  23.962  0.00  0.00    +0.000 C 
ATOM     26  C   UNL     1      -1.736  14.303  21.927  0.00  0.00    +0.000 C 
ENDBRANCH  22  26
ENDBRANCH   1  22
BRANCH  14  27
ATOM     27  C   UNL     1      -6.644  12.160  19.367  0.00  0.00    +0.000 C 
BRANCH  27  28
ATOM     28  C   UNL     1      -7.192  11.606  20.709  0.00  0.00    +0.000 C 
ATOM     29  O   UNL     1      -7.268  10.390  20.903  0.00  0.00    +0.000 OA
ATOM     30  N   UNL     1      -7.518  12.536  21.722  0.00  0.00    +0.000 N 
ATOM     31  C   UNL     1      -7.863  12.037  23.059  0.00  0.00    +0.000 C 
ATOM     32  C   UNL     1      -7.227  12.907  24.147  0.00  0.00    +0.000 C 
ATOM     33  C   UNL     1      -7.620  14.376  23.988  0.00  0.00    +0.000 C 
ATOM     34  C   UNL     1      -7.339  14.869  22.570  0.00  0.00    +0.000 C 
ATOM     35  C   UNL     1      -7.906  13.931  21.495  0.00  0.00    +0.000 C 
ENDBRANCH  27  28
ENDBRANCH  14  27
TORSDOF 5
ENDMDL
