MODEL 1
REMARK VINA RESULT:      -9.1      0.000      0.000
REMARK  Name = 
REMARK  5 active torsions:
REMARK  status: ('A' for Active; 'I' for Inactive)
REMARK    1  A    between atoms: C_2  and  C_3
REMARK    2  A    between atoms: N_5  and  C_6
REMARK    3  A    between atoms: C_9  and  C_10
REMARK    4  A    between atoms: C_15  and  C_16
REMARK    5  A    between atoms: C_19  and  C_20
REMARK                            x       y       z     vdW  Elec       q    Type
REMARK                         _______ _______ _______ _____ _____    ______ ____
ROOT
ATOM      1  C   UNL     1       1.288  13.220  19.452  0.00  0.00    +0.000 C 
ATOM      2  O   UNL     1       0.435  13.840  20.088  0.00  0.00    +0.000 OA
ATOM      3  N   UNL     1       0.998  12.020  18.815  0.00  0.00    +0.000 N 
ATOM      4  C   UNL     1      -0.355  11.499  18.758  0.00  0.00    +0.000 C 
ATOM      5  C   UNL     1      -0.172   9.987  18.739  0.00  0.00    +0.000 C 
ATOM      6  C   UNL     1       1.125   9.798  17.952  0.00  0.00    +0.000 C 
ATOM      7  C   UNL     1       1.925  11.078  18.209  0.00  0.00    +0.000 C 
ENDROOT
BRANCH   6   8
ATOM      8  C   UNL     1       1.893   8.568  18.301  0.00  0.00    +0.000 A 
ATOM      9  C   UNL     1       3.087   8.097  17.784  0.00  0.00    +0.000 A 
ATOM     10  C   UNL     1       3.448   6.908  18.484  0.00  0.00    +0.000 A 
ATOM     11  C   UNL     1       4.506   5.974  18.458  0.00  0.00    +0.000 A 
ATOM     12  C   UNL     1       4.443   4.917  19.376  0.00  0.00    +0.000 A 
ATOM     13  C   UNL     1       3.349   4.810  20.224  0.00  0.00    +0.000 A 
ATOM     14  N   UNL     1       2.315   5.671  20.279  0.00  0.00    +0.000 NA
ATOM     15  C   UNL     1       2.428   6.685  19.404  0.00  0.00    +0.000 A 
ATOM     16  N   UNL     1       1.510   7.692  19.289  0.00  0.00    +0.000 N 
ATOM     17  H   UNL     1       0.686   7.757  19.871  0.00  0.00    +0.000 HD
BRANCH  11  18
ATOM     18  C   UNL     1       5.608   6.138  17.526  0.00  0.00    +0.000 A 
ATOM     19  C   UNL     1       6.730   7.001  17.585  0.00  0.00    +0.000 A 
ATOM     20  N   UNL     1       7.546   6.881  16.539  0.00  0.00    +0.000 NA
ATOM     21  N   UNL     1       6.976   5.922  15.796  0.00  0.00    +0.000 N 
ATOM     22  N   UNL     1       7.586   5.514  14.661  0.00  0.00    +0.000 NA
ATOM     23  C   UNL     1       6.932   4.584  14.047  0.00  0.00    +0.000 A 
ATOM     24  C   UNL     1       5.641   3.992  14.467  0.00  0.00    +0.000 A 
ATOM     25  C   UNL     1       5.097   4.461  15.596  0.00  0.00    +0.000 A 
ATOM     26  C   UNL     1       5.790   5.453  16.335  0.00  0.00    +0.000 A 
ENDBRANCH  11  18
ENDBRANCH   6   8
BRANCH   1  30
ATOM     27  C   UNL     1       5.273  14.889  19.347  0.00  0.00    +0.000 A 
ATOM     28  C   UNL     1       4.607  14.681  20.559  0.00  0.00    +0.000 A 
ATOM     29  C   UNL     1       3.318  14.127  20.585  0.00  0.00    +0.000 A 
ATOM     30  C   UNL     1       2.670  13.787  19.393  0.00  0.00    +0.000 A 
ATOM     31  C   UNL     1       3.315  14.068  18.185  0.00  0.00    +0.000 A 
ATOM     32  C   UNL     1       4.615  14.577  18.160  0.00  0.00    +0.000 A 
BRANCH  27  35
ATOM     33  C   UNL     1       6.868  16.778  19.074  0.00  0.00    +0.000 C 
ATOM     34  O   UNL     1       6.082  17.714  19.087  0.00  0.00    +0.000 OA
ATOM     35  N   UNL     1       6.566  15.442  19.231  0.00  0.00    +0.000 N 
ATOM     36  H   UNL     1       7.337  14.792  19.309  0.00  0.00    +0.000 HD
BRANCH  33  38
ATOM     37  C   UNL     1       9.093  16.021  18.409  0.00  0.00    +0.000 C 
ATOM     38  C   UNL     1       8.328  17.008  18.897  0.00  0.00    +0.000 C 
ENDBRANCH  33  38
ENDBRANCH  27  35
ENDBRANCH   1  30
TORSDOF 5
ENDMDL
MODEL 2
REMARK VINA RESULT:      -8.6      4.410      6.490
REMARK  Name = 
REMARK  5 active torsions:
REMARK  status: ('A' for Active; 'I' for Inactive)
REMARK    1  A    between atoms: C_2  and  C_3
REMARK    2  A    between atoms: N_5  and  C_6
REMARK    3  A    between atoms: C_9  and  C_10
REMARK    4  A    between atoms: C_15  and  C_16
REMARK    5  A    between atoms: C_19  and  C_20
REMARK                            x       y       z     vdW  Elec       q    Type
REMARK                         _______ _______ _______ _____ _____    ______ ____
ROOT
ATOM      1  C   UNL     1      -0.099  10.930  19.757  0.00  0.00    +0.000 C 
ATOM      2  O   UNL     1       0.362  12.056  19.946  0.00  0.00    +0.000 OA
ATOM      3  N   UNL     1       0.261   9.849  20.552  0.00  0.00    +0.000 N 
ATOM      4  C   UNL     1       1.101  10.015  21.724  0.00  0.00    +0.000 C 
ATOM      5  C   UNL     1       1.867   8.703  21.823  0.00  0.00    +0.000 C 
ATOM      6  C   UNL     1       0.864   7.668  21.314  0.00  0.00    +0.000 C 
ATOM      7  C   UNL     1      -0.028   8.440  20.338  0.00  0.00    +0.000 C 
ENDROOT
BRANCH   6   8
ATOM      8  C   UNL     1       1.476   6.459  20.690  0.00  0.00    +0.000 A 
ATOM      9  C   UNL     1       2.665   6.331  19.993  0.00  0.00    +0.000 A 
ATOM     10  C   UNL     1       2.843   4.960  19.646  0.00  0.00    +0.000 A 
ATOM     11  C   UNL     1       3.806   4.182  18.968  0.00  0.00    +0.000 A 
ATOM     12  C   UNL     1       3.556   2.806  18.868  0.00  0.00    +0.000 A 
ATOM     13  C   UNL     1       2.381   2.285  19.389  0.00  0.00    +0.000 A 
ATOM     14  N   UNL     1       1.432   2.987  20.037  0.00  0.00    +0.000 NA
ATOM     15  C   UNL     1       1.723   4.295  20.136  0.00  0.00    +0.000 A 
ATOM     16  N   UNL     1       0.919   5.204  20.767  0.00  0.00    +0.000 N 
ATOM     17  H   UNL     1       0.053   4.952  21.224  0.00  0.00    +0.000 HD
BRANCH  11  18
ATOM     18  C   UNL     1       5.003   4.803  18.427  0.00  0.00    +0.000 A 
ATOM     19  C   UNL     1       5.996   5.580  19.072  0.00  0.00    +0.000 A 
ATOM     20  N   UNL     1       6.962   5.992  18.251  0.00  0.00    +0.000 NA
ATOM     21  N   UNL     1       6.620   5.470  17.066  0.00  0.00    +0.000 N 
ATOM     22  N   UNL     1       7.429   5.660  16.000  0.00  0.00    +0.000 NA
ATOM     23  C   UNL     1       6.982   5.100  14.925  0.00  0.00    +0.000 A 
ATOM     24  C   UNL     1       5.723   4.332  14.791  0.00  0.00    +0.000 A 
ATOM     25  C   UNL     1       4.973   4.200  15.890  0.00  0.00    +0.000 A 
ATOM     26  C   UNL     1       5.432   4.759  17.110  0.00  0.00    +0.000 A 
ENDBRANCH  11  18
ENDBRANCH   6   8
BRANCH   1  30
ATOM     27  C   UNL     1      -2.818  10.357  16.448  0.00  0.00    +0.000 A 
ATOM     28  C   UNL     1      -1.685   9.551  16.602  0.00  0.00    +0.000 A 
ATOM     29  C   UNL     1      -0.814   9.736  17.686  0.00  0.00    +0.000 A 
ATOM     30  C   UNL     1      -1.058  10.743  18.626  0.00  0.00    +0.000 A 
ATOM     31  C   UNL     1      -2.152  11.589  18.421  0.00  0.00    +0.000 A 
ATOM     32  C   UNL     1      -3.043  11.377  17.368  0.00  0.00    +0.000 A 
BRANCH  27  35
ATOM     33  C   UNL     1      -3.435  10.014  14.063  0.00  0.00    +0.000 C 
ATOM     34  O   UNL     1      -2.327   9.799  13.593  0.00  0.00    +0.000 OA
ATOM     35  N   UNL     1      -3.742  10.240  15.388  0.00  0.00    +0.000 N 
ATOM     36  H   UNL     1      -4.720  10.291  15.641  0.00  0.00    +0.000 HD
BRANCH  33  38
ATOM     37  C   UNL     1      -4.514   9.777  11.884  0.00  0.00    +0.000 C 
ATOM     38  C   UNL     1      -4.644  10.033  13.194  0.00  0.00    +0.000 C 
ENDBRANCH  33  38
ENDBRANCH  27  35
ENDBRANCH   1  30
TORSDOF 5
ENDMDL
MODEL 3
REMARK VINA RESULT:      -8.6      4.419      6.697
REMARK  Name = 
REMARK  5 active torsions:
REMARK  status: ('A' for Active; 'I' for Inactive)
REMARK    1  A    between atoms: C_2  and  C_3
REMARK    2  A    between atoms: N_5  and  C_6
REMARK    3  A    between atoms: C_9  and  C_10
REMARK    4  A    between atoms: C_15  and  C_16
REMARK    5  A    between atoms: C_19  and  C_20
REMARK                            x       y       z     vdW  Elec       q    Type
REMARK                         _______ _______ _______ _____ _____    ______ ____
ROOT
ATOM      1  C   UNL     1      -0.562  11.218  19.710  0.00  0.00    +0.000 C 
ATOM      2  O   UNL     1      -0.196  12.374  19.921  0.00  0.00    +0.000 OA
ATOM      3  N   UNL     1      -0.148  10.160  20.509  0.00  0.00    +0.000 N 
ATOM      4  C   UNL     1       0.637  10.379  21.711  0.00  0.00    +0.000 C 
ATOM      5  C   UNL     1       1.497   9.129  21.828  0.00  0.00    +0.000 C 
ATOM      6  C   UNL     1       0.594   8.025  21.278  0.00  0.00    +0.000 C 
ATOM      7  C   UNL     1      -0.321   8.735  20.276  0.00  0.00    +0.000 C 
ENDROOT
BRANCH   6   8
ATOM      8  C   UNL     1       1.318   6.872  20.668  0.00  0.00    +0.000 A 
ATOM      9  C   UNL     1       2.337   6.865  19.732  0.00  0.00    +0.000 A 
ATOM     10  C   UNL     1       2.739   5.516  19.509  0.00  0.00    +0.000 A 
ATOM     11  C   UNL     1       3.691   4.838  18.716  0.00  0.00    +0.000 A 
ATOM     12  C   UNL     1       3.737   3.442  18.831  0.00  0.00    +0.000 A 
ATOM     13  C   UNL     1       2.839   2.795  19.667  0.00  0.00    +0.000 A 
ATOM     14  N   UNL     1       1.910   3.397  20.436  0.00  0.00    +0.000 NA
ATOM     15  C   UNL     1       1.919   4.735  20.318  0.00  0.00    +0.000 A 
ATOM     16  N   UNL     1       1.081   5.562  21.013  0.00  0.00    +0.000 N 
ATOM     17  H   UNL     1       0.404   5.224  21.683  0.00  0.00    +0.000 HD
BRANCH  11  18
ATOM     18  C   UNL     1       4.584   5.583  17.845  0.00  0.00    +0.000 A 
ATOM     19  C   UNL     1       4.367   6.096  16.542  0.00  0.00    +0.000 A 
ATOM     20  N   UNL     1       5.424   6.733  16.040  0.00  0.00    +0.000 NA
ATOM     21  N   UNL     1       6.335   6.662  17.020  0.00  0.00    +0.000 N 
ATOM     22  N   UNL     1       7.534   7.264  16.854  0.00  0.00    +0.000 NA
ATOM     23  C   UNL     1       8.313   7.121  17.876  0.00  0.00    +0.000 A 
ATOM     24  C   UNL     1       8.005   6.380  19.120  0.00  0.00    +0.000 A 
ATOM     25  C   UNL     1       6.801   5.802  19.200  0.00  0.00    +0.000 A 
ATOM     26  C   UNL     1       5.888   5.959  18.126  0.00  0.00    +0.000 A 
ENDBRANCH  11  18
ENDBRANCH   6   8
BRANCH   1  30
ATOM     27  C   UNL     1      -3.233  10.520  16.385  0.00  0.00    +0.000 A 
ATOM     28  C   UNL     1      -3.557  11.432  17.394  0.00  0.00    +0.000 A 
ATOM     29  C   UNL     1      -2.678  11.661  18.464  0.00  0.00    +0.000 A 
ATOM     30  C   UNL     1      -1.466  10.968  18.545  0.00  0.00    +0.000 A 
ATOM     31  C   UNL     1      -1.187  10.007  17.571  0.00  0.00    +0.000 A 
ATOM     32  C   UNL     1      -2.039   9.810  16.483  0.00  0.00    +0.000 A 
BRANCH  27  35
ATOM     33  C   UNL     1      -3.632   9.970  13.993  0.00  0.00    +0.000 C 
ATOM     34  O   UNL     1      -2.476   9.873  13.608  0.00  0.00    +0.000 OA
ATOM     35  N   UNL     1      -4.058  10.228  15.278  0.00  0.00    +0.000 N 
ATOM     36  H   UNL     1      -5.050  10.167  15.465  0.00  0.00    +0.000 HD
BRANCH  33  38
ATOM     37  C   UNL     1      -4.528   9.754  11.730  0.00  0.00    +0.000 C 
ATOM     38  C   UNL     1      -4.769   9.787  13.049  0.00  0.00    +0.000 C 
ENDBRANCH  33  38
ENDBRANCH  27  35
ENDBRANCH   1  30
TORSDOF 5
ENDMDL
MODEL 4
REMARK VINA RESULT:      -8.5      0.998      1.313
REMARK  Name = 
REMARK  5 active torsions:
REMARK  status: ('A' for Active; 'I' for Inactive)
REMARK    1  A    between atoms: C_2  and  C_3
REMARK    2  A    between atoms: N_5  and  C_6
REMARK    3  A    between atoms: C_9  and  C_10
REMARK    4  A    between atoms: C_15  and  C_16
REMARK    5  A    between atoms: C_19  and  C_20
REMARK                            x       y       z     vdW  Elec       q    Type
REMARK                         _______ _______ _______ _____ _____    ______ ____
ROOT
ATOM      1  C   UNL     1       1.479  13.397  19.462  0.00  0.00    +0.000 C 
ATOM      2  O   UNL     1       0.635  14.039  20.087  0.00  0.00    +0.000 OA
ATOM      3  N   UNL     1       1.162  12.214  18.806  0.00  0.00    +0.000 N 
ATOM      4  C   UNL     1      -0.207  11.740  18.715  0.00  0.00    +0.000 C 
ATOM      5  C   UNL     1      -0.076  10.224  18.682  0.00  0.00    +0.000 C 
ATOM      6  C   UNL     1       1.230   9.998  17.919  0.00  0.00    +0.000 C 
ATOM      7  C   UNL     1       2.068  11.247  18.207  0.00  0.00    +0.000 C 
ENDROOT
BRANCH   6   8
ATOM      8  C   UNL     1       1.949   8.739  18.269  0.00  0.00    +0.000 A 
ATOM      9  C   UNL     1       3.131   8.227  17.764  0.00  0.00    +0.000 A 
ATOM     10  C   UNL     1       3.439   7.022  18.460  0.00  0.00    +0.000 A 
ATOM     11  C   UNL     1       4.463   6.049  18.441  0.00  0.00    +0.000 A 
ATOM     12  C   UNL     1       4.350   4.990  19.352  0.00  0.00    +0.000 A 
ATOM     13  C   UNL     1       3.243   4.919  20.186  0.00  0.00    +0.000 A 
ATOM     14  N   UNL     1       2.241   5.817  20.235  0.00  0.00    +0.000 NA
ATOM     15  C   UNL     1       2.401   6.831  19.367  0.00  0.00    +0.000 A 
ATOM     16  N   UNL     1       1.523   7.872  19.248  0.00  0.00    +0.000 N 
ATOM     17  H   UNL     1       0.695   7.964  19.821  0.00  0.00    +0.000 HD
BRANCH  11  18
ATOM     18  C   UNL     1       5.580   6.179  17.522  0.00  0.00    +0.000 A 
ATOM     19  C   UNL     1       6.721   7.017  17.587  0.00  0.00    +0.000 A 
ATOM     20  N   UNL     1       7.548   6.866  16.554  0.00  0.00    +0.000 NA
ATOM     21  N   UNL     1       6.967   5.912  15.814  0.00  0.00    +0.000 N 
ATOM     22  N   UNL     1       7.583   5.477  14.692  0.00  0.00    +0.000 NA
ATOM     23  C   UNL     1       6.916   4.555  14.080  0.00  0.00    +0.000 A 
ATOM     24  C   UNL     1       5.607   3.997  14.489  0.00  0.00    +0.000 A 
ATOM     25  C   UNL     1       5.058   4.491  15.604  0.00  0.00    +0.000 A 
ATOM     26  C   UNL     1       5.763   5.476  16.342  0.00  0.00    +0.000 A 
ENDBRANCH  11  18
ENDBRANCH   6   8
BRANCH   1  30
ATOM     27  C   UNL     1       5.541  14.865  19.321  0.00  0.00    +0.000 A 
ATOM     28  C   UNL     1       4.838  14.568  18.149  0.00  0.00    +0.000 A 
ATOM     29  C   UNL     1       3.515  14.103  18.204  0.00  0.00    +0.000 A 
ATOM     30  C   UNL     1       2.881  13.916  19.437  0.00  0.00    +0.000 A 
ATOM     31  C   UNL     1       3.618  14.145  20.602  0.00  0.00    +0.000 A 
ATOM     32  C   UNL     1       4.918  14.650  20.548  0.00  0.00    +0.000 A 
BRANCH  27  35
ATOM     33  C   UNL     1       7.983  14.599  19.709  0.00  0.00    +0.000 C 
ATOM     34  O   UNL     1       8.020  13.406  19.973  0.00  0.00    +0.000 OA
ATOM     35  N   UNL     1       6.871  15.334  19.357  0.00  0.00    +0.000 N 
ATOM     36  H   UNL     1       7.016  16.289  19.057  0.00  0.00    +0.000 HD
BRANCH  33  38
ATOM     37  C   UNL     1      10.405  14.833  19.501  0.00  0.00    +0.000 C 
ATOM     38  C   UNL     1       9.222  15.423  19.723  0.00  0.00    +0.000 C 
ENDBRANCH  33  38
ENDBRANCH  27  35
ENDBRANCH   1  30
TORSDOF 5
ENDMDL
MODEL 5
REMARK VINA RESULT:      -8.3      5.252      7.676
REMARK  Name = 
REMARK  5 active torsions:
REMARK  status: ('A' for Active; 'I' for Inactive)
REMARK    1  A    between atoms: C_2  and  C_3
REMARK    2  A    between atoms: N_5  and  C_6
REMARK    3  A    between atoms: C_9  and  C_10
REMARK    4  A    between atoms: C_15  and  C_16
REMARK    5  A    between atoms: C_19  and  C_20
REMARK                            x       y       z     vdW  Elec       q    Type
REMARK                         _______ _______ _______ _____ _____    ______ ____
ROOT
ATOM      1  C   UNL     1       5.117  16.923  19.539  0.00  0.00    +0.000 C 
ATOM      2  O   UNL     1       5.251  18.030  20.059  0.00  0.00    +0.000 OA
ATOM      3  N   UNL     1       3.893  16.486  19.048  0.00  0.00    +0.000 N 
ATOM      4  C   UNL     1       2.736  17.361  19.009  0.00  0.00    +0.000 C 
ATOM      5  C   UNL     1       1.551  16.422  19.187  0.00  0.00    +0.000 C 
ATOM      6  C   UNL     1       2.002  15.145  18.477  0.00  0.00    +0.000 C 
ATOM      7  C   UNL     1       3.528  15.152  18.599  0.00  0.00    +0.000 C 
ENDROOT
BRANCH   6   8
ATOM      8  C   UNL     1       1.395  13.889  19.006  0.00  0.00    +0.000 A 
ATOM      9  C   UNL     1       0.337  13.146  18.514  0.00  0.00    +0.000 A 
ATOM     10  C   UNL     1       0.170  11.994  19.338  0.00  0.00    +0.000 A 
ATOM     11  C   UNL     1      -0.685  10.871  19.384  0.00  0.00    +0.000 A 
ATOM     12  C   UNL     1      -0.467   9.948  20.416  0.00  0.00    +0.000 A 
ATOM     13  C   UNL     1       0.529  10.190  21.351  0.00  0.00    +0.000 A 
ATOM     14  N   UNL     1       1.363  11.247  21.352  0.00  0.00    +0.000 NA
ATOM     15  C   UNL     1       1.139  12.093  20.331  0.00  0.00    +0.000 A 
ATOM     16  N   UNL     1       1.871  13.227  20.113  0.00  0.00    +0.000 N 
ATOM     17  H   UNL     1       2.650  13.502  20.696  0.00  0.00    +0.000 HD
BRANCH  11  18
ATOM     18  C   UNL     1      -1.723  10.697  18.382  0.00  0.00    +0.000 A 
ATOM     19  C   UNL     1      -1.710   9.949  17.178  0.00  0.00    +0.000 A 
ATOM     20  N   UNL     1      -2.853  10.021  16.498  0.00  0.00    +0.000 NA
ATOM     21  N   UNL     1      -3.632  10.799  17.262  0.00  0.00    +0.000 N 
ATOM     22  N   UNL     1      -4.905  11.042  16.878  0.00  0.00    +0.000 NA
ATOM     23  C   UNL     1      -5.543  11.800  17.707  0.00  0.00    +0.000 A 
ATOM     24  C   UNL     1      -5.003  12.392  18.952  0.00  0.00    +0.000 A 
ATOM     25  C   UNL     1      -3.730  12.114  19.254  0.00  0.00    +0.000 A 
ATOM     26  C   UNL     1      -2.992  11.253  18.403  0.00  0.00    +0.000 A 
ENDBRANCH  11  18
ENDBRANCH   6   8
BRANCH   1  30
ATOM     27  C   UNL     1       8.578  14.353  19.229  0.00  0.00    +0.000 A 
ATOM     28  C   UNL     1       8.172  15.152  18.155  0.00  0.00    +0.000 A 
ATOM     29  C   UNL     1       7.053  15.993  18.269  0.00  0.00    +0.000 A 
ATOM     30  C   UNL     1       6.317  16.034  19.457  0.00  0.00    +0.000 A 
ATOM     31  C   UNL     1       6.689  15.177  20.496  0.00  0.00    +0.000 A 
ATOM     32  C   UNL     1       7.827  14.375  20.401  0.00  0.00    +0.000 A 
BRANCH  27  35
ATOM     33  C   UNL     1       9.715  12.223  18.635  0.00  0.00    +0.000 C 
ATOM     34  O   UNL     1       8.820  11.682  18.001  0.00  0.00    +0.000 OA
ATOM     35  N   UNL     1       9.686  13.480  19.199  0.00  0.00    +0.000 N 
ATOM     36  H   UNL     1      10.545  13.836  19.598  0.00  0.00    +0.000 HD
BRANCH  33  38
ATOM     37  C   UNL     1      11.769  11.878  19.913  0.00  0.00    +0.000 C 
ATOM     38  C   UNL     1      11.017  11.536  18.856  0.00  0.00    +0.000 C 
ENDBRANCH  33  38
ENDBRANCH  27  35
ENDBRANCH   1  30
TORSDOF 5
ENDMDL
MODEL 6
REMARK VINA RESULT:      -8.3      0.994      1.107
REMARK  Name = 
REMARK  5 active torsions:
REMARK  status: ('A' for Active; 'I' for Inactive)
REMARK    1  A    between atoms: C_2  and  C_3
REMARK    2  A    between atoms: N_5  and  C_6
REMARK    3  A    between atoms: C_9  and  C_10
REMARK    4  A    between atoms: C_15  and  C_16
REMARK    5  A    between atoms: C_19  and  C_20
REMARK                            x       y       z     vdW  Elec       q    Type
REMARK                         _______ _______ _______ _____ _____    ______ ____
ROOT
ATOM      1  C   UNL     1       0.743  12.984  19.468  0.00  0.00    +0.000 C 
ATOM      2  O   UNL     1      -0.265  13.494  19.956  0.00  0.00    +0.000 OA
ATOM      3  N   UNL     1       0.681  11.834  18.693  0.00  0.00    +0.000 N 
ATOM      4  C   UNL     1      -0.589  11.243  18.312  0.00  0.00    +0.000 C 
ATOM      5  C   UNL     1      -0.295   9.753  18.213  0.00  0.00    +0.000 C 
ATOM      6  C   UNL     1       1.147   9.711  17.704  0.00  0.00    +0.000 C 
ATOM      7  C   UNL     1       1.780  11.005  18.222  0.00  0.00    +0.000 C 
ENDROOT
BRANCH   6   8
ATOM      8  C   UNL     1       1.917   8.499  18.109  0.00  0.00    +0.000 A 
ATOM      9  C   UNL     1       3.118   8.014  17.623  0.00  0.00    +0.000 A 
ATOM     10  C   UNL     1       3.477   6.856  18.373  0.00  0.00    +0.000 A 
ATOM     11  C   UNL     1       4.540   5.926  18.395  0.00  0.00    +0.000 A 
ATOM     12  C   UNL     1       4.473   4.907  19.354  0.00  0.00    +0.000 A 
ATOM     13  C   UNL     1       3.372   4.830  20.195  0.00  0.00    +0.000 A 
ATOM     14  N   UNL     1       2.334   5.687  20.207  0.00  0.00    +0.000 NA
ATOM     15  C   UNL     1       2.450   6.665  19.292  0.00  0.00    +0.000 A 
ATOM     16  N   UNL     1       1.529   7.662  19.129  0.00  0.00    +0.000 N 
ATOM     17  H   UNL     1       0.700   7.747  19.701  0.00  0.00    +0.000 HD
BRANCH  11  18
ATOM     18  C   UNL     1       5.649   6.058  17.466  0.00  0.00    +0.000 A 
ATOM     19  C   UNL     1       6.801   6.880  17.534  0.00  0.00    +0.000 A 
ATOM     20  N   UNL     1       7.615   6.738  16.489  0.00  0.00    +0.000 NA
ATOM     21  N   UNL     1       7.013   5.805  15.738  0.00  0.00    +0.000 N 
ATOM     22  N   UNL     1       7.611   5.384  14.601  0.00  0.00    +0.000 NA
ATOM     23  C   UNL     1       6.925   4.482  13.979  0.00  0.00    +0.000 A 
ATOM     24  C   UNL     1       5.614   3.933  14.392  0.00  0.00    +0.000 A 
ATOM     25  C   UNL     1       5.084   4.413  15.523  0.00  0.00    +0.000 A 
ATOM     26  C   UNL     1       5.810   5.375  16.271  0.00  0.00    +0.000 A 
ENDBRANCH  11  18
ENDBRANCH   6   8
BRANCH   1  30
ATOM     27  C   UNL     1       4.540  14.856  20.340  0.00  0.00    +0.000 A 
ATOM     28  C   UNL     1       3.849  14.133  21.317  0.00  0.00    +0.000 A 
ATOM     29  C   UNL     1       2.622  13.518  21.021  0.00  0.00    +0.000 A 
ATOM     30  C   UNL     1       2.063  13.631  19.744  0.00  0.00    +0.000 A 
ATOM     31  C   UNL     1       2.726  14.418  18.799  0.00  0.00    +0.000 A 
ATOM     32  C   UNL     1       3.967  14.992  19.078  0.00  0.00    +0.000 A 
BRANCH  27  35
ATOM     33  C   UNL     1       5.946  16.822  20.924  0.00  0.00    +0.000 C 
ATOM     34  O   UNL     1       5.069  17.625  21.207  0.00  0.00    +0.000 OA
ATOM     35  N   UNL     1       5.774  15.506  20.552  0.00  0.00    +0.000 N 
ATOM     36  H   UNL     1       6.603  14.933  20.456  0.00  0.00    +0.000 HD
BRANCH  33  38
ATOM     37  C   UNL     1       7.926  17.556  22.152  0.00  0.00    +0.000 C 
ATOM     38  C   UNL     1       7.383  17.210  20.976  0.00  0.00    +0.000 C 
ENDBRANCH  33  38
ENDBRANCH  27  35
ENDBRANCH   1  30
TORSDOF 5
ENDMDL
MODEL 7
REMARK VINA RESULT:      -8.0      4.211      6.660
REMARK  Name = 
REMARK  5 active torsions:
REMARK  status: ('A' for Active; 'I' for Inactive)
REMARK    1  A    between atoms: C_2  and  C_3
REMARK    2  A    between atoms: N_5  and  C_6
REMARK    3  A    between atoms: C_9  and  C_10
REMARK    4  A    between atoms: C_15  and  C_16
REMARK    5  A    between atoms: C_19  and  C_20
REMARK                            x       y       z     vdW  Elec       q    Type
REMARK                         _______ _______ _______ _____ _____    ______ ____
ROOT
ATOM      1  C   UNL     1      -0.660  11.641  19.099  0.00  0.00    +0.000 C 
ATOM      2  O   UNL     1      -0.311  12.821  19.116  0.00  0.00    +0.000 OA
ATOM      3  N   UNL     1      -0.203  10.728  20.041  0.00  0.00    +0.000 N 
ATOM      4  C   UNL     1       0.610  11.145  21.169  0.00  0.00    +0.000 C 
ATOM      5  C   UNL     1       1.498   9.942  21.455  0.00  0.00    +0.000 C 
ATOM      6  C   UNL     1       0.602   8.751  21.111  0.00  0.00    +0.000 C 
ATOM      7  C   UNL     1      -0.354   9.282  20.039  0.00  0.00    +0.000 C 
ENDROOT
BRANCH   6   8
ATOM      8  C   UNL     1       1.332   7.528  20.668  0.00  0.00    +0.000 A 
ATOM      9  C   UNL     1       2.217   7.361  19.618  0.00  0.00    +0.000 A 
ATOM     10  C   UNL     1       2.696   6.019  19.636  0.00  0.00    +0.000 A 
ATOM     11  C   UNL     1       3.588   5.228  18.880  0.00  0.00    +0.000 A 
ATOM     12  C   UNL     1       3.763   3.899  19.288  0.00  0.00    +0.000 A 
ATOM     13  C   UNL     1       3.037   3.413  20.366  0.00  0.00    +0.000 A 
ATOM     14  N   UNL     1       2.171   4.125  21.113  0.00  0.00    +0.000 NA
ATOM     15  C   UNL     1       2.055   5.401  20.706  0.00  0.00    +0.000 A 
ATOM     16  N   UNL     1       1.250   6.320  21.320  0.00  0.00    +0.000 N 
ATOM     17  H   UNL     1       0.696   6.110  22.139  0.00  0.00    +0.000 HD
BRANCH  11  18
ATOM     18  C   UNL     1       4.296   5.800  17.747  0.00  0.00    +0.000 A 
ATOM     19  C   UNL     1       4.493   7.157  17.388  0.00  0.00    +0.000 A 
ATOM     20  N   UNL     1       5.199   7.310  16.268  0.00  0.00    +0.000 NA
ATOM     21  N   UNL     1       5.490   6.056  15.898  0.00  0.00    +0.000 N 
ATOM     22  N   UNL     1       6.254   5.849  14.802  0.00  0.00    +0.000 NA
ATOM     23  C   UNL     1       6.459   4.596  14.563  0.00  0.00    +0.000 A 
ATOM     24  C   UNL     1       5.935   3.454  15.346  0.00  0.00    +0.000 A 
ATOM     25  C   UNL     1       5.176   3.743  16.409  0.00  0.00    +0.000 A 
ATOM     26  C   UNL     1       4.950   5.103  16.745  0.00  0.00    +0.000 A 
ENDBRANCH  11  18
ENDBRANCH   6   8
BRANCH   1  30
ATOM     27  C   UNL     1      -3.406  10.391  16.005  0.00  0.00    +0.000 A 
ATOM     28  C   UNL     1      -3.700  11.474  16.838  0.00  0.00    +0.000 A 
ATOM     29  C   UNL     1      -2.797  11.881  17.833  0.00  0.00    +0.000 A 
ATOM     30  C   UNL     1      -1.590  11.198  18.016  0.00  0.00    +0.000 A 
ATOM     31  C   UNL     1      -1.341  10.072  17.226  0.00  0.00    +0.000 A 
ATOM     32  C   UNL     1      -2.217   9.694  16.207  0.00  0.00    +0.000 A 
BRANCH  27  35
ATOM     33  C   UNL     1      -3.966   9.874  13.638  0.00  0.00    +0.000 C 
ATOM     34  O   UNL     1      -2.904  10.166  13.107  0.00  0.00    +0.000 OA
ATOM     35  N   UNL     1      -4.256   9.915  14.984  0.00  0.00    +0.000 N 
ATOM     36  H   UNL     1      -5.145   9.537  15.285  0.00  0.00    +0.000 HD
BRANCH  33  38
ATOM     37  C   UNL     1      -5.225   9.778  11.546  0.00  0.00    +0.000 C 
ATOM     38  C   UNL     1      -5.119   9.395  12.827  0.00  0.00    +0.000 C 
ENDBRANCH  33  38
ENDBRANCH  27  35
ENDBRANCH   1  30
TORSDOF 5
ENDMDL
MODEL 8
REMARK VINA RESULT:      -8.0      5.299      7.644
REMARK  Name = 
REMARK  5 active torsions:
REMARK  status: ('A' for Active; 'I' for Inactive)
REMARK    1  A    between atoms: C_2  and  C_3
REMARK    2  A    between atoms: N_5  and  C_6
REMARK    3  A    between atoms: C_9  and  C_10
REMARK    4  A    between atoms: C_15  and  C_16
REMARK    5  A    between atoms: C_19  and  C_20
REMARK                            x       y       z     vdW  Elec       q    Type
REMARK                         _______ _______ _______ _____ _____    ______ ____
ROOT
ATOM      1  C   UNL     1       5.247  17.050  20.070  0.00  0.00    +0.000 C 
ATOM      2  O   UNL     1       5.528  18.065  20.706  0.00  0.00    +0.000 OA
ATOM      3  N   UNL     1       3.943  16.762  19.689  0.00  0.00    +0.000 N 
ATOM      4  C   UNL     1       2.862  17.704  19.911  0.00  0.00    +0.000 C 
ATOM      5  C   UNL     1       1.636  16.825  20.118  0.00  0.00    +0.000 C 
ATOM      6  C   UNL     1       1.897  15.632  19.199  0.00  0.00    +0.000 C 
ATOM      7  C   UNL     1       3.423  15.527  19.124  0.00  0.00    +0.000 C 
ENDROOT
BRANCH   6   8
ATOM      8  C   UNL     1       1.261  14.355  19.636  0.00  0.00    +0.000 A 
ATOM      9  C   UNL     1       0.023  13.831  19.311  0.00  0.00    +0.000 A 
ATOM     10  C   UNL     1      -0.107  12.554  19.933  0.00  0.00    +0.000 A 
ATOM     11  C   UNL     1      -1.077  11.530  20.000  0.00  0.00    +0.000 A 
ATOM     12  C   UNL     1      -0.755  10.398  20.761  0.00  0.00    +0.000 A 
ATOM     13  C   UNL     1       0.457  10.348  21.434  0.00  0.00    +0.000 A 
ATOM     14  N   UNL     1       1.409  11.301  21.406  0.00  0.00    +0.000 NA
ATOM     15  C   UNL     1       1.073  12.356  20.644  0.00  0.00    +0.000 A 
ATOM     16  N   UNL     1       1.885  13.438  20.448  0.00  0.00    +0.000 N 
ATOM     17  H   UNL     1       2.810  13.513  20.849  0.00  0.00    +0.000 HD
BRANCH  11  18
ATOM     18  C   UNL     1      -2.335  11.663  19.286  0.00  0.00    +0.000 A 
ATOM     19  C   UNL     1      -3.539  12.301  19.673  0.00  0.00    +0.000 A 
ATOM     20  N   UNL     1      -4.500  12.222  18.753  0.00  0.00    +0.000 NA
ATOM     21  N   UNL     1      -3.925  11.552  17.746  0.00  0.00    +0.000 N 
ATOM     22  N   UNL     1      -4.624  11.335  16.610  0.00  0.00    +0.000 NA
ATOM     23  C   UNL     1      -3.950  10.683  15.722  0.00  0.00    +0.000 A 
ATOM     24  C   UNL     1      -2.565  10.178  15.865  0.00  0.00    +0.000 A 
ATOM     25  C   UNL     1      -1.947  10.423  17.025  0.00  0.00    +0.000 A 
ATOM     26  C   UNL     1      -2.623  11.170  18.023  0.00  0.00    +0.000 A 
ENDBRANCH  11  18
ENDBRANCH   6   8
BRANCH   1  30
ATOM     27  C   UNL     1       8.467  14.322  19.138  0.00  0.00    +0.000 A 
ATOM     28  C   UNL     1       7.859  14.320  20.398  0.00  0.00    +0.000 A 
ATOM     29  C   UNL     1       6.806  15.202  20.688  0.00  0.00    +0.000 A 
ATOM     30  C   UNL     1       6.355  16.108  19.722  0.00  0.00    +0.000 A 
ATOM     31  C   UNL     1       7.019  16.151  18.494  0.00  0.00    +0.000 A 
ATOM     32  C   UNL     1       8.036  15.245  18.189  0.00  0.00    +0.000 A 
BRANCH  27  35
ATOM     33  C   UNL     1       9.422  12.299  18.053  0.00  0.00    +0.000 C 
ATOM     34  O   UNL     1       8.406  11.832  17.557  0.00  0.00    +0.000 OA
ATOM     35  N   UNL     1       9.530  13.473  18.765  0.00  0.00    +0.000 N 
ATOM     36  H   UNL     1      10.460  13.786  19.017  0.00  0.00    +0.000 HD
BRANCH  33  38
ATOM     37  C   UNL     1      11.695  11.825  18.811  0.00  0.00    +0.000 C 
ATOM     38  C   UNL     1      10.731  11.605  17.905  0.00  0.00    +0.000 C 
ENDBRANCH  33  38
ENDBRANCH  27  35
ENDBRANCH   1  30
TORSDOF 5
ENDMDL
MODEL 9
REMARK VINA RESULT:      -8.0      5.095     10.612
REMARK  Name = 
REMARK  5 active torsions:
REMARK  status: ('A' for Active; 'I' for Inactive)
REMARK    1  A    between atoms: C_2  and  C_3
REMARK    2  A    between atoms: N_5  and  C_6
REMARK    3  A    between atoms: C_9  and  C_10
REMARK    4  A    between atoms: C_15  and  C_16
REMARK    5  A    between atoms: C_19  and  C_20
REMARK                            x       y       z     vdW  Elec       q    Type
REMARK                         _______ _______ _______ _____ _____    ______ ____
ROOT
ATOM      1  C   UNL     1       2.370   6.644  20.172  0.00  0.00    +0.000 C 
ATOM      2  O   UNL     1       2.450   5.864  21.121  0.00  0.00    +0.000 OA
ATOM      3  N   UNL     1       1.684   7.848  20.268  0.00  0.00    +0.000 N 
ATOM      4  C   UNL     1       1.134   8.308  21.530  0.00  0.00    +0.000 C 
ATOM      5  C   UNL     1      -0.095   9.113  21.131  0.00  0.00    +0.000 C 
ATOM      6  C   UNL     1       0.314   9.746  19.800  0.00  0.00    +0.000 C 
ATOM      7  C   UNL     1       1.328   8.769  19.201  0.00  0.00    +0.000 C 
ENDROOT
BRANCH   6   8
ATOM      8  C   UNL     1      -0.817  10.034  18.871  0.00  0.00    +0.000 A 
ATOM      9  C   UNL     1      -2.136  10.339  19.155  0.00  0.00    +0.000 A 
ATOM     10  C   UNL     1      -2.818  10.589  17.928  0.00  0.00    +0.000 A 
ATOM     11  C   UNL     1      -4.125  10.944  17.525  0.00  0.00    +0.000 A 
ATOM     12  C   UNL     1      -4.346  11.095  16.149  0.00  0.00    +0.000 A 
ATOM     13  C   UNL     1      -3.309  10.855  15.258  0.00  0.00    +0.000 A 
ATOM     14  N   UNL     1      -2.052  10.508  15.595  0.00  0.00    +0.000 NA
ATOM     15  C   UNL     1      -1.875  10.402  16.923  0.00  0.00    +0.000 A 
ATOM     16  N   UNL     1      -0.679  10.080  17.503  0.00  0.00    +0.000 N 
ATOM     17  H   UNL     1       0.166   9.917  16.973  0.00  0.00    +0.000 HD
BRANCH  11  18
ATOM     18  C   UNL     1      -5.166  11.157  18.515  0.00  0.00    +0.000 A 
ATOM     19  C   UNL     1      -6.419  10.515  18.671  0.00  0.00    +0.000 A 
ATOM     20  N   UNL     1      -7.125  10.975  19.703  0.00  0.00    +0.000 NA
ATOM     21  N   UNL     1      -6.329  11.907  20.246  0.00  0.00    +0.000 N 
ATOM     22  N   UNL     1      -6.731  12.550  21.364  0.00  0.00    +0.000 NA
ATOM     23  C   UNL     1      -5.868  13.417  21.781  0.00  0.00    +0.000 A 
ATOM     24  C   UNL     1      -4.569  13.739  21.149  0.00  0.00    +0.000 A 
ATOM     25  C   UNL     1      -4.251  13.066  20.037  0.00  0.00    +0.000 A 
ATOM     26  C   UNL     1      -5.141  12.073  19.554  0.00  0.00    +0.000 A 
ENDBRANCH  11  18
ENDBRANCH   6   8
BRANCH   1  30
ATOM     27  C   UNL     1       4.255   5.447  16.471  0.00  0.00    +0.000 A 
ATOM     28  C   UNL     1       3.413   4.575  17.170  0.00  0.00    +0.000 A 
ATOM     29  C   UNL     1       2.796   4.977  18.365  0.00  0.00    +0.000 A 
ATOM     30  C   UNL     1       3.024   6.255  18.885  0.00  0.00    +0.000 A 
ATOM     31  C   UNL     1       3.924   7.090  18.217  0.00  0.00    +0.000 A 
ATOM     32  C   UNL     1       4.503   6.709  17.006  0.00  0.00    +0.000 A 
BRANCH  27  35
ATOM     33  C   UNL     1       5.875   4.149  15.103  0.00  0.00    +0.000 C 
ATOM     34  O   UNL     1       6.259   3.349  15.944  0.00  0.00    +0.000 OA
ATOM     35  N   UNL     1       4.916   5.125  15.267  0.00  0.00    +0.000 N 
ATOM     36  H   UNL     1       4.623   5.639  14.446  0.00  0.00    +0.000 HD
BRANCH  33  38
ATOM     37  C   UNL     1       7.370   5.023  13.380  0.00  0.00    +0.000 C 
ATOM     38  C   UNL     1       6.429   4.130  13.721  0.00  0.00    +0.000 C 
ENDBRANCH  33  38
ENDBRANCH  27  35
ENDBRANCH   1  30
TORSDOF 5
ENDMDL
