MODEL 1
REMARK VINA RESULT:      -8.7      0.000      0.000
REMARK  Name = 
REMARK  4 active torsions:
REMARK  status: ('A' for Active; 'I' for Inactive)
REMARK    1  A    between atoms: C_1  and  O_2
REMARK    2  A    between atoms: O_2  and  C_3
REMARK    3  A    between atoms: C_14  and  C_16
REMARK    4  A    between atoms: C_31  and  O_32
REMARK                            x       y       z     vdW  Elec       q    Type
REMARK                         _______ _______ _______ _____ _____    ______ ____
ROOT
ATOM      1  C   UNL     1      -1.220  12.266  19.848  0.00  0.00    +0.000 A 
ATOM      2  C   UNL     1      -0.829  11.329  20.805  0.00  0.00    +0.000 A 
ATOM      3  C   UNL     1      -0.022  10.210  20.467  0.00  0.00    +0.000 A 
ATOM      4  C   UNL     1       0.383   9.210  21.345  0.00  0.00    +0.000 A 
ATOM      5  N   UNL     1       0.025   9.257  22.702  0.00  0.00    +0.000 N 
ATOM      6  N   UNL     1       1.139   8.162  20.984  0.00  0.00    +0.000 NA
ATOM      7  C   UNL     1       1.523   8.064  19.701  0.00  0.00    +0.000 A 
ATOM      8  N   UNL     1       2.189   6.902  19.287  0.00  0.00    +0.000 N 
ATOM      9  C   UNL     1       2.916   6.185  20.349  0.00  0.00    +0.000 C 
ATOM     10  C   UNL     1       3.392   4.802  19.851  0.00  0.00    +0.000 C 
ATOM     11  N   UNL     1       4.126   4.869  18.567  0.00  0.00    +0.000 N 
ATOM     12  C   UNL     1       5.196   4.006  18.380  0.00  0.00    +0.000 C 
ATOM     13  O   UNL     1       5.569   3.294  19.327  0.00  0.00    +0.000 OA
ATOM     14  C   UNL     1       3.389   5.595  17.528  0.00  0.00    +0.000 C 
ATOM     15  C   UNL     1       2.918   6.994  18.010  0.00  0.00    +0.000 C 
ATOM     16  N   UNL     1       1.196   9.000  18.787  0.00  0.00    +0.000 NA
ATOM     17  C   UNL     1       0.450  10.052  19.165  0.00  0.00    +0.000 A 
ATOM     18  C   UNL     1       0.096  11.023  18.231  0.00  0.00    +0.000 A 
ATOM     19  C   UNL     1      -0.723  12.120  18.556  0.00  0.00    +0.000 A 
ATOM     20  H   UNL     1      -0.976   9.359  22.829  0.00  0.00    +0.000 HD
ATOM     21  H   UNL     1       0.374   8.407  23.132  0.00  0.00    +0.000 HD
ENDROOT
BRANCH  12  22
ATOM     22  C   UNL     1       6.099   3.991  17.100  0.00  0.00    +0.000 C 
ATOM     23  C   UNL     1       6.479   5.462  16.905  0.00  0.00    +0.000 C 
ATOM     24  O   UNL     1       7.598   5.578  16.028  0.00  0.00    +0.000 OA
ATOM     25  C   UNL     1       7.244   5.009  14.835  0.00  0.00    +0.000 A 
ATOM     26  C   UNL     1       7.724   5.640  13.689  0.00  0.00    +0.000 A 
ATOM     27  C   UNL     1       7.328   5.179  12.438  0.00  0.00    +0.000 A 
ATOM     28  C   UNL     1       6.539   4.031  12.346  0.00  0.00    +0.000 A 
ATOM     29  C   UNL     1       6.084   3.381  13.504  0.00  0.00    +0.000 A 
ATOM     30  C   UNL     1       6.383   3.907  14.762  0.00  0.00    +0.000 A 
ATOM     31  O   UNL     1       5.731   3.378  15.863  0.00  0.00    +0.000 OA
ENDBRANCH  12  22
BRANCH   1  33
ATOM     32  C   UNL     1      -3.426  12.957  20.395  0.00  0.00    +0.000 C 
ATOM     33  O   UNL     1      -2.035  13.259  20.320  0.00  0.00    +0.000 OA
ENDBRANCH   1  33
BRANCH  19  34
ATOM     34  O   UNL     1      -1.017  13.038  17.588  0.00  0.00    +0.000 OA
ATOM     35  H   UNL     1      -1.534  13.760  17.980  0.00  0.00    +0.000 HD
ENDBRANCH  19  34
TORSDOF 3
ENDMDL
MODEL 2
REMARK VINA RESULT:      -8.7      3.729      5.687
REMARK  Name = 
REMARK  4 active torsions:
REMARK  status: ('A' for Active; 'I' for Inactive)
REMARK    1  A    between atoms: C_1  and  O_2
REMARK    2  A    between atoms: O_2  and  C_3
REMARK    3  A    between atoms: C_14  and  C_16
REMARK    4  A    between atoms: C_31  and  O_32
REMARK                            x       y       z     vdW  Elec       q    Type
REMARK                         _______ _______ _______ _____ _____    ______ ____
ROOT
ATOM      1  C   UNL     1      -4.194  14.341  23.718  0.00  0.00    +0.000 A 
ATOM      2  C   UNL     1      -3.546  14.611  22.512  0.00  0.00    +0.000 A 
ATOM      3  C   UNL     1      -2.645  13.683  21.925  0.00  0.00    +0.000 A 
ATOM      4  C   UNL     1      -1.929  13.883  20.749  0.00  0.00    +0.000 A 
ATOM      5  N   UNL     1      -2.078  15.068  20.010  0.00  0.00    +0.000 N 
ATOM      6  N   UNL     1      -1.079  12.984  20.232  0.00  0.00    +0.000 NA
ATOM      7  C   UNL     1      -0.899  11.825  20.886  0.00  0.00    +0.000 A 
ATOM      8  N   UNL     1       0.091  10.944  20.431  0.00  0.00    +0.000 N 
ATOM      9  C   UNL     1       0.425  11.062  19.000  0.00  0.00    +0.000 C 
ATOM     10  C   UNL     1       1.689  10.240  18.662  0.00  0.00    +0.000 C 
ATOM     11  N   UNL     1       1.619   8.843  19.144  0.00  0.00    +0.000 N 
ATOM     12  C   UNL     1       2.183   7.850  18.355  0.00  0.00    +0.000 C 
ATOM     13  O   UNL     1       2.623   8.149  17.234  0.00  0.00    +0.000 OA
ATOM     14  C   UNL     1       1.275   8.748  20.566  0.00  0.00    +0.000 C 
ATOM     15  C   UNL     1      -0.002   9.557  20.917  0.00  0.00    +0.000 C 
ATOM     16  N   UNL     1      -1.569  11.537  22.021  0.00  0.00    +0.000 NA
ATOM     17  C   UNL     1      -2.429  12.441  22.521  0.00  0.00    +0.000 A 
ATOM     18  C   UNL     1      -3.122  12.163  23.696  0.00  0.00    +0.000 A 
ATOM     19  C   UNL     1      -3.998  13.089  24.294  0.00  0.00    +0.000 A 
ATOM     20  H   UNL     1      -1.927  15.894  20.580  0.00  0.00    +0.000 HD
ATOM     21  H   UNL     1      -1.424  15.021  19.237  0.00  0.00    +0.000 HD
ENDROOT
BRANCH  12  22
ATOM     22  C   UNL     1       2.145   6.324  18.704  0.00  0.00    +0.000 C 
ATOM     23  C   UNL     1       3.371   6.125  19.602  0.00  0.00    +0.000 C 
ATOM     24  O   UNL     1       3.272   4.895  20.318  0.00  0.00    +0.000 OA
ATOM     25  C   UNL     1       3.183   3.889  19.394  0.00  0.00    +0.000 A 
ATOM     26  C   UNL     1       3.848   2.707  19.710  0.00  0.00    +0.000 A 
ATOM     27  C   UNL     1       3.884   1.673  18.779  0.00  0.00    +0.000 A 
ATOM     28  C   UNL     1       3.170   1.797  17.586  0.00  0.00    +0.000 A 
ATOM     29  C   UNL     1       2.475   2.980  17.287  0.00  0.00    +0.000 A 
ATOM     30  C   UNL     1       2.531   4.062  18.166  0.00  0.00    +0.000 A 
ATOM     31  O   UNL     1       2.032   5.279  17.736  0.00  0.00    +0.000 OA
ENDBRANCH  12  22
BRANCH   1  33
ATOM     32  C   UNL     1      -6.324  15.393  23.670  0.00  0.00    +0.000 C 
ATOM     33  O   UNL     1      -4.993  15.353  24.177  0.00  0.00    +0.000 OA
ENDBRANCH   1  33
BRANCH  19  34
ATOM     34  O   UNL     1      -4.652  12.738  25.441  0.00  0.00    +0.000 OA
ATOM     35  H   UNL     1      -5.118  11.898  25.297  0.00  0.00    +0.000 HD
ENDBRANCH  19  34
TORSDOF 3
ENDMDL
MODEL 3
REMARK VINA RESULT:      -8.6      1.575      1.777
REMARK  Name = 
REMARK  4 active torsions:
REMARK  status: ('A' for Active; 'I' for Inactive)
REMARK    1  A    between atoms: C_1  and  O_2
REMARK    2  A    between atoms: O_2  and  C_3
REMARK    3  A    between atoms: C_14  and  C_16
REMARK    4  A    between atoms: C_31  and  O_32
REMARK                            x       y       z     vdW  Elec       q    Type
REMARK                         _______ _______ _______ _____ _____    ______ ____
ROOT
ATOM      1  C   UNL     1      -0.392  13.420  20.967  0.00  0.00    +0.000 A 
ATOM      2  C   UNL     1      -0.500  12.310  21.805  0.00  0.00    +0.000 A 
ATOM      3  C   UNL     1       0.008  11.038  21.427  0.00  0.00    +0.000 A 
ATOM      4  C   UNL     1      -0.088   9.873  22.180  0.00  0.00    +0.000 A 
ATOM      5  N   UNL     1      -0.702   9.881  23.443  0.00  0.00    +0.000 N 
ATOM      6  N   UNL     1       0.398   8.687  21.783  0.00  0.00    +0.000 NA
ATOM      7  C   UNL     1       1.005   8.613  20.588  0.00  0.00    +0.000 A 
ATOM      8  N   UNL     1       1.387   7.354  20.104  0.00  0.00    +0.000 N 
ATOM      9  C   UNL     1       1.632   6.335  21.139  0.00  0.00    +0.000 C 
ATOM     10  C   UNL     1       1.791   4.935  20.504  0.00  0.00    +0.000 C 
ATOM     11  N   UNL     1       2.772   4.908  19.396  0.00  0.00    +0.000 N 
ATOM     12  C   UNL     1       3.566   3.779  19.254  0.00  0.00    +0.000 C 
ATOM     13  O   UNL     1       3.507   2.888  20.117  0.00  0.00    +0.000 OA
ATOM     14  C   UNL     1       2.515   5.937  18.384  0.00  0.00    +0.000 C 
ATOM     15  C   UNL     1       2.369   7.351  19.007  0.00  0.00    +0.000 C 
ATOM     16  N   UNL     1       1.164   9.698  19.802  0.00  0.00    +0.000 NA
ATOM     17  C   UNL     1       0.685  10.884  20.218  0.00  0.00    +0.000 A 
ATOM     18  C   UNL     1       0.832  12.012  19.415  0.00  0.00    +0.000 A 
ATOM     19  C   UNL     1       0.310  13.268  19.775  0.00  0.00    +0.000 A 
ATOM     20  H   UNL     1      -1.635  10.277  23.410  0.00  0.00    +0.000 HD
ATOM     21  H   UNL     1      -0.711   8.923  23.776  0.00  0.00    +0.000 HD
ENDROOT
BRANCH  12  22
ATOM     22  C   UNL     1       4.682   3.622  18.165  0.00  0.00    +0.000 C 
ATOM     23  C   UNL     1       5.637   4.784  18.452  0.00  0.00    +0.000 C 
ATOM     24  O   UNL     1       6.894   4.568  17.814  0.00  0.00    +0.000 OA
ATOM     25  C   UNL     1       6.658   4.459  16.470  0.00  0.00    +0.000 A 
ATOM     26  C   UNL     1       7.614   5.027  15.632  0.00  0.00    +0.000 A 
ATOM     27  C   UNL     1       7.397   5.041  14.258  0.00  0.00    +0.000 A 
ATOM     28  C   UNL     1       6.275   4.397  13.732  0.00  0.00    +0.000 A 
ATOM     29  C   UNL     1       5.330   3.799  14.581  0.00  0.00    +0.000 A 
ATOM     30  C   UNL     1       5.485   3.883  15.965  0.00  0.00    +0.000 A 
ATOM     31  O   UNL     1       4.427   3.488  16.766  0.00  0.00    +0.000 OA
ENDBRANCH  12  22
BRANCH   1  33
ATOM     32  C   UNL     1      -0.803  14.818  22.843  0.00  0.00    +0.000 C 
ATOM     33  O   UNL     1      -0.973  14.561  21.452  0.00  0.00    +0.000 OA
ENDBRANCH   1  33
BRANCH  19  34
ATOM     34  O   UNL     1       0.506  14.331  18.939  0.00  0.00    +0.000 OA
ATOM     35  H   UNL     1       1.279  14.835  19.242  0.00  0.00    +0.000 HD
ENDBRANCH  19  34
TORSDOF 3
ENDMDL
MODEL 4
REMARK VINA RESULT:      -8.5      3.410      5.878
REMARK  Name = 
REMARK  4 active torsions:
REMARK  status: ('A' for Active; 'I' for Inactive)
REMARK    1  A    between atoms: C_1  and  O_2
REMARK    2  A    between atoms: O_2  and  C_3
REMARK    3  A    between atoms: C_14  and  C_16
REMARK    4  A    between atoms: C_31  and  O_32
REMARK                            x       y       z     vdW  Elec       q    Type
REMARK                         _______ _______ _______ _____ _____    ______ ____
ROOT
ATOM      1  C   UNL     1      -4.585  13.952  23.797  0.00  0.00    +0.000 A 
ATOM      2  C   UNL     1      -4.084  14.220  22.522  0.00  0.00    +0.000 A 
ATOM      3  C   UNL     1      -3.082  13.407  21.929  0.00  0.00    +0.000 A 
ATOM      4  C   UNL     1      -2.500  13.620  20.683  0.00  0.00    +0.000 A 
ATOM      5  N   UNL     1      -2.906  14.694  19.875  0.00  0.00    +0.000 N 
ATOM      6  N   UNL     1      -1.548  12.833  20.160  0.00  0.00    +0.000 NA
ATOM      7  C   UNL     1      -1.122  11.782  20.880  0.00  0.00    +0.000 A 
ATOM      8  N   UNL     1      -0.031  11.041  20.405  0.00  0.00    +0.000 N 
ATOM      9  C   UNL     1       0.170  11.088  18.947  0.00  0.00    +0.000 C 
ATOM     10  C   UNL     1       1.529  10.462  18.560  0.00  0.00    +0.000 C 
ATOM     11  N   UNL     1       1.738   9.120  19.148  0.00  0.00    +0.000 N 
ATOM     12  C   UNL     1       2.406   8.170  18.388  0.00  0.00    +0.000 C 
ATOM     13  O   UNL     1       2.703   8.439  17.213  0.00  0.00    +0.000 OA
ATOM     14  C   UNL     1       1.522   9.094  20.598  0.00  0.00    +0.000 C 
ATOM     15  C   UNL     1       0.153   9.706  20.999  0.00  0.00    +0.000 C 
ATOM     16  N   UNL     1      -1.647  11.487  22.087  0.00  0.00    +0.000 NA
ATOM     17  C   UNL     1      -2.611  12.275  22.593  0.00  0.00    +0.000 A 
ATOM     18  C   UNL     1      -3.157  11.989  23.842  0.00  0.00    +0.000 A 
ATOM     19  C   UNL     1      -4.133  12.805  24.444  0.00  0.00    +0.000 A 
ATOM     20  H   UNL     1      -2.859  15.580  20.367  0.00  0.00    +0.000 HD
ATOM     21  H   UNL     1      -2.313  14.689  19.052  0.00  0.00    +0.000 HD
ENDROOT
BRANCH  12  22
ATOM     22  C   UNL     1       2.659   6.695  18.850  0.00  0.00    +0.000 C 
ATOM     23  C   UNL     1       3.630   6.146  17.801  0.00  0.00    +0.000 C 
ATOM     24  O   UNL     1       4.261   4.958  18.276  0.00  0.00    +0.000 OA
ATOM     25  C   UNL     1       3.275   4.049  18.543  0.00  0.00    +0.000 A 
ATOM     26  C   UNL     1       3.566   2.721  18.237  0.00  0.00    +0.000 A 
ATOM     27  C   UNL     1       2.581   1.752  18.390  0.00  0.00    +0.000 A 
ATOM     28  C   UNL     1       1.348   2.105  18.942  0.00  0.00    +0.000 A 
ATOM     29  C   UNL     1       1.071   3.440  19.277  0.00  0.00    +0.000 A 
ATOM     30  C   UNL     1       2.015   4.434  19.019  0.00  0.00    +0.000 A 
ATOM     31  O   UNL     1       1.624   5.756  19.146  0.00  0.00    +0.000 OA
ENDBRANCH  12  22
BRANCH   1  33
ATOM     32  C   UNL     1      -6.866  14.606  23.888  0.00  0.00    +0.000 C 
ATOM     33  O   UNL     1      -5.510  14.853  24.249  0.00  0.00    +0.000 OA
ENDBRANCH   1  33
BRANCH  19  34
ATOM     34  O   UNL     1      -4.629  12.452  25.667  0.00  0.00    +0.000 OA
ATOM     35  H   UNL     1      -3.930  12.019  26.181  0.00  0.00    +0.000 HD
ENDBRANCH  19  34
TORSDOF 3
ENDMDL
MODEL 5
REMARK VINA RESULT:      -8.4      3.411     11.509
REMARK  Name = 
REMARK  4 active torsions:
REMARK  status: ('A' for Active; 'I' for Inactive)
REMARK    1  A    between atoms: C_1  and  O_2
REMARK    2  A    between atoms: O_2  and  C_3
REMARK    3  A    between atoms: C_14  and  C_16
REMARK    4  A    between atoms: C_31  and  O_32
REMARK                            x       y       z     vdW  Elec       q    Type
REMARK                         _______ _______ _______ _____ _____    ______ ____
ROOT
ATOM      1  C   UNL     1       3.460   3.162  19.864  0.00  0.00    +0.000 A 
ATOM      2  C   UNL     1       3.685   4.227  18.991  0.00  0.00    +0.000 A 
ATOM      3  C   UNL     1       3.074   5.495  19.187  0.00  0.00    +0.000 A 
ATOM      4  C   UNL     1       3.212   6.597  18.350  0.00  0.00    +0.000 A 
ATOM      5  N   UNL     1       4.030   6.536  17.210  0.00  0.00    +0.000 N 
ATOM      6  N   UNL     1       2.610   7.777  18.566  0.00  0.00    +0.000 NA
ATOM      7  C   UNL     1       1.821   7.903  19.645  0.00  0.00    +0.000 A 
ATOM      8  N   UNL     1       1.077   9.081  19.799  0.00  0.00    +0.000 N 
ATOM      9  C   UNL     1       1.641  10.268  19.133  0.00  0.00    +0.000 C 
ATOM     10  C   UNL     1       0.629  11.436  19.144  0.00  0.00    +0.000 C 
ATOM     11  N   UNL     1       0.077  11.713  20.490  0.00  0.00    +0.000 N 
ATOM     12  C   UNL     1      -0.169  13.034  20.836  0.00  0.00    +0.000 C 
ATOM     13  O   UNL     1       0.181  13.936  20.059  0.00  0.00    +0.000 OA
ATOM     14  C   UNL     1      -0.468  10.516  21.138  0.00  0.00    +0.000 C 
ATOM     15  C   UNL     1       0.544   9.339  21.147  0.00  0.00    +0.000 C 
ATOM     16  N   UNL     1       1.649   6.893  20.522  0.00  0.00    +0.000 NA
ATOM     17  C   UNL     1       2.270   5.721  20.303  0.00  0.00    +0.000 A 
ATOM     18  C   UNL     1       2.095   4.666  21.194  0.00  0.00    +0.000 A 
ATOM     19  C   UNL     1       2.679   3.402  20.992  0.00  0.00    +0.000 A 
ATOM     20  H   UNL     1       3.791   5.753  16.612  0.00  0.00    +0.000 HD
ATOM     21  H   UNL     1       3.932   7.422  16.725  0.00  0.00    +0.000 HD
ENDROOT
BRANCH  12  22
ATOM     22  C   UNL     1      -0.704  13.489  22.236  0.00  0.00    +0.000 C 
ATOM     23  C   UNL     1      -2.210  13.656  22.015  0.00  0.00    +0.000 C 
ATOM     24  O   UNL     1      -2.899  13.687  23.264  0.00  0.00    +0.000 OA
ATOM     25  C   UNL     1      -2.398  14.740  23.981  0.00  0.00    +0.000 A 
ATOM     26  C   UNL     1      -3.317  15.451  24.749  0.00  0.00    +0.000 A 
ATOM     27  C   UNL     1      -2.903  16.590  25.430  0.00  0.00    +0.000 A 
ATOM     28  C   UNL     1      -1.553  16.948  25.416  0.00  0.00    +0.000 A 
ATOM     29  C   UNL     1      -0.625  16.208  24.665  0.00  0.00    +0.000 A 
ATOM     30  C   UNL     1      -1.056  15.132  23.888  0.00  0.00    +0.000 A 
ATOM     31  O   UNL     1      -0.163  14.576  22.989  0.00  0.00    +0.000 OA
ENDBRANCH  12  22
BRANCH   1  33
ATOM     32  C   UNL     1       3.649   1.384  18.300  0.00  0.00    +0.000 C 
ATOM     33  O   UNL     1       4.081   1.994  19.513  0.00  0.00    +0.000 OA
ENDBRANCH   1  33
BRANCH  19  34
ATOM     34  O   UNL     1       2.472   2.419  21.918  0.00  0.00    +0.000 OA
ATOM     35  H   UNL     1       3.002   2.611  22.708  0.00  0.00    +0.000 HD
ENDBRANCH  19  34
TORSDOF 3
ENDMDL
MODEL 6
REMARK VINA RESULT:      -8.3      3.527      6.173
REMARK  Name = 
REMARK  4 active torsions:
REMARK  status: ('A' for Active; 'I' for Inactive)
REMARK    1  A    between atoms: C_1  and  O_2
REMARK    2  A    between atoms: O_2  and  C_3
REMARK    3  A    between atoms: C_14  and  C_16
REMARK    4  A    between atoms: C_31  and  O_32
REMARK                            x       y       z     vdW  Elec       q    Type
REMARK                         _______ _______ _______ _____ _____    ______ ____
ROOT
ATOM      1  C   UNL     1      -5.224  13.634  23.811  0.00  0.00    +0.000 A 
ATOM      2  C   UNL     1      -5.027  13.651  22.429  0.00  0.00    +0.000 A 
ATOM      3  C   UNL     1      -3.944  12.960  21.822  0.00  0.00    +0.000 A 
ATOM      4  C   UNL     1      -3.651  12.953  20.462  0.00  0.00    +0.000 A 
ATOM      5  N   UNL     1      -4.464  13.642  19.548  0.00  0.00    +0.000 N 
ATOM      6  N   UNL     1      -2.612  12.294  19.928  0.00  0.00    +0.000 NA
ATOM      7  C   UNL     1      -1.801  11.607  20.748  0.00  0.00    +0.000 A 
ATOM      8  N   UNL     1      -0.636  11.036  20.218  0.00  0.00    +0.000 N 
ATOM      9  C   UNL     1      -0.689  10.728  18.778  0.00  0.00    +0.000 C 
ATOM     10  C   UNL     1       0.711  10.350  18.246  0.00  0.00    +0.000 C 
ATOM     11  N   UNL     1       1.377   9.304  19.055  0.00  0.00    +0.000 N 
ATOM     12  C   UNL     1       2.155   8.364  18.395  0.00  0.00    +0.000 C 
ATOM     13  O   UNL     1       2.175   8.362  17.153  0.00  0.00    +0.000 OA
ATOM     14  C   UNL     1       1.410   9.627  20.485  0.00  0.00    +0.000 C 
ATOM     15  C   UNL     1       0.006   9.994  21.037  0.00  0.00    +0.000 C 
ATOM     16  N   UNL     1      -2.024  11.540  22.077  0.00  0.00    +0.000 NA
ATOM     17  C   UNL     1      -3.077  12.193  22.598  0.00  0.00    +0.000 A 
ATOM     18  C   UNL     1      -3.316  12.141  23.969  0.00  0.00    +0.000 A 
ATOM     19  C   UNL     1      -4.373  12.844  24.578  0.00  0.00    +0.000 A 
ATOM     20  H   UNL     1      -4.589  14.615  19.807  0.00  0.00    +0.000 HD
ATOM     21  H   UNL     1      -4.030  13.549  18.635  0.00  0.00    +0.000 HD
ENDROOT
BRANCH  12  22
ATOM     22  C   UNL     1       2.880   7.170  19.105  0.00  0.00    +0.000 C 
ATOM     23  C   UNL     1       3.549   6.413  17.953  0.00  0.00    +0.000 C 
ATOM     24  O   UNL     1       4.558   5.537  18.450  0.00  0.00    +0.000 OA
ATOM     25  C   UNL     1       3.954   4.664  19.313  0.00  0.00    +0.000 A 
ATOM     26  C   UNL     1       4.426   3.354  19.290  0.00  0.00    +0.000 A 
ATOM     27  C   UNL     1       3.799   2.387  20.069  0.00  0.00    +0.000 A 
ATOM     28  C   UNL     1       2.771   2.763  20.937  0.00  0.00    +0.000 A 
ATOM     29  C   UNL     1       2.320   4.091  20.978  0.00  0.00    +0.000 A 
ATOM     30  C   UNL     1       2.869   5.041  20.115  0.00  0.00    +0.000 A 
ATOM     31  O   UNL     1       2.248   6.275  20.021  0.00  0.00    +0.000 OA
ENDBRANCH  12  22
BRANCH   1  33
ATOM     32  C   UNL     1      -7.133  14.928  23.242  0.00  0.00    +0.000 C 
ATOM     33  O   UNL     1      -6.281  14.387  24.247  0.00  0.00    +0.000 OA
ENDBRANCH   1  33
BRANCH  19  34
ATOM     34  O   UNL     1      -4.551  12.733  25.928  0.00  0.00    +0.000 OA
ATOM     35  H   UNL     1      -4.752  11.809  26.148  0.00  0.00    +0.000 HD
ENDBRANCH  19  34
TORSDOF 3
ENDMDL
MODEL 7
REMARK VINA RESULT:      -8.3      4.139      6.350
REMARK  Name = 
REMARK  4 active torsions:
REMARK  status: ('A' for Active; 'I' for Inactive)
REMARK    1  A    between atoms: C_1  and  O_2
REMARK    2  A    between atoms: O_2  and  C_3
REMARK    3  A    between atoms: C_14  and  C_16
REMARK    4  A    between atoms: C_31  and  O_32
REMARK                            x       y       z     vdW  Elec       q    Type
REMARK                         _______ _______ _______ _____ _____    ______ ____
ROOT
ATOM      1  C   UNL     1      -4.381  14.072  23.814  0.00  0.00    +0.000 A 
ATOM      2  C   UNL     1      -3.811  14.404  22.584  0.00  0.00    +0.000 A 
ATOM      3  C   UNL     1      -2.841  13.572  21.963  0.00  0.00    +0.000 A 
ATOM      4  C   UNL     1      -2.196  13.842  20.760  0.00  0.00    +0.000 A 
ATOM      5  N   UNL     1      -2.496  15.002  20.028  0.00  0.00    +0.000 N 
ATOM      6  N   UNL     1      -1.277  13.034  20.210  0.00  0.00    +0.000 NA
ATOM      7  C   UNL     1      -0.952  11.903  20.857  0.00  0.00    +0.000 A 
ATOM      8  N   UNL     1       0.106  11.128  20.363  0.00  0.00    +0.000 N 
ATOM      9  C   UNL     1       0.371  11.275  18.921  0.00  0.00    +0.000 C 
ATOM     10  C   UNL     1       1.700  10.589  18.535  0.00  0.00    +0.000 C 
ATOM     11  N   UNL     1       1.795   9.193  19.018  0.00  0.00    +0.000 N 
ATOM     12  C   UNL     1       2.429   8.262  18.208  0.00  0.00    +0.000 C 
ATOM     13  O   UNL     1       2.792   8.601  17.070  0.00  0.00    +0.000 OA
ATOM     14  C   UNL     1       1.517   9.068  20.452  0.00  0.00    +0.000 C 
ATOM     15  C   UNL     1       0.177   9.741  20.853  0.00  0.00    +0.000 C 
ATOM     16  N   UNL     1      -1.545  11.551  22.016  0.00  0.00    +0.000 NA
ATOM     17  C   UNL     1      -2.475  12.362  22.549  0.00  0.00    +0.000 A 
ATOM     18  C   UNL     1      -3.090  12.018  23.750  0.00  0.00    +0.000 A 
ATOM     19  C   UNL     1      -4.033  12.850  24.381  0.00  0.00    +0.000 A 
ATOM     20  H   UNL     1      -2.410  15.841  20.591  0.00  0.00    +0.000 HD
ATOM     21  H   UNL     1      -1.870  15.021  19.230  0.00  0.00    +0.000 HD
ENDROOT
BRANCH  12  22
ATOM     22  C   UNL     1       2.564   6.741  18.558  0.00  0.00    +0.000 C 
ATOM     23  C   UNL     1       1.443   6.081  17.750  0.00  0.00    +0.000 C 
ATOM     24  O   UNL     1       1.663   4.675  17.645  0.00  0.00    +0.000 OA
ATOM     25  C   UNL     1       1.701   4.171  18.917  0.00  0.00    +0.000 A 
ATOM     26  C   UNL     1       1.119   2.918  19.097  0.00  0.00    +0.000 A 
ATOM     27  C   UNL     1       1.033   2.382  20.377  0.00  0.00    +0.000 A 
ATOM     28  C   UNL     1       1.619   3.060  21.448  0.00  0.00    +0.000 A 
ATOM     29  C   UNL     1       2.232   4.308  21.255  0.00  0.00    +0.000 A 
ATOM     30  C   UNL     1       2.219   4.903  19.993  0.00  0.00    +0.000 A 
ATOM     31  O   UNL     1       2.623   6.223  19.888  0.00  0.00    +0.000 OA
ENDBRANCH  12  22
BRANCH   1  33
ATOM     32  C   UNL     1      -5.360  16.224  23.586  0.00  0.00    +0.000 C 
ATOM     33  O   UNL     1      -5.263  14.997  24.304  0.00  0.00    +0.000 OA
ENDBRANCH   1  33
BRANCH  19  34
ATOM     34  O   UNL     1      -4.603  12.436  25.552  0.00  0.00    +0.000 OA
ATOM     35  H   UNL     1      -4.542  11.469  25.611  0.00  0.00    +0.000 HD
ENDBRANCH  19  34
TORSDOF 3
ENDMDL
MODEL 8
REMARK VINA RESULT:      -8.1      1.987      2.646
REMARK  Name = 
REMARK  4 active torsions:
REMARK  status: ('A' for Active; 'I' for Inactive)
REMARK    1  A    between atoms: C_1  and  O_2
REMARK    2  A    between atoms: O_2  and  C_3
REMARK    3  A    between atoms: C_14  and  C_16
REMARK    4  A    between atoms: C_31  and  O_32
REMARK                            x       y       z     vdW  Elec       q    Type
REMARK                         _______ _______ _______ _____ _____    ______ ____
ROOT
ATOM      1  C   UNL     1       0.238  14.824  20.134  0.00  0.00    +0.000 A 
ATOM      2  C   UNL     1      -0.107  13.839  21.060  0.00  0.00    +0.000 A 
ATOM      3  C   UNL     1       0.239  12.476  20.863  0.00  0.00    +0.000 A 
ATOM      4  C   UNL     1      -0.094  11.426  21.712  0.00  0.00    +0.000 A 
ATOM      5  N   UNL     1      -0.809  11.660  22.898  0.00  0.00    +0.000 N 
ATOM      6  N   UNL     1       0.243  10.147  21.486  0.00  0.00    +0.000 NA
ATOM      7  C   UNL     1       0.936   9.858  20.372  0.00  0.00    +0.000 A 
ATOM      8  N   UNL     1       1.168   8.512  20.056  0.00  0.00    +0.000 N 
ATOM      9  C   UNL     1       1.167   7.591  21.206  0.00  0.00    +0.000 C 
ATOM     10  C   UNL     1       1.172   6.121  20.730  0.00  0.00    +0.000 C 
ATOM     11  N   UNL     1       2.232   5.835  19.738  0.00  0.00    +0.000 N 
ATOM     12  C   UNL     1       2.860   4.598  19.790  0.00  0.00    +0.000 C 
ATOM     13  O   UNL     1       2.594   3.826  20.724  0.00  0.00    +0.000 OA
ATOM     14  C   UNL     1       2.221   6.770  18.609  0.00  0.00    +0.000 C 
ATOM     15  C   UNL     1       2.232   8.251  19.072  0.00  0.00    +0.000 C 
ATOM     16  N   UNL     1       1.322  10.816  19.505  0.00  0.00    +0.000 NA
ATOM     17  C   UNL     1       0.990  12.095  19.751  0.00  0.00    +0.000 A 
ATOM     18  C   UNL     1       1.373  13.095  18.861  0.00  0.00    +0.000 A 
ATOM     19  C   UNL     1       1.012  14.444  19.040  0.00  0.00    +0.000 A 
ATOM     20  H   UNL     1      -1.667  12.174  22.730  0.00  0.00    +0.000 HD
ATOM     21  H   UNL     1      -0.990  10.756  23.320  0.00  0.00    +0.000 HD
ENDROOT
BRANCH  12  22
ATOM     22  C   UNL     1       4.032   4.168  18.843  0.00  0.00    +0.000 C 
ATOM     23  C   UNL     1       5.183   5.095  19.243  0.00  0.00    +0.000 C 
ATOM     24  O   UNL     1       6.426   4.587  18.760  0.00  0.00    +0.000 OA
ATOM     25  C   UNL     1       6.330   4.499  17.398  0.00  0.00    +0.000 A 
ATOM     26  C   UNL     1       7.481   4.817  16.681  0.00  0.00    +0.000 A 
ATOM     27  C   UNL     1       7.436   4.844  15.292  0.00  0.00    +0.000 A 
ATOM     28  C   UNL     1       6.268   4.454  14.634  0.00  0.00    +0.000 A 
ATOM     29  C   UNL     1       5.120   4.103  15.362  0.00  0.00    +0.000 A 
ATOM     30  C   UNL     1       5.126   4.186  16.755  0.00  0.00    +0.000 A 
ATOM     31  O   UNL     1       3.919   4.058  17.423  0.00  0.00    +0.000 OA
ENDBRANCH  12  22
BRANCH   1  33
ATOM     32  C   UNL     1      -1.612  16.228  20.632  0.00  0.00    +0.000 C 
ATOM     33  O   UNL     1      -0.207  16.081  20.442  0.00  0.00    +0.000 OA
ENDBRANCH   1  33
BRANCH  19  34
ATOM     34  O   UNL     1       1.437  15.370  18.130  0.00  0.00    +0.000 OA
ATOM     35  H   UNL     1       0.794  16.097  18.092  0.00  0.00    +0.000 HD
ENDBRANCH  19  34
TORSDOF 3
ENDMDL
MODEL 9
REMARK VINA RESULT:      -7.9      2.386     11.217
REMARK  Name = 
REMARK  4 active torsions:
REMARK  status: ('A' for Active; 'I' for Inactive)
REMARK    1  A    between atoms: C_1  and  O_2
REMARK    2  A    between atoms: O_2  and  C_3
REMARK    3  A    between atoms: C_14  and  C_16
REMARK    4  A    between atoms: C_31  and  O_32
REMARK                            x       y       z     vdW  Elec       q    Type
REMARK                         _______ _______ _______ _____ _____    ______ ____
ROOT
ATOM      1  C   UNL     1       4.478   5.436  17.441  0.00  0.00    +0.000 A 
ATOM      2  C   UNL     1       3.765   5.165  18.610  0.00  0.00    +0.000 A 
ATOM      3  C   UNL     1       2.967   6.155  19.243  0.00  0.00    +0.000 A 
ATOM      4  C   UNL     1       2.255   5.985  20.426  0.00  0.00    +0.000 A 
ATOM      5  N   UNL     1       2.256   4.750  21.094  0.00  0.00    +0.000 N 
ATOM      6  N   UNL     1       1.518   6.949  20.997  0.00  0.00    +0.000 NA
ATOM      7  C   UNL     1       1.468   8.152  20.402  0.00  0.00    +0.000 A 
ATOM      8  N   UNL     1       0.820   9.203  21.066  0.00  0.00    +0.000 N 
ATOM      9  C   UNL     1      -0.221   8.791  22.024  0.00  0.00    +0.000 C 
ATOM     10  C   UNL     1      -0.686   9.991  22.878  0.00  0.00    +0.000 C 
ATOM     11  N   UNL     1      -1.056  11.173  22.067  0.00  0.00    +0.000 N 
ATOM     12  C   UNL     1      -2.122  11.952  22.495  0.00  0.00    +0.000 C 
ATOM     13  O   UNL     1      -2.792  11.573  23.469  0.00  0.00    +0.000 OA
ATOM     14  C   UNL     1      -0.011  11.558  21.114  0.00  0.00    +0.000 C 
ATOM     15  C   UNL     1       0.455  10.365  20.238  0.00  0.00    +0.000 C 
ATOM     16  N   UNL     1       2.108   8.398  19.241  0.00  0.00    +0.000 NA
ATOM     17  C   UNL     1       2.831   7.419  18.670  0.00  0.00    +0.000 A 
ATOM     18  C   UNL     1       3.505   7.659  17.476  0.00  0.00    +0.000 A 
ATOM     19  C   UNL     1       4.316   6.690  16.858  0.00  0.00    +0.000 A 
ATOM     20  H   UNL     1       3.196   4.417  21.277  0.00  0.00    +0.000 HD
ATOM     21  H   UNL     1       1.728   4.874  21.951  0.00  0.00    +0.000 HD
ENDROOT
BRANCH  12  22
ATOM     22  C   UNL     1      -2.664  13.200  21.720  0.00  0.00    +0.000 C 
ATOM     23  C   UNL     1      -2.604  14.326  22.757  0.00  0.00    +0.000 C 
ATOM     24  O   UNL     1      -2.691  15.599  22.118  0.00  0.00    +0.000 OA
ATOM     25  C   UNL     1      -3.876  15.635  21.436  0.00  0.00    +0.000 A 
ATOM     26  C   UNL     1      -4.545  16.857  21.433  0.00  0.00    +0.000 A 
ATOM     27  C   UNL     1      -5.801  16.947  20.843  0.00  0.00    +0.000 A 
ATOM     28  C   UNL     1      -6.328  15.841  20.174  0.00  0.00    +0.000 A 
ATOM     29  C   UNL     1      -5.635  14.621  20.153  0.00  0.00    +0.000 A 
ATOM     30  C   UNL     1      -4.428  14.493  20.842  0.00  0.00    +0.000 A 
ATOM     31  O   UNL     1      -3.893  13.225  20.992  0.00  0.00    +0.000 OA
ENDBRANCH  12  22
BRANCH   1  33
ATOM     32  C   UNL     1       6.636   4.462  17.247  0.00  0.00    +0.000 C 
ATOM     33  O   UNL     1       5.238   4.395  16.980  0.00  0.00    +0.000 OA
ENDBRANCH   1  33
BRANCH  19  34
ATOM     34  O   UNL     1       4.936   6.997  15.680  0.00  0.00    +0.000 OA
ATOM     35  H   UNL     1       4.354   7.569  15.155  0.00  0.00    +0.000 HD
ENDBRANCH  19  34
TORSDOF 3
ENDMDL
