MODEL 1
REMARK VINA RESULT:      -7.2      0.000      0.000
REMARK  Name = 
REMARK  10 active torsions:
REMARK  status: ('A' for Active; 'I' for Inactive)
REMARK    1  A    between atoms: C_1  and  O_2
REMARK    2  A    between atoms: O_2  and  C_3
REMARK    3  A    between atoms: C_3  and  C_4
REMARK    4  A    between atoms: C_4  and  N_5
REMARK    5  A    between atoms: N_5  and  C_6
REMARK    6  A    between atoms: N_14  and  C_15
REMARK    7  A    between atoms: N_17  and  C_18
REMARK    8  A    between atoms: C_18  and  C_19
REMARK    9  A    between atoms: C_25  and  C_26
REMARK   10  A    between atoms: C_26  and  O_27
REMARK                            x       y       z     vdW  Elec       q    Type
REMARK                         _______ _______ _______ _____ _____    ______ ____
ROOT
ATOM      1  C   UNL     1       1.528   9.077  19.844  0.00  0.00    +0.000 A 
ATOM      2  N   UNL     1       1.848   9.600  18.630  0.00  0.00    +0.000 NA
ATOM      3  C   UNL     1       2.291   8.775  17.663  0.00  0.00    +0.000 A 
ATOM      4  N   UNL     1       2.412   7.437  17.706  0.00  0.00    +0.000 NA
ATOM      5  C   UNL     1       2.107   6.957  18.921  0.00  0.00    +0.000 A 
ATOM      6  C   UNL     1       1.701   7.692  20.029  0.00  0.00    +0.000 A 
ATOM      7  N   UNL     1       1.498   6.866  21.109  0.00  0.00    +0.000 NA
ATOM      8  C   UNL     1       1.746   5.651  20.664  0.00  0.00    +0.000 A 
ATOM      9  N   UNL     1       2.092   5.647  19.329  0.00  0.00    +0.000 N 
ENDROOT
BRANCH   9  10
ATOM     10  C   UNL     1       2.134   4.468  18.471  0.00  0.00    +0.000 C 
ATOM     11  C   UNL     1       3.450   4.121  17.724  0.00  0.00    +0.000 C 
ATOM     12  N   UNL     1       4.494   3.445  18.520  0.00  0.00    +0.000 NA
ATOM     13  C   UNL     1       3.877   2.271  19.159  0.00  0.00    +0.000 C 
ATOM     14  C   UNL     1       2.515   2.485  19.862  0.00  0.00    +0.000 C 
ATOM     15  O   UNL     1       1.585   3.321  19.148  0.00  0.00    +0.000 OA
BRANCH  12  16
ATOM     16  C   UNL     1       5.154   4.383  19.441  0.00  0.00    +0.000 C 
BRANCH  16  17
ATOM     17  C   UNL     1       6.136   5.301  18.800  0.00  0.00    +0.000 A 
ATOM     18  C   UNL     1       6.133   6.062  17.652  0.00  0.00    +0.000 A 
ATOM     19  C   UNL     1       7.339   6.804  17.659  0.00  0.00    +0.000 A 
ATOM     20  C   UNL     1       8.012   6.433  18.798  0.00  0.00    +0.000 A 
ATOM     21  O   UNL     1       7.291   5.519  19.497  0.00  0.00    +0.000 OA
ENDBRANCH  16  17
ENDBRANCH  12  16
BRANCH  14  22
ATOM     22  C   UNL     1       2.617   2.889  21.338  0.00  0.00    +0.000 C 
BRANCH  22  23
ATOM     23  O   UNL     1       1.523   2.357  22.074  0.00  0.00    +0.000 OA
ATOM     24  H   UNL     1       1.763   2.407  23.016  0.00  0.00    +0.000 HD
ENDBRANCH  22  23
ENDBRANCH  14  22
ENDBRANCH   9  10
BRANCH   1  25
ATOM     25  N   UNL     1       1.042   9.908  20.859  0.00  0.00    +0.000 N 
ATOM     26  H   UNL     1       1.660   9.870  21.670  0.00  0.00    +0.000 HD
BRANCH  25  27
ATOM     27  C   UNL     1      -0.367   9.738  21.218  0.00  0.00    +0.000 C 
BRANCH  27  28
ATOM     28  C   UNL     1      -0.547   9.598  22.739  0.00  0.00    +0.000 C 
BRANCH  28  30
ATOM     29  C   UNL     1      -1.363  11.810  22.844  0.00  0.00    +0.000 C 
ATOM     30  O   UNL     1      -0.414  10.885  23.357  0.00  0.00    +0.000 OA
ENDBRANCH  28  30
ENDBRANCH  27  28
ENDBRANCH  25  27
ENDBRANCH   1  25
TORSDOF 9
ENDMDL
MODEL 2
REMARK VINA RESULT:      -7.1      2.870      8.197
REMARK  Name = 
REMARK  10 active torsions:
REMARK  status: ('A' for Active; 'I' for Inactive)
REMARK    1  A    between atoms: C_1  and  O_2
REMARK    2  A    between atoms: O_2  and  C_3
REMARK    3  A    between atoms: C_3  and  C_4
REMARK    4  A    between atoms: C_4  and  N_5
REMARK    5  A    between atoms: N_5  and  C_6
REMARK    6  A    between atoms: N_14  and  C_15
REMARK    7  A    between atoms: N_17  and  C_18
REMARK    8  A    between atoms: C_18  and  C_19
REMARK    9  A    between atoms: C_25  and  C_26
REMARK   10  A    between atoms: C_26  and  O_27
REMARK                            x       y       z     vdW  Elec       q    Type
REMARK                         _______ _______ _______ _____ _____    ______ ____
ROOT
ATOM      1  C   UNL     1       2.145   7.280  19.698  0.00  0.00    +0.000 A 
ATOM      2  N   UNL     1       2.314   7.453  18.359  0.00  0.00    +0.000 NA
ATOM      3  C   UNL     1       1.976   8.635  17.809  0.00  0.00    +0.000 A 
ATOM      4  N   UNL     1       1.530   9.741  18.429  0.00  0.00    +0.000 NA
ATOM      5  C   UNL     1       1.357   9.529  19.743  0.00  0.00    +0.000 A 
ATOM      6  C   UNL     1       1.600   8.349  20.435  0.00  0.00    +0.000 A 
ATOM      7  N   UNL     1       1.287   8.496  21.766  0.00  0.00    +0.000 NA
ATOM      8  C   UNL     1       0.891   9.746  21.889  0.00  0.00    +0.000 A 
ATOM      9  N   UNL     1       0.943  10.429  20.693  0.00  0.00    +0.000 N 
ENDROOT
BRANCH   9  10
ATOM     10  C   UNL     1       0.862  11.878  20.542  0.00  0.00    +0.000 C 
ATOM     11  C   UNL     1       0.092  12.472  19.332  0.00  0.00    +0.000 C 
ATOM     12  N   UNL     1      -1.380  12.511  19.450  0.00  0.00    +0.000 NA
ATOM     13  C   UNL     1      -1.708  13.184  20.719  0.00  0.00    +0.000 C 
ATOM     14  C   UNL     1      -0.934  12.728  21.980  0.00  0.00    +0.000 C 
ATOM     15  O   UNL     1       0.475  12.501  21.781  0.00  0.00    +0.000 OA
BRANCH  12  16
ATOM     16  C   UNL     1      -1.964  11.172  19.284  0.00  0.00    +0.000 C 
BRANCH  16  17
ATOM     17  C   UNL     1      -2.346  10.825  17.887  0.00  0.00    +0.000 A 
ATOM     18  C   UNL     1      -1.924   9.873  16.984  0.00  0.00    +0.000 A 
ATOM     19  C   UNL     1      -2.764   9.998  15.850  0.00  0.00    +0.000 A 
ATOM     20  C   UNL     1      -3.629  11.030  16.123  0.00  0.00    +0.000 A 
ATOM     21  O   UNL     1      -3.381  11.540  17.356  0.00  0.00    +0.000 OA
ENDBRANCH  16  17
ENDBRANCH  12  16
BRANCH  14  22
ATOM     22  C   UNL     1      -1.588  11.570  22.744  0.00  0.00    +0.000 C 
BRANCH  22  23
ATOM     23  O   UNL     1      -2.814  11.991  23.326  0.00  0.00    +0.000 OA
ATOM     24  H   UNL     1      -2.790  12.963  23.369  0.00  0.00    +0.000 HD
ENDBRANCH  22  23
ENDBRANCH  14  22
ENDBRANCH   9  10
BRANCH   1  25
ATOM     25  N   UNL     1       2.511   6.071  20.300  0.00  0.00    +0.000 N 
ATOM     26  H   UNL     1       3.284   5.645  19.788  0.00  0.00    +0.000 HD
BRANCH  25  27
ATOM     27  C   UNL     1       1.426   5.127  20.570  0.00  0.00    +0.000 C 
BRANCH  27  28
ATOM     28  C   UNL     1       1.431   3.962  19.566  0.00  0.00    +0.000 C 
BRANCH  28  30
ATOM     29  C   UNL     1       1.560   2.717  21.568  0.00  0.00    +0.000 C 
ATOM     30  O   UNL     1       1.061   2.750  20.238  0.00  0.00    +0.000 OA
ENDBRANCH  28  30
ENDBRANCH  27  28
ENDBRANCH  25  27
ENDBRANCH   1  25
TORSDOF 9
ENDMDL
MODEL 3
REMARK VINA RESULT:      -6.9      3.103      4.609
REMARK  Name = 
REMARK  10 active torsions:
REMARK  status: ('A' for Active; 'I' for Inactive)
REMARK    1  A    between atoms: C_1  and  O_2
REMARK    2  A    between atoms: O_2  and  C_3
REMARK    3  A    between atoms: C_3  and  C_4
REMARK    4  A    between atoms: C_4  and  N_5
REMARK    5  A    between atoms: N_5  and  C_6
REMARK    6  A    between atoms: N_14  and  C_15
REMARK    7  A    between atoms: N_17  and  C_18
REMARK    8  A    between atoms: C_18  and  C_19
REMARK    9  A    between atoms: C_25  and  C_26
REMARK   10  A    between atoms: C_26  and  O_27
REMARK                            x       y       z     vdW  Elec       q    Type
REMARK                         _______ _______ _______ _____ _____    ______ ____
ROOT
ATOM      1  C   UNL     1       1.790   9.002  18.628  0.00  0.00    +0.000 A 
ATOM      2  N   UNL     1       1.233   8.758  19.845  0.00  0.00    +0.000 NA
ATOM      3  C   UNL     1       1.534   7.609  20.479  0.00  0.00    +0.000 A 
ATOM      4  N   UNL     1       2.394   6.651  20.093  0.00  0.00    +0.000 NA
ATOM      5  C   UNL     1       2.910   6.914  18.883  0.00  0.00    +0.000 A 
ATOM      6  C   UNL     1       2.642   8.020  18.086  0.00  0.00    +0.000 A 
ATOM      7  N   UNL     1       3.335   7.943  16.901  0.00  0.00    +0.000 NA
ATOM      8  C   UNL     1       4.034   6.829  16.985  0.00  0.00    +0.000 A 
ATOM      9  N   UNL     1       3.835   6.179  18.184  0.00  0.00    +0.000 N 
ENDROOT
BRANCH   9  10
ATOM     10  C   UNL     1       4.667   5.102  18.710  0.00  0.00    +0.000 C 
ATOM     11  C   UNL     1       4.929   3.849  17.831  0.00  0.00    +0.000 C 
ATOM     12  N   UNL     1       5.961   3.989  16.784  0.00  0.00    +0.000 NA
ATOM     13  C   UNL     1       7.184   4.497  17.429  0.00  0.00    +0.000 C 
ATOM     14  C   UNL     1       7.026   5.695  18.397  0.00  0.00    +0.000 C 
ATOM     15  O   UNL     1       5.885   5.624  19.273  0.00  0.00    +0.000 OA
BRANCH  12  16
ATOM     16  C   UNL     1       5.470   4.794  15.655  0.00  0.00    +0.000 C 
BRANCH  16  17
ATOM     17  C   UNL     1       6.178   4.559  14.366  0.00  0.00    +0.000 A 
ATOM     18  C   UNL     1       5.964   3.723  13.291  0.00  0.00    +0.000 A 
ATOM     19  C   UNL     1       6.943   4.058  12.324  0.00  0.00    +0.000 A 
ATOM     20  C   UNL     1       7.704   5.059  12.876  0.00  0.00    +0.000 A 
ATOM     21  O   UNL     1       7.249   5.369  14.117  0.00  0.00    +0.000 OA
ENDBRANCH  16  17
ENDBRANCH  12  16
BRANCH  14  22
ATOM     22  C   UNL     1       7.139   7.071  17.729  0.00  0.00    +0.000 C 
BRANCH  22  23
ATOM     23  O   UNL     1       7.794   6.961  16.473  0.00  0.00    +0.000 OA
ATOM     24  H   UNL     1       8.736   6.801  16.657  0.00  0.00    +0.000 HD
ENDBRANCH  22  23
ENDBRANCH  14  22
ENDBRANCH   9  10
BRANCH   1  25
ATOM     25  N   UNL     1       1.513  10.198  17.958  0.00  0.00    +0.000 N 
ATOM     26  H   UNL     1       2.171  10.331  17.189  0.00  0.00    +0.000 HD
BRANCH  25  27
ATOM     27  C   UNL     1       1.376  11.393  18.793  0.00  0.00    +0.000 C 
BRANCH  27  28
ATOM     28  C   UNL     1       2.345  12.502  18.351  0.00  0.00    +0.000 C 
BRANCH  28  30
ATOM     29  C   UNL     1       1.934  14.660  19.213  0.00  0.00    +0.000 C 
ATOM     30  O   UNL     1       1.624  13.730  18.185  0.00  0.00    +0.000 OA
ENDBRANCH  28  30
ENDBRANCH  27  28
ENDBRANCH  25  27
ENDBRANCH   1  25
TORSDOF 9
ENDMDL
MODEL 4
REMARK VINA RESULT:      -6.9      3.388      7.546
REMARK  Name = 
REMARK  10 active torsions:
REMARK  status: ('A' for Active; 'I' for Inactive)
REMARK    1  A    between atoms: C_1  and  O_2
REMARK    2  A    between atoms: O_2  and  C_3
REMARK    3  A    between atoms: C_3  and  C_4
REMARK    4  A    between atoms: C_4  and  N_5
REMARK    5  A    between atoms: N_5  and  C_6
REMARK    6  A    between atoms: N_14  and  C_15
REMARK    7  A    between atoms: N_17  and  C_18
REMARK    8  A    between atoms: C_18  and  C_19
REMARK    9  A    between atoms: C_25  and  C_26
REMARK   10  A    between atoms: C_26  and  O_27
REMARK                            x       y       z     vdW  Elec       q    Type
REMARK                         _______ _______ _______ _____ _____    ______ ____
ROOT
ATOM      1  C   UNL     1       6.752   4.992  15.395  0.00  0.00    +0.000 A 
ATOM      2  N   UNL     1       7.384   6.091  15.889  0.00  0.00    +0.000 NA
ATOM      3  C   UNL     1       7.032   6.553  17.104  0.00  0.00    +0.000 A 
ATOM      4  N   UNL     1       6.146   6.025  17.966  0.00  0.00    +0.000 NA
ATOM      5  C   UNL     1       5.529   4.956  17.440  0.00  0.00    +0.000 A 
ATOM      6  C   UNL     1       5.740   4.408  16.181  0.00  0.00    +0.000 A 
ATOM      7  N   UNL     1       4.911   3.330  15.977  0.00  0.00    +0.000 NA
ATOM      8  C   UNL     1       4.230   3.204  17.097  0.00  0.00    +0.000 A 
ATOM      9  N   UNL     1       4.588   4.151  18.034  0.00  0.00    +0.000 N 
ENDROOT
BRANCH   9  10
ATOM     10  C   UNL     1       4.251   4.106  19.452  0.00  0.00    +0.000 C 
ATOM     11  C   UNL     1       3.898   5.427  20.189  0.00  0.00    +0.000 C 
ATOM     12  N   UNL     1       2.528   5.940  19.990  0.00  0.00    +0.000 NA
ATOM     13  C   UNL     1       1.593   4.846  20.305  0.00  0.00    +0.000 C 
ATOM     14  C   UNL     1       1.898   3.459  19.690  0.00  0.00    +0.000 C 
ATOM     15  O   UNL     1       3.285   3.072  19.717  0.00  0.00    +0.000 OA
BRANCH  12  16
ATOM     16  C   UNL     1       2.368   6.533  18.654  0.00  0.00    +0.000 C 
BRANCH  16  17
ATOM     17  C   UNL     1       2.004   7.977  18.651  0.00  0.00    +0.000 A 
ATOM     18  C   UNL     1       2.056   8.979  17.707  0.00  0.00    +0.000 A 
ATOM     19  C   UNL     1       1.457  10.118  18.298  0.00  0.00    +0.000 A 
ATOM     20  C   UNL     1       1.098   9.747  19.571  0.00  0.00    +0.000 A 
ATOM     21  O   UNL     1       1.427   8.449  19.796  0.00  0.00    +0.000 OA
ENDBRANCH  16  17
ENDBRANCH  12  16
BRANCH  14  22
ATOM     22  C   UNL     1       1.275   3.223  18.309  0.00  0.00    +0.000 C 
BRANCH  22  23
ATOM     23  O   UNL     1       0.877   1.866  18.170  0.00  0.00    +0.000 OA
ATOM     24  H   UNL     1      -0.070   1.822  18.394  0.00  0.00    +0.000 HD
ENDBRANCH  22  23
ENDBRANCH  14  22
ENDBRANCH   9  10
BRANCH   1  25
ATOM     25  N   UNL     1       7.115   4.477  14.146  0.00  0.00    +0.000 N 
ATOM     26  H   UNL     1       7.728   5.133  13.661  0.00  0.00    +0.000 HD
BRANCH  25  27
ATOM     27  C   UNL     1       6.022   3.997  13.300  0.00  0.00    +0.000 C 
BRANCH  27  28
ATOM     28  C   UNL     1       6.553   3.232  12.075  0.00  0.00    +0.000 C 
BRANCH  28  30
ATOM     29  C   UNL     1       6.228   1.103  11.110  0.00  0.00    +0.000 C 
ATOM     30  O   UNL     1       5.595   2.242  11.678  0.00  0.00    +0.000 OA
ENDBRANCH  28  30
ENDBRANCH  27  28
ENDBRANCH  25  27
ENDBRANCH   1  25
TORSDOF 9
ENDMDL
MODEL 5
REMARK VINA RESULT:      -6.8      3.001      4.543
REMARK  Name = 
REMARK  10 active torsions:
REMARK  status: ('A' for Active; 'I' for Inactive)
REMARK    1  A    between atoms: C_1  and  O_2
REMARK    2  A    between atoms: O_2  and  C_3
REMARK    3  A    between atoms: C_3  and  C_4
REMARK    4  A    between atoms: C_4  and  N_5
REMARK    5  A    between atoms: N_5  and  C_6
REMARK    6  A    between atoms: N_14  and  C_15
REMARK    7  A    between atoms: N_17  and  C_18
REMARK    8  A    between atoms: C_18  and  C_19
REMARK    9  A    between atoms: C_25  and  C_26
REMARK   10  A    between atoms: C_26  and  O_27
REMARK                            x       y       z     vdW  Elec       q    Type
REMARK                         _______ _______ _______ _____ _____    ______ ____
ROOT
ATOM      1  C   UNL     1       1.697   8.932  18.787  0.00  0.00    +0.000 A 
ATOM      2  N   UNL     1       1.159   8.670  20.008  0.00  0.00    +0.000 NA
ATOM      3  C   UNL     1       1.505   7.533  20.641  0.00  0.00    +0.000 A 
ATOM      4  N   UNL     1       2.395   6.604  20.249  0.00  0.00    +0.000 NA
ATOM      5  C   UNL     1       2.892   6.885  19.035  0.00  0.00    +0.000 A 
ATOM      6  C   UNL     1       2.578   7.980  18.239  0.00  0.00    +0.000 A 
ATOM      7  N   UNL     1       3.264   7.925  17.049  0.00  0.00    +0.000 NA
ATOM      8  C   UNL     1       4.002   6.837  17.128  0.00  0.00    +0.000 A 
ATOM      9  N   UNL     1       3.836   6.181  18.329  0.00  0.00    +0.000 N 
ENDROOT
BRANCH   9  10
ATOM     10  C   UNL     1       4.709   5.135  18.849  0.00  0.00    +0.000 C 
ATOM     11  C   UNL     1       4.970   3.869  17.988  0.00  0.00    +0.000 C 
ATOM     12  N   UNL     1       5.963   4.009  16.904  0.00  0.00    +0.000 NA
ATOM     13  C   UNL     1       7.195   4.558  17.497  0.00  0.00    +0.000 C 
ATOM     14  C   UNL     1       7.042   5.773  18.444  0.00  0.00    +0.000 C 
ATOM     15  O   UNL     1       5.933   5.695  19.360  0.00  0.00    +0.000 OA
BRANCH  12  16
ATOM     16  C   UNL     1       5.417   4.778  15.776  0.00  0.00    +0.000 C 
BRANCH  16  17
ATOM     17  C   UNL     1       6.089   4.534  14.470  0.00  0.00    +0.000 A 
ATOM     18  C   UNL     1       5.843   3.694  13.405  0.00  0.00    +0.000 A 
ATOM     19  C   UNL     1       6.797   4.019  12.410  0.00  0.00    +0.000 A 
ATOM     20  C   UNL     1       7.578   5.019  12.937  0.00  0.00    +0.000 A 
ATOM     21  O   UNL     1       7.157   5.337  14.188  0.00  0.00    +0.000 OA
ENDBRANCH  16  17
ENDBRANCH  12  16
BRANCH  14  22
ATOM     22  C   UNL     1       7.101   7.136  17.745  0.00  0.00    +0.000 C 
BRANCH  22  23
ATOM     23  O   UNL     1       7.792   7.029  16.507  0.00  0.00    +0.000 OA
ATOM     24  H   UNL     1       7.170   7.299  15.809  0.00  0.00    +0.000 HD
ENDBRANCH  22  23
ENDBRANCH  14  22
ENDBRANCH   9  10
BRANCH   1  25
ATOM     25  N   UNL     1       1.373  10.117  18.118  0.00  0.00    +0.000 N 
ATOM     26  H   UNL     1       2.152  10.774  18.170  0.00  0.00    +0.000 HD
BRANCH  25  27
ATOM     27  C   UNL     1       0.093  10.733  18.474  0.00  0.00    +0.000 C 
BRANCH  27  28
ATOM     28  C   UNL     1      -1.074  10.086  17.709  0.00  0.00    +0.000 C 
BRANCH  28  30
ATOM     29  C   UNL     1      -3.388  10.331  17.318  0.00  0.00    +0.000 C 
ATOM     30  O   UNL     1      -2.183  10.994  17.674  0.00  0.00    +0.000 OA
ENDBRANCH  28  30
ENDBRANCH  27  28
ENDBRANCH  25  27
ENDBRANCH   1  25
TORSDOF 9
ENDMDL
MODEL 6
REMARK VINA RESULT:      -6.8      1.146      1.300
REMARK  Name = 
REMARK  10 active torsions:
REMARK  status: ('A' for Active; 'I' for Inactive)
REMARK    1  A    between atoms: C_1  and  O_2
REMARK    2  A    between atoms: O_2  and  C_3
REMARK    3  A    between atoms: C_3  and  C_4
REMARK    4  A    between atoms: C_4  and  N_5
REMARK    5  A    between atoms: N_5  and  C_6
REMARK    6  A    between atoms: N_14  and  C_15
REMARK    7  A    between atoms: N_17  and  C_18
REMARK    8  A    between atoms: C_18  and  C_19
REMARK    9  A    between atoms: C_25  and  C_26
REMARK   10  A    between atoms: C_26  and  O_27
REMARK                            x       y       z     vdW  Elec       q    Type
REMARK                         _______ _______ _______ _____ _____    ______ ____
ROOT
ATOM      1  C   UNL     1       1.489   9.102  19.765  0.00  0.00    +0.000 A 
ATOM      2  N   UNL     1       1.879   9.599  18.561  0.00  0.00    +0.000 NA
ATOM      3  C   UNL     1       2.369   8.753  17.636  0.00  0.00    +0.000 A 
ATOM      4  N   UNL     1       2.476   7.415  17.711  0.00  0.00    +0.000 NA
ATOM      5  C   UNL     1       2.101   6.961  18.916  0.00  0.00    +0.000 A 
ATOM      6  C   UNL     1       1.641   7.719  19.986  0.00  0.00    +0.000 A 
ATOM      7  N   UNL     1       1.371   6.916  21.069  0.00  0.00    +0.000 NA
ATOM      8  C   UNL     1       1.634   5.691  20.661  0.00  0.00    +0.000 A 
ATOM      9  N   UNL     1       2.053   5.659  19.348  0.00  0.00    +0.000 N 
ENDROOT
BRANCH   9  10
ATOM     10  C   UNL     1       2.133   4.463  18.516  0.00  0.00    +0.000 C 
ATOM     11  C   UNL     1       3.476   4.112  17.820  0.00  0.00    +0.000 C 
ATOM     12  N   UNL     1       4.498   3.461  18.664  0.00  0.00    +0.000 NA
ATOM     13  C   UNL     1       3.869   2.295  19.307  0.00  0.00    +0.000 C 
ATOM     14  C   UNL     1       2.482   2.512  19.960  0.00  0.00    +0.000 C 
ATOM     15  O   UNL     1       1.570   3.326  19.197  0.00  0.00    +0.000 OA
BRANCH  12  16
ATOM     16  C   UNL     1       5.119   4.423  19.587  0.00  0.00    +0.000 C 
BRANCH  16  17
ATOM     17  C   UNL     1       6.175   5.279  18.980  0.00  0.00    +0.000 A 
ATOM     18  C   UNL     1       6.272   6.002  17.810  0.00  0.00    +0.000 A 
ATOM     19  C   UNL     1       7.506   6.694  17.868  0.00  0.00    +0.000 A 
ATOM     20  C   UNL     1       8.094   6.334  19.057  0.00  0.00    +0.000 A 
ATOM     21  O   UNL     1       7.295   5.474  19.738  0.00  0.00    +0.000 OA
ENDBRANCH  16  17
ENDBRANCH  12  16
BRANCH  14  22
ATOM     22  C   UNL     1       2.531   2.947  21.429  0.00  0.00    +0.000 C 
BRANCH  22  23
ATOM     23  O   UNL     1       1.413   2.429  22.137  0.00  0.00    +0.000 OA
ATOM     24  H   UNL     1       0.818   2.031  21.478  0.00  0.00    +0.000 HD
ENDBRANCH  22  23
ENDBRANCH  14  22
ENDBRANCH   9  10
BRANCH   1  25
ATOM     25  N   UNL     1       0.954   9.956  20.736  0.00  0.00    +0.000 N 
ATOM     26  H   UNL     1       1.364   9.751  21.648  0.00  0.00    +0.000 HD
BRANCH  25  27
ATOM     27  C   UNL     1      -0.506  10.050  20.784  0.00  0.00    +0.000 C 
BRANCH  27  28
ATOM     28  C   UNL     1      -1.033  11.121  19.814  0.00  0.00    +0.000 C 
BRANCH  28  30
ATOM     29  C   UNL     1      -0.152  12.924  18.572  0.00  0.00    +0.000 C 
ATOM     30  O   UNL     1      -0.149  12.250  19.822  0.00  0.00    +0.000 OA
ENDBRANCH  28  30
ENDBRANCH  27  28
ENDBRANCH  25  27
ENDBRANCH   1  25
TORSDOF 9
ENDMDL
MODEL 7
REMARK VINA RESULT:      -6.7      2.821      7.119
REMARK  Name = 
REMARK  10 active torsions:
REMARK  status: ('A' for Active; 'I' for Inactive)
REMARK    1  A    between atoms: C_1  and  O_2
REMARK    2  A    between atoms: O_2  and  C_3
REMARK    3  A    between atoms: C_3  and  C_4
REMARK    4  A    between atoms: C_4  and  N_5
REMARK    5  A    between atoms: N_5  and  C_6
REMARK    6  A    between atoms: N_14  and  C_15
REMARK    7  A    between atoms: N_17  and  C_18
REMARK    8  A    between atoms: C_18  and  C_19
REMARK    9  A    between atoms: C_25  and  C_26
REMARK   10  A    between atoms: C_26  and  O_27
REMARK                            x       y       z     vdW  Elec       q    Type
REMARK                         _______ _______ _______ _____ _____    ______ ____
ROOT
ATOM      1  C   UNL     1       7.052   4.814  16.900  0.00  0.00    +0.000 A 
ATOM      2  N   UNL     1       7.758   5.584  17.773  0.00  0.00    +0.000 NA
ATOM      3  C   UNL     1       7.288   5.745  19.024  0.00  0.00    +0.000 A 
ATOM      4  N   UNL     1       6.203   5.180  19.581  0.00  0.00    +0.000 NA
ATOM      5  C   UNL     1       5.522   4.444  18.689  0.00  0.00    +0.000 A 
ATOM      6  C   UNL     1       5.848   4.242  17.354  0.00  0.00    +0.000 A 
ATOM      7  N   UNL     1       4.907   3.449  16.741  0.00  0.00    +0.000 NA
ATOM      8  C   UNL     1       4.042   3.149  17.687  0.00  0.00    +0.000 A 
ATOM      9  N   UNL     1       4.385   3.705  18.901  0.00  0.00    +0.000 N 
ENDROOT
BRANCH   9  10
ATOM     10  C   UNL     1       3.819   3.330  20.192  0.00  0.00    +0.000 C 
ATOM     11  C   UNL     1       3.292   4.441  21.141  0.00  0.00    +0.000 C 
ATOM     12  N   UNL     1       1.953   4.981  20.832  0.00  0.00    +0.000 NA
ATOM     13  C   UNL     1       1.027   3.841  20.723  0.00  0.00    +0.000 C 
ATOM     14  C   UNL     1       1.489   2.636  19.868  0.00  0.00    +0.000 C 
ATOM     15  O   UNL     1       2.868   2.258  20.044  0.00  0.00    +0.000 OA
BRANCH  12  16
ATOM     16  C   UNL     1       1.992   5.869  19.661  0.00  0.00    +0.000 C 
BRANCH  16  17
ATOM     17  C   UNL     1       1.684   7.297  19.948  0.00  0.00    +0.000 A 
ATOM     18  C   UNL     1       1.716   8.457  19.203  0.00  0.00    +0.000 A 
ATOM     19  C   UNL     1       1.200   9.481  20.034  0.00  0.00    +0.000 A 
ATOM     20  C   UNL     1       0.906   8.888  21.238  0.00  0.00    +0.000 A 
ATOM     21  O   UNL     1       1.198   7.563  21.197  0.00  0.00    +0.000 OA
ENDBRANCH  16  17
ENDBRANCH  12  16
BRANCH  14  22
ATOM     22  C   UNL     1       1.115   2.727  18.384  0.00  0.00    +0.000 C 
BRANCH  22  23
ATOM     23  O   UNL     1       0.143   1.743  18.057  0.00  0.00    +0.000 OA
ATOM     24  H   UNL     1       0.627   0.947  17.775  0.00  0.00    +0.000 HD
ENDBRANCH  22  23
ENDBRANCH  14  22
ENDBRANCH   9  10
BRANCH   1  25
ATOM     25  N   UNL     1       7.530   4.611  15.601  0.00  0.00    +0.000 N 
ATOM     26  H   UNL     1       8.507   4.899  15.538  0.00  0.00    +0.000 HD
BRANCH  25  27
ATOM     27  C   UNL     1       6.711   5.154  14.516  0.00  0.00    +0.000 C 
BRANCH  27  28
ATOM     28  C   UNL     1       6.820   4.296  13.245  0.00  0.00    +0.000 C 
BRANCH  28  30
ATOM     29  C   UNL     1       5.245   3.183  11.885  0.00  0.00    +0.000 C 
ATOM     30  O   UNL     1       5.735   3.359  13.206  0.00  0.00    +0.000 OA
ENDBRANCH  28  30
ENDBRANCH  27  28
ENDBRANCH  25  27
ENDBRANCH   1  25
TORSDOF 9
ENDMDL
MODEL 8
REMARK VINA RESULT:      -6.6      1.812      1.997
REMARK  Name = 
REMARK  10 active torsions:
REMARK  status: ('A' for Active; 'I' for Inactive)
REMARK    1  A    between atoms: C_1  and  O_2
REMARK    2  A    between atoms: O_2  and  C_3
REMARK    3  A    between atoms: C_3  and  C_4
REMARK    4  A    between atoms: C_4  and  N_5
REMARK    5  A    between atoms: N_5  and  C_6
REMARK    6  A    between atoms: N_14  and  C_15
REMARK    7  A    between atoms: N_17  and  C_18
REMARK    8  A    between atoms: C_18  and  C_19
REMARK    9  A    between atoms: C_25  and  C_26
REMARK   10  A    between atoms: C_26  and  O_27
REMARK                            x       y       z     vdW  Elec       q    Type
REMARK                         _______ _______ _______ _____ _____    ______ ____
ROOT
ATOM      1  C   UNL     1       1.868   7.916  20.296  0.00  0.00    +0.000 A 
ATOM      2  N   UNL     1       2.032   8.490  19.073  0.00  0.00    +0.000 NA
ATOM      3  C   UNL     1       2.206   7.695  18.001  0.00  0.00    +0.000 A 
ATOM      4  N   UNL     1       2.180   6.352  17.951  0.00  0.00    +0.000 NA
ATOM      5  C   UNL     1       2.036   5.820  19.174  0.00  0.00    +0.000 A 
ATOM      6  C   UNL     1       1.912   6.511  20.373  0.00  0.00    +0.000 A 
ATOM      7  N   UNL     1       1.805   5.635  21.428  0.00  0.00    +0.000 NA
ATOM      8  C   UNL     1       1.833   4.436  20.882  0.00  0.00    +0.000 A 
ATOM      9  N   UNL     1       1.942   4.492  19.509  0.00  0.00    +0.000 N 
ENDROOT
BRANCH   9  10
ATOM     10  C   UNL     1       1.701   3.380  18.596  0.00  0.00    +0.000 C 
ATOM     11  C   UNL     1       2.376   3.388  17.197  0.00  0.00    +0.000 C 
ATOM     12  N   UNL     1       3.793   2.976  17.153  0.00  0.00    +0.000 NA
ATOM     13  C   UNL     1       3.899   1.671  17.828  0.00  0.00    +0.000 C 
ATOM     14  C   UNL     1       3.188   1.524  19.195  0.00  0.00    +0.000 C 
ATOM     15  O   UNL     1       1.878   2.118  19.267  0.00  0.00    +0.000 OA
BRANCH  12  16
ATOM     16  C   UNL     1       4.672   4.028  17.687  0.00  0.00    +0.000 C 
BRANCH  16  17
ATOM     17  C   UNL     1       5.731   4.492  16.750  0.00  0.00    +0.000 A 
ATOM     18  C   UNL     1       7.024   4.944  16.908  0.00  0.00    +0.000 A 
ATOM     19  C   UNL     1       7.545   5.129  15.604  0.00  0.00    +0.000 A 
ATOM     20  C   UNL     1       6.534   4.800  14.734  0.00  0.00    +0.000 A 
ATOM     21  O   UNL     1       5.428   4.414  15.420  0.00  0.00    +0.000 OA
ENDBRANCH  16  17
ENDBRANCH  12  16
BRANCH  14  22
ATOM     22  C   UNL     1       4.048   1.908  20.405  0.00  0.00    +0.000 C 
BRANCH  22  23
ATOM     23  O   UNL     1       5.373   1.420  20.246  0.00  0.00    +0.000 OA
ATOM     24  H   UNL     1       5.903   1.793  20.972  0.00  0.00    +0.000 HD
ENDBRANCH  22  23
ENDBRANCH  14  22
ENDBRANCH   9  10
BRANCH   1  25
ATOM     25  N   UNL     1       1.662   8.718  21.424  0.00  0.00    +0.000 N 
ATOM     26  H   UNL     1       1.743   8.157  22.272  0.00  0.00    +0.000 HD
BRANCH  25  27
ATOM     27  C   UNL     1       0.460   9.554  21.414  0.00  0.00    +0.000 C 
BRANCH  27  28
ATOM     28  C   UNL     1      -0.276   9.495  22.763  0.00  0.00    +0.000 C 
BRANCH  28  30
ATOM     29  C   UNL     1      -1.627  11.403  23.087  0.00  0.00    +0.000 C 
ATOM     30  O   UNL     1      -0.356  10.813  23.322  0.00  0.00    +0.000 OA
ENDBRANCH  28  30
ENDBRANCH  27  28
ENDBRANCH  25  27
ENDBRANCH   1  25
TORSDOF 9
ENDMDL
MODEL 9
REMARK VINA RESULT:      -6.6      2.958      8.392
REMARK  Name = 
REMARK  10 active torsions:
REMARK  status: ('A' for Active; 'I' for Inactive)
REMARK    1  A    between atoms: C_1  and  O_2
REMARK    2  A    between atoms: O_2  and  C_3
REMARK    3  A    between atoms: C_3  and  C_4
REMARK    4  A    between atoms: C_4  and  N_5
REMARK    5  A    between atoms: N_5  and  C_6
REMARK    6  A    between atoms: N_14  and  C_15
REMARK    7  A    between atoms: N_17  and  C_18
REMARK    8  A    between atoms: C_18  and  C_19
REMARK    9  A    between atoms: C_25  and  C_26
REMARK   10  A    between atoms: C_26  and  O_27
REMARK                            x       y       z     vdW  Elec       q    Type
REMARK                         _______ _______ _______ _____ _____    ______ ____
ROOT
ATOM      1  C   UNL     1       2.104   7.498  19.660  0.00  0.00    +0.000 A 
ATOM      2  N   UNL     1       2.280   7.734  18.331  0.00  0.00    +0.000 NA
ATOM      3  C   UNL     1       1.917   8.930  17.830  0.00  0.00    +0.000 A 
ATOM      4  N   UNL     1       1.441   9.997  18.493  0.00  0.00    +0.000 NA
ATOM      5  C   UNL     1       1.263   9.724  19.795  0.00  0.00    +0.000 A 
ATOM      6  C   UNL     1       1.527   8.521  20.438  0.00  0.00    +0.000 A 
ATOM      7  N   UNL     1       1.201   8.602  21.771  0.00  0.00    +0.000 NA
ATOM      8  C   UNL     1       0.774   9.836  21.945  0.00  0.00    +0.000 A 
ATOM      9  N   UNL     1       0.819  10.571  20.780  0.00  0.00    +0.000 N 
ENDROOT
BRANCH   9  10
ATOM     10  C   UNL     1       0.706  12.023  20.692  0.00  0.00    +0.000 C 
ATOM     11  C   UNL     1      -0.046  12.653  19.488  0.00  0.00    +0.000 C 
ATOM     12  N   UNL     1      -1.520  12.650  19.565  0.00  0.00    +0.000 NA
ATOM     13  C   UNL     1      -1.901  13.256  20.852  0.00  0.00    +0.000 C 
ATOM     14  C   UNL     1      -1.151  12.762  22.113  0.00  0.00    +0.000 C 
ATOM     15  O   UNL     1       0.268  12.580  21.946  0.00  0.00    +0.000 OA
BRANCH  12  16
ATOM     16  C   UNL     1      -2.065  11.306  19.322  0.00  0.00    +0.000 C 
BRANCH  16  17
ATOM     17  C   UNL     1      -2.710  11.124  17.993  0.00  0.00    +0.000 A 
ATOM     18  C   UNL     1      -3.951  11.430  17.476  0.00  0.00    +0.000 A 
ATOM     19  C   UNL     1      -3.906  11.093  16.101  0.00  0.00    +0.000 A 
ATOM     20  C   UNL     1      -2.651  10.584  15.870  0.00  0.00    +0.000 A 
ATOM     21  O   UNL     1      -1.918  10.596  17.013  0.00  0.00    +0.000 OA
ENDBRANCH  16  17
ENDBRANCH  12  16
BRANCH  14  22
ATOM     22  C   UNL     1      -1.796  11.556  22.806  0.00  0.00    +0.000 C 
BRANCH  22  23
ATOM     23  O   UNL     1      -3.076  11.904  23.318  0.00  0.00    +0.000 OA
ATOM     24  H   UNL     1      -3.737  11.538  22.705  0.00  0.00    +0.000 HD
ENDBRANCH  22  23
ENDBRANCH  14  22
ENDBRANCH   9  10
BRANCH   1  25
ATOM     25  N   UNL     1       2.493   6.273  20.211  0.00  0.00    +0.000 N 
ATOM     26  H   UNL     1       3.443   6.340  20.580  0.00  0.00    +0.000 HD
BRANCH  25  27
ATOM     27  C   UNL     1       2.300   5.091  19.369  0.00  0.00    +0.000 C 
BRANCH  27  28
ATOM     28  C   UNL     1       3.637   4.402  19.051  0.00  0.00    +0.000 C 
BRANCH  28  30
ATOM     29  C   UNL     1       5.674   5.479  18.535  0.00  0.00    +0.000 C 
ATOM     30  O   UNL     1       4.718   5.203  19.549  0.00  0.00    +0.000 OA
ENDBRANCH  28  30
ENDBRANCH  27  28
ENDBRANCH  25  27
ENDBRANCH   1  25
TORSDOF 9
ENDMDL
