MODEL 1
REMARK VINA RESULT:      -8.5      0.000      0.000
REMARK  Name = 
REMARK  4 active torsions:
REMARK  status: ('A' for Active; 'I' for Inactive)
REMARK    1  A    between atoms: N_5  and  C_6
REMARK    2  A    between atoms: C_6  and  C_7
REMARK    3  A    between atoms: C_10  and  C_11
REMARK    4  A    between atoms: N_25  and  O_26
REMARK                            x       y       z     vdW  Elec       q    Type
REMARK                         _______ _______ _______ _____ _____    ______ ____
ROOT
ATOM      1  O   UNL     1       7.445   5.172  20.364  0.00  0.00    +0.000 OA
ATOM      2  C   UNL     1       6.818   5.054  19.318  0.00  0.00    +0.000 A 
ATOM      3  N   UNL     1       5.461   5.314  19.282  0.00  0.00    +0.000 NA
ATOM      4  C   UNL     1       4.772   5.286  18.183  0.00  0.00    +0.000 A 
ATOM      5  N   UNL     1       3.418   5.553  18.193  0.00  0.00    +0.000 N 
ATOM      6  C   UNL     1       5.413   4.950  16.885  0.00  0.00    +0.000 A 
ATOM      7  C   UNL     1       4.750   4.939  15.659  0.00  0.00    +0.000 A 
ATOM      8  C   UNL     1       5.468   4.645  14.504  0.00  0.00    +0.000 A 
ATOM      9  C   UNL     1       6.814   4.336  14.623  0.00  0.00    +0.000 A 
ATOM     10  N   UNL     1       7.477   4.310  15.802  0.00  0.00    +0.000 NA
ATOM     11  C   UNL     1       6.758   4.629  16.915  0.00  0.00    +0.000 A 
ATOM     12  N   UNL     1       7.419   4.664  18.139  0.00  0.00    +0.000 N 
ATOM     13  H   UNL     1       2.991   5.922  17.355  0.00  0.00    +0.000 HD
ENDROOT
BRANCH  12  14
ATOM     14  O   UNL     1       8.803   4.377  18.120  0.00  0.00    +0.000 OA
ATOM     15  H   UNL     1       8.951   4.059  19.035  0.00  0.00    +0.000 HD
ENDBRANCH  12  14
BRANCH   5  16
ATOM     16  C   UNL     1       2.711   5.913  19.409  0.00  0.00    +0.000 C 
BRANCH  16  17
ATOM     17  C   UNL     1       2.156   7.314  19.301  0.00  0.00    +0.000 A 
ATOM     18  C   UNL     1       1.580   7.978  20.393  0.00  0.00    +0.000 A 
ATOM     19  C   UNL     1       1.132   9.298  20.266  0.00  0.00    +0.000 A 
ATOM     20  C   UNL     1       1.213   9.982  19.042  0.00  0.00    +0.000 A 
ATOM     21  C   UNL     1       1.776   9.293  17.954  0.00  0.00    +0.000 A 
ATOM     22  C   UNL     1       2.233   7.985  18.077  0.00  0.00    +0.000 A 
BRANCH  20  23
ATOM     23  C   UNL     1       0.727  11.366  18.889  0.00  0.00    +0.000 A 
ATOM     24  C   UNL     1       1.599  12.445  18.703  0.00  0.00    +0.000 A 
ATOM     25  C   UNL     1       1.071  13.713  18.522  0.00  0.00    +0.000 A 
ATOM     26  N   UNL     1      -0.248  13.986  18.537  0.00  0.00    +0.000 NA
ATOM     27  C   UNL     1      -1.079  12.944  18.744  0.00  0.00    +0.000 A 
ATOM     28  C   UNL     1      -0.647  11.645  18.919  0.00  0.00    +0.000 A 
ENDBRANCH  20  23
ENDBRANCH  16  17
ENDBRANCH   5  16
TORSDOF 4
ENDMDL
MODEL 2
REMARK VINA RESULT:      -8.5      0.241      1.329
REMARK  Name = 
REMARK  4 active torsions:
REMARK  status: ('A' for Active; 'I' for Inactive)
REMARK    1  A    between atoms: N_5  and  C_6
REMARK    2  A    between atoms: C_6  and  C_7
REMARK    3  A    between atoms: C_10  and  C_11
REMARK    4  A    between atoms: N_25  and  O_26
REMARK                            x       y       z     vdW  Elec       q    Type
REMARK                         _______ _______ _______ _____ _____    ______ ____
ROOT
ATOM      1  O   UNL     1       7.451   5.184  20.390  0.00  0.00    +0.000 OA
ATOM      2  C   UNL     1       6.836   5.090  19.335  0.00  0.00    +0.000 A 
ATOM      3  N   UNL     1       5.485   5.382  19.285  0.00  0.00    +0.000 NA
ATOM      4  C   UNL     1       4.810   5.381  18.176  0.00  0.00    +0.000 A 
ATOM      5  N   UNL     1       3.463   5.678  18.173  0.00  0.00    +0.000 N 
ATOM      6  C   UNL     1       5.460   5.042  16.884  0.00  0.00    +0.000 A 
ATOM      7  C   UNL     1       4.812   5.058  15.649  0.00  0.00    +0.000 A 
ATOM      8  C   UNL     1       5.538   4.759  14.501  0.00  0.00    +0.000 A 
ATOM      9  C   UNL     1       6.874   4.417  14.634  0.00  0.00    +0.000 A 
ATOM     10  N   UNL     1       7.521   4.365  15.820  0.00  0.00    +0.000 NA
ATOM     11  C   UNL     1       6.796   4.690  16.927  0.00  0.00    +0.000 A 
ATOM     12  N   UNL     1       7.442   4.698  18.160  0.00  0.00    +0.000 N 
ATOM     13  H   UNL     1       3.055   6.065  17.333  0.00  0.00    +0.000 HD
ENDROOT
BRANCH  12  14
ATOM     14  O   UNL     1       8.819   4.379  18.156  0.00  0.00    +0.000 OA
ATOM     15  H   UNL     1       9.092   4.690  17.268  0.00  0.00    +0.000 HD
ENDBRANCH  12  14
BRANCH   5  16
ATOM     16  C   UNL     1       2.748   6.044  19.384  0.00  0.00    +0.000 C 
BRANCH  16  17
ATOM     17  C   UNL     1       2.219   7.455  19.278  0.00  0.00    +0.000 A 
ATOM     18  C   UNL     1       2.339   8.213  18.105  0.00  0.00    +0.000 A 
ATOM     19  C   UNL     1       1.782   9.495  18.028  0.00  0.00    +0.000 A 
ATOM     20  C   UNL     1       1.121  10.071  19.125  0.00  0.00    +0.000 A 
ATOM     21  C   UNL     1       1.027   9.302  20.298  0.00  0.00    +0.000 A 
ATOM     22  C   UNL     1       1.568   8.023  20.377  0.00  0.00    +0.000 A 
BRANCH  20  23
ATOM     23  C   UNL     1       0.546  11.428  19.064  0.00  0.00    +0.000 A 
ATOM     24  C   UNL     1      -0.785  11.689  19.412  0.00  0.00    +0.000 A 
ATOM     25  C   UNL     1      -1.246  12.994  19.373  0.00  0.00    +0.000 A 
ATOM     26  N   UNL     1      -0.493  14.046  18.994  0.00  0.00    +0.000 NA
ATOM     27  C   UNL     1       0.780  13.780  18.635  0.00  0.00    +0.000 A 
ATOM     28  C   UNL     1       1.332  12.515  18.656  0.00  0.00    +0.000 A 
ENDBRANCH  20  23
ENDBRANCH  16  17
ENDBRANCH   5  16
TORSDOF 4
ENDMDL
MODEL 3
REMARK VINA RESULT:      -8.2      2.677      3.701
REMARK  Name = 
REMARK  4 active torsions:
REMARK  status: ('A' for Active; 'I' for Inactive)
REMARK    1  A    between atoms: N_5  and  C_6
REMARK    2  A    between atoms: C_6  and  C_7
REMARK    3  A    between atoms: C_10  and  C_11
REMARK    4  A    between atoms: N_25  and  O_26
REMARK                            x       y       z     vdW  Elec       q    Type
REMARK                         _______ _______ _______ _____ _____    ______ ____
ROOT
ATOM      1  O   UNL     1       5.966   6.010  15.708  0.00  0.00    +0.000 OA
ATOM      2  C   UNL     1       5.088   5.604  16.460  0.00  0.00    +0.000 A 
ATOM      3  N   UNL     1       4.193   6.489  17.032  0.00  0.00    +0.000 NA
ATOM      4  C   UNL     1       3.195   6.100  17.764  0.00  0.00    +0.000 A 
ATOM      5  N   UNL     1       2.325   7.018  18.315  0.00  0.00    +0.000 N 
ATOM      6  C   UNL     1       2.969   4.658  18.047  0.00  0.00    +0.000 A 
ATOM      7  C   UNL     1       1.899   4.160  18.790  0.00  0.00    +0.000 A 
ATOM      8  C   UNL     1       1.773   2.785  18.954  0.00  0.00    +0.000 A 
ATOM      9  C   UNL     1       2.741   1.961  18.402  0.00  0.00    +0.000 A 
ATOM     10  N   UNL     1       3.805   2.417  17.702  0.00  0.00    +0.000 NA
ATOM     11  C   UNL     1       3.891   3.767  17.531  0.00  0.00    +0.000 A 
ATOM     12  N   UNL     1       4.944   4.269  16.771  0.00  0.00    +0.000 N 
ATOM     13  H   UNL     1       1.378   6.728  18.517  0.00  0.00    +0.000 HD
ENDROOT
BRANCH  12  14
ATOM     14  O   UNL     1       5.837   3.322  16.222  0.00  0.00    +0.000 OA
ATOM     15  H   UNL     1       6.036   2.763  17.002  0.00  0.00    +0.000 HD
ENDBRANCH  12  14
BRANCH   5  16
ATOM     16  C   UNL     1       2.453   8.445  18.075  0.00  0.00    +0.000 C 
BRANCH  16  17
ATOM     17  C   UNL     1       1.450   9.211  18.906  0.00  0.00    +0.000 A 
ATOM     18  C   UNL     1       1.152   8.860  20.230  0.00  0.00    +0.000 A 
ATOM     19  C   UNL     1       0.262   9.632  20.986  0.00  0.00    +0.000 A 
ATOM     20  C   UNL     1      -0.381  10.753  20.436  0.00  0.00    +0.000 A 
ATOM     21  C   UNL     1      -0.083  11.077  19.102  0.00  0.00    +0.000 A 
ATOM     22  C   UNL     1       0.809  10.321  18.349  0.00  0.00    +0.000 A 
BRANCH  20  23
ATOM     23  C   UNL     1      -1.336  11.564  21.215  0.00  0.00    +0.000 A 
ATOM     24  C   UNL     1      -2.249  12.431  20.603  0.00  0.00    +0.000 A 
ATOM     25  C   UNL     1      -3.146  13.130  21.393  0.00  0.00    +0.000 A 
ATOM     26  N   UNL     1      -3.185  13.047  22.738  0.00  0.00    +0.000 NA
ATOM     27  C   UNL     1      -2.284  12.229  23.320  0.00  0.00    +0.000 A 
ATOM     28  C   UNL     1      -1.362  11.483  22.614  0.00  0.00    +0.000 A 
ENDBRANCH  20  23
ENDBRANCH  16  17
ENDBRANCH   5  16
TORSDOF 4
ENDMDL
MODEL 4
REMARK VINA RESULT:      -8.1      2.313      3.428
REMARK  Name = 
REMARK  4 active torsions:
REMARK  status: ('A' for Active; 'I' for Inactive)
REMARK    1  A    between atoms: N_5  and  C_6
REMARK    2  A    between atoms: C_6  and  C_7
REMARK    3  A    between atoms: C_10  and  C_11
REMARK    4  A    between atoms: N_25  and  O_26
REMARK                            x       y       z     vdW  Elec       q    Type
REMARK                         _______ _______ _______ _____ _____    ______ ____
ROOT
ATOM      1  O   UNL     1       6.801   6.625  16.865  0.00  0.00    +0.000 OA
ATOM      2  C   UNL     1       5.913   6.125  17.544  0.00  0.00    +0.000 A 
ATOM      3  N   UNL     1       4.694   6.762  17.681  0.00  0.00    +0.000 NA
ATOM      4  C   UNL     1       3.695   6.233  18.318  0.00  0.00    +0.000 A 
ATOM      5  N   UNL     1       2.495   6.904  18.429  0.00  0.00    +0.000 N 
ATOM      6  C   UNL     1       3.817   4.898  18.960  0.00  0.00    +0.000 A 
ATOM      7  C   UNL     1       2.779   4.247  19.626  0.00  0.00    +0.000 A 
ATOM      8  C   UNL     1       3.004   2.981  20.155  0.00  0.00    +0.000 A 
ATOM      9  C   UNL     1       4.269   2.428  20.032  0.00  0.00    +0.000 A 
ATOM     10  N   UNL     1       5.303   3.048  19.418  0.00  0.00    +0.000 NA
ATOM     11  C   UNL     1       5.049   4.276  18.883  0.00  0.00    +0.000 A 
ATOM     12  N   UNL     1       6.074   4.921  18.197  0.00  0.00    +0.000 N 
ATOM     13  H   UNL     1       1.648   6.366  18.545  0.00  0.00    +0.000 HD
ENDROOT
BRANCH  12  14
ATOM     14  O   UNL     1       7.304   4.231  18.100  0.00  0.00    +0.000 OA
ATOM     15  H   UNL     1       7.129   3.437  18.646  0.00  0.00    +0.000 HD
ENDBRANCH  12  14
BRANCH   5  16
ATOM     16  C   UNL     1       2.276   8.202  17.814  0.00  0.00    +0.000 C 
BRANCH  16  17
ATOM     17  C   UNL     1       1.352   9.040  18.667  0.00  0.00    +0.000 A 
ATOM     18  C   UNL     1       1.315   8.926  20.064  0.00  0.00    +0.000 A 
ATOM     19  C   UNL     1       0.489   9.763  20.824  0.00  0.00    +0.000 A 
ATOM     20  C   UNL     1      -0.347  10.712  20.214  0.00  0.00    +0.000 A 
ATOM     21  C   UNL     1      -0.308  10.799  18.811  0.00  0.00    +0.000 A 
ATOM     22  C   UNL     1       0.519   9.978  18.052  0.00  0.00    +0.000 A 
BRANCH  20  23
ATOM     23  C   UNL     1      -1.237  11.587  21.000  0.00  0.00    +0.000 A 
ATOM     24  C   UNL     1      -2.109  12.500  20.394  0.00  0.00    +0.000 A 
ATOM     25  C   UNL     1      -2.947  13.259  21.192  0.00  0.00    +0.000 A 
ATOM     26  N   UNL     1      -2.964  13.196  22.538  0.00  0.00    +0.000 NA
ATOM     27  C   UNL     1      -2.101  12.333  23.113  0.00  0.00    +0.000 A 
ATOM     28  C   UNL     1      -1.239  11.525  22.400  0.00  0.00    +0.000 A 
ENDBRANCH  20  23
ENDBRANCH  16  17
ENDBRANCH   5  16
TORSDOF 4
ENDMDL
MODEL 5
REMARK VINA RESULT:      -8.1      4.602     10.055
REMARK  Name = 
REMARK  4 active torsions:
REMARK  status: ('A' for Active; 'I' for Inactive)
REMARK    1  A    between atoms: N_5  and  C_6
REMARK    2  A    between atoms: C_6  and  C_7
REMARK    3  A    between atoms: C_10  and  C_11
REMARK    4  A    between atoms: N_25  and  O_26
REMARK                            x       y       z     vdW  Elec       q    Type
REMARK                         _______ _______ _______ _____ _____    ______ ____
ROOT
ATOM      1  O   UNL     1      -2.875  10.815  15.459  0.00  0.00    +0.000 OA
ATOM      2  C   UNL     1      -2.901  11.138  16.641  0.00  0.00    +0.000 A 
ATOM      3  N   UNL     1      -1.725  11.273  17.355  0.00  0.00    +0.000 NA
ATOM      4  C   UNL     1      -1.696  11.695  18.582  0.00  0.00    +0.000 A 
ATOM      5  N   UNL     1      -0.499  11.815  19.257  0.00  0.00    +0.000 N 
ATOM      6  C   UNL     1      -2.949  12.044  19.302  0.00  0.00    +0.000 A 
ATOM      7  C   UNL     1      -2.996  12.540  20.604  0.00  0.00    +0.000 A 
ATOM      8  C   UNL     1      -4.229  12.867  21.158  0.00  0.00    +0.000 A 
ATOM      9  C   UNL     1      -5.371  12.650  20.405  0.00  0.00    +0.000 A 
ATOM     10  N   UNL     1      -5.359  12.142  19.151  0.00  0.00    +0.000 NA
ATOM     11  C   UNL     1      -4.137  11.856  18.619  0.00  0.00    +0.000 A 
ATOM     12  N   UNL     1      -4.080  11.381  17.312  0.00  0.00    +0.000 N 
ATOM     13  H   UNL     1      -0.431  12.490  20.006  0.00  0.00    +0.000 HD
ENDROOT
BRANCH  12  14
ATOM     14  O   UNL     1      -5.313  11.248  16.633  0.00  0.00    +0.000 OA
ATOM     15  H   UNL     1      -5.377  10.277  16.528  0.00  0.00    +0.000 HD
ENDBRANCH  12  14
BRANCH   5  16
ATOM     16  C   UNL     1       0.777  11.520  18.628  0.00  0.00    +0.000 C 
BRANCH  16  17
ATOM     17  C   UNL     1       1.226  10.121  18.981  0.00  0.00    +0.000 A 
ATOM     18  C   UNL     1       1.000   9.558  20.245  0.00  0.00    +0.000 A 
ATOM     19  C   UNL     1       1.378   8.238  20.512  0.00  0.00    +0.000 A 
ATOM     20  C   UNL     1       2.023   7.452  19.543  0.00  0.00    +0.000 A 
ATOM     21  C   UNL     1       2.258   8.040  18.288  0.00  0.00    +0.000 A 
ATOM     22  C   UNL     1       1.874   9.349  18.012  0.00  0.00    +0.000 A 
BRANCH  20  23
ATOM     23  C   UNL     1       2.445   6.066  19.817  0.00  0.00    +0.000 A 
ATOM     24  C   UNL     1       1.733   5.228  20.684  0.00  0.00    +0.000 A 
ATOM     25  C   UNL     1       2.163   3.923  20.861  0.00  0.00    +0.000 A 
ATOM     26  N   UNL     1       3.253   3.403  20.263  0.00  0.00    +0.000 NA
ATOM     27  C   UNL     1       3.947   4.226  19.451  0.00  0.00    +0.000 A 
ATOM     28  C   UNL     1       3.588   5.536  19.201  0.00  0.00    +0.000 A 
ENDBRANCH  20  23
ENDBRANCH  16  17
ENDBRANCH   5  16
TORSDOF 4
ENDMDL
MODEL 6
REMARK VINA RESULT:      -8.1      2.480      3.551
REMARK  Name = 
REMARK  4 active torsions:
REMARK  status: ('A' for Active; 'I' for Inactive)
REMARK    1  A    between atoms: N_5  and  C_6
REMARK    2  A    between atoms: C_6  and  C_7
REMARK    3  A    between atoms: C_10  and  C_11
REMARK    4  A    between atoms: N_25  and  O_26
REMARK                            x       y       z     vdW  Elec       q    Type
REMARK                         _______ _______ _______ _____ _____    ______ ____
ROOT
ATOM      1  O   UNL     1       6.600   6.647  16.759  0.00  0.00    +0.000 OA
ATOM      2  C   UNL     1       5.736   6.151  17.471  0.00  0.00    +0.000 A 
ATOM      3  N   UNL     1       4.527   6.796  17.656  0.00  0.00    +0.000 NA
ATOM      4  C   UNL     1       3.550   6.272  18.330  0.00  0.00    +0.000 A 
ATOM      5  N   UNL     1       2.360   6.952  18.488  0.00  0.00    +0.000 N 
ATOM      6  C   UNL     1       3.688   4.936  18.965  0.00  0.00    +0.000 A 
ATOM      7  C   UNL     1       2.672   4.291  19.669  0.00  0.00    +0.000 A 
ATOM      8  C   UNL     1       2.909   3.022  20.187  0.00  0.00    +0.000 A 
ATOM      9  C   UNL     1       4.165   2.461  20.015  0.00  0.00    +0.000 A 
ATOM     10  N   UNL     1       5.178   3.075  19.362  0.00  0.00    +0.000 NA
ATOM     11  C   UNL     1       4.912   4.306  18.840  0.00  0.00    +0.000 A 
ATOM     12  N   UNL     1       5.914   4.945  18.116  0.00  0.00    +0.000 N 
ATOM     13  H   UNL     1       1.514   6.419  18.636  0.00  0.00    +0.000 HD
ENDROOT
BRANCH  12  14
ATOM     14  O   UNL     1       7.134   4.247  17.970  0.00  0.00    +0.000 OA
ATOM     15  H   UNL     1       7.295   4.327  17.007  0.00  0.00    +0.000 HD
ENDBRANCH  12  14
BRANCH   5  16
ATOM     16  C   UNL     1       2.125   8.252  17.884  0.00  0.00    +0.000 C 
BRANCH  16  17
ATOM     17  C   UNL     1       1.457   9.179  18.872  0.00  0.00    +0.000 A 
ATOM     18  C   UNL     1       1.288   8.839  20.222  0.00  0.00    +0.000 A 
ATOM     19  C   UNL     1       0.719   9.750  21.118  0.00  0.00    +0.000 A 
ATOM     20  C   UNL     1       0.268  11.010  20.691  0.00  0.00    +0.000 A 
ATOM     21  C   UNL     1       0.429  11.325  19.331  0.00  0.00    +0.000 A 
ATOM     22  C   UNL     1       1.005  10.428  18.437  0.00  0.00    +0.000 A 
BRANCH  20  23
ATOM     23  C   UNL     1      -0.352  11.973  21.620  0.00  0.00    +0.000 A 
ATOM     24  C   UNL     1      -1.411  11.617  22.464  0.00  0.00    +0.000 A 
ATOM     25  C   UNL     1      -1.917  12.560  23.342  0.00  0.00    +0.000 A 
ATOM     26  N   UNL     1      -1.467  13.828  23.425  0.00  0.00    +0.000 NA
ATOM     27  C   UNL     1      -0.464  14.169  22.589  0.00  0.00    +0.000 A 
ATOM     28  C   UNL     1       0.113  13.293  21.691  0.00  0.00    +0.000 A 
ENDBRANCH  20  23
ENDBRANCH  16  17
ENDBRANCH   5  16
TORSDOF 4
ENDMDL
MODEL 7
REMARK VINA RESULT:      -8.1      2.507      3.637
REMARK  Name = 
REMARK  4 active torsions:
REMARK  status: ('A' for Active; 'I' for Inactive)
REMARK    1  A    between atoms: N_5  and  C_6
REMARK    2  A    between atoms: C_6  and  C_7
REMARK    3  A    between atoms: C_10  and  C_11
REMARK    4  A    between atoms: N_25  and  O_26
REMARK                            x       y       z     vdW  Elec       q    Type
REMARK                         _______ _______ _______ _____ _____    ______ ____
ROOT
ATOM      1  O   UNL     1       6.531   6.463  16.866  0.00  0.00    +0.000 OA
ATOM      2  C   UNL     1       5.649   6.022  17.591  0.00  0.00    +0.000 A 
ATOM      3  N   UNL     1       4.461   6.711  17.746  0.00  0.00    +0.000 NA
ATOM      4  C   UNL     1       3.465   6.243  18.434  0.00  0.00    +0.000 A 
ATOM      5  N   UNL     1       2.296   6.965  18.562  0.00  0.00    +0.000 N 
ATOM      6  C   UNL     1       3.558   4.927  19.118  0.00  0.00    +0.000 A 
ATOM      7  C   UNL     1       2.519   4.341  19.840  0.00  0.00    +0.000 A 
ATOM      8  C   UNL     1       2.714   3.084  20.405  0.00  0.00    +0.000 A 
ATOM      9  C   UNL     1       3.951   2.478  20.259  0.00  0.00    +0.000 A 
ATOM     10  N   UNL     1       4.986   3.036  19.590  0.00  0.00    +0.000 NA
ATOM     11  C   UNL     1       4.762   4.254  19.021  0.00  0.00    +0.000 A 
ATOM     12  N   UNL     1       5.786   4.835  18.280  0.00  0.00    +0.000 N 
ATOM     13  H   UNL     1       1.434   6.465  18.725  0.00  0.00    +0.000 HD
ENDROOT
BRANCH  12  14
ATOM     14  O   UNL     1       6.984   4.094  18.166  0.00  0.00    +0.000 OA
ATOM     15  H   UNL     1       7.620   4.672  18.635  0.00  0.00    +0.000 HD
ENDBRANCH  12  14
BRANCH   5  16
ATOM     16  C   UNL     1       2.106   8.250  17.910  0.00  0.00    +0.000 C 
BRANCH  16  17
ATOM     17  C   UNL     1       1.500   9.244  18.873  0.00  0.00    +0.000 A 
ATOM     18  C   UNL     1       1.244  10.575  18.513  0.00  0.00    +0.000 A 
ATOM     19  C   UNL     1       0.626  11.448  19.414  0.00  0.00    +0.000 A 
ATOM     20  C   UNL     1       0.278  11.034  20.710  0.00  0.00    +0.000 A 
ATOM     21  C   UNL     1       0.560   9.702  21.059  0.00  0.00    +0.000 A 
ATOM     22  C   UNL     1       1.164   8.825  20.163  0.00  0.00    +0.000 A 
BRANCH  20  23
ATOM     23  C   UNL     1      -0.355  11.950  21.678  0.00  0.00    +0.000 A 
ATOM     24  C   UNL     1       0.013  13.297  21.779  0.00  0.00    +0.000 A 
ATOM     25  C   UNL     1      -0.655  14.110  22.680  0.00  0.00    +0.000 A 
ATOM     26  N   UNL     1      -1.636  13.679  23.498  0.00  0.00    +0.000 NA
ATOM     27  C   UNL     1      -1.964  12.373  23.412  0.00  0.00    +0.000 A 
ATOM     28  C   UNL     1      -1.365  11.491  22.534  0.00  0.00    +0.000 A 
ENDBRANCH  20  23
ENDBRANCH  16  17
ENDBRANCH   5  16
TORSDOF 4
ENDMDL
MODEL 8
REMARK VINA RESULT:      -8.1      4.655      9.895
REMARK  Name = 
REMARK  4 active torsions:
REMARK  status: ('A' for Active; 'I' for Inactive)
REMARK    1  A    between atoms: N_5  and  C_6
REMARK    2  A    between atoms: C_6  and  C_7
REMARK    3  A    between atoms: C_10  and  C_11
REMARK    4  A    between atoms: N_25  and  O_26
REMARK                            x       y       z     vdW  Elec       q    Type
REMARK                         _______ _______ _______ _____ _____    ______ ____
ROOT
ATOM      1  O   UNL     1      -2.625  10.472  15.417  0.00  0.00    +0.000 OA
ATOM      2  C   UNL     1      -2.598  10.835  16.587  0.00  0.00    +0.000 A 
ATOM      3  N   UNL     1      -1.396  10.915  17.266  0.00  0.00    +0.000 NA
ATOM      4  C   UNL     1      -1.305  11.374  18.476  0.00  0.00    +0.000 A 
ATOM      5  N   UNL     1      -0.085  11.437  19.116  0.00  0.00    +0.000 N 
ATOM      6  C   UNL     1      -2.512  11.829  19.215  0.00  0.00    +0.000 A 
ATOM      7  C   UNL     1      -2.490  12.370  20.500  0.00  0.00    +0.000 A 
ATOM      8  C   UNL     1      -3.683  12.797  21.074  0.00  0.00    +0.000 A 
ATOM      9  C   UNL     1      -4.858  12.631  20.358  0.00  0.00    +0.000 A 
ATOM     10  N   UNL     1      -4.913  12.082  19.123  0.00  0.00    +0.000 NA
ATOM     11  C   UNL     1      -3.728  11.699  18.570  0.00  0.00    +0.000 A 
ATOM     12  N   UNL     1      -3.739  11.178  17.280  0.00  0.00    +0.000 N 
ATOM     13  H   UNL     1       0.048  12.130  19.839  0.00  0.00    +0.000 HD
ENDROOT
BRANCH  12  14
ATOM     14  O   UNL     1      -4.996  11.106  16.637  0.00  0.00    +0.000 OA
ATOM     15  H   UNL     1      -5.410  10.347  17.098  0.00  0.00    +0.000 HD
ENDBRANCH  12  14
BRANCH   5  16
ATOM     16  C   UNL     1       1.151  11.036  18.465  0.00  0.00    +0.000 C 
BRANCH  16  17
ATOM     17  C   UNL     1       1.476   9.598  18.791  0.00  0.00    +0.000 A 
ATOM     18  C   UNL     1       2.024   8.721  17.845  0.00  0.00    +0.000 A 
ATOM     19  C   UNL     1       2.367   7.412  18.203  0.00  0.00    +0.000 A 
ATOM     20  C   UNL     1       2.142   6.928  19.503  0.00  0.00    +0.000 A 
ATOM     21  C   UNL     1       1.575   7.817  20.432  0.00  0.00    +0.000 A 
ATOM     22  C   UNL     1       1.242   9.122  20.085  0.00  0.00    +0.000 A 
BRANCH  20  23
ATOM     23  C   UNL     1       2.480   5.546  19.889  0.00  0.00    +0.000 A 
ATOM     24  C   UNL     1       3.518   4.833  19.276  0.00  0.00    +0.000 A 
ATOM     25  C   UNL     1       3.808   3.554  19.719  0.00  0.00    +0.000 A 
ATOM     26  N   UNL     1       3.133   2.928  20.703  0.00  0.00    +0.000 NA
ATOM     27  C   UNL     1       2.118   3.613  21.270  0.00  0.00    +0.000 A 
ATOM     28  C   UNL     1       1.764   4.897  20.905  0.00  0.00    +0.000 A 
ENDBRANCH  20  23
ENDBRANCH  16  17
ENDBRANCH   5  16
TORSDOF 4
ENDMDL
MODEL 9
REMARK VINA RESULT:      -8.0      4.711      9.324
REMARK  Name = 
REMARK  4 active torsions:
REMARK  status: ('A' for Active; 'I' for Inactive)
REMARK    1  A    between atoms: N_5  and  C_6
REMARK    2  A    between atoms: C_6  and  C_7
REMARK    3  A    between atoms: C_10  and  C_11
REMARK    4  A    between atoms: N_25  and  O_26
REMARK                            x       y       z     vdW  Elec       q    Type
REMARK                         _______ _______ _______ _____ _____    ______ ____
ROOT
ATOM      1  O   UNL     1      -0.620  12.292  21.723  0.00  0.00    +0.000 OA
ATOM      2  C   UNL     1      -1.005  11.956  20.610  0.00  0.00    +0.000 A 
ATOM      3  N   UNL     1      -0.137  11.342  19.726  0.00  0.00    +0.000 NA
ATOM      4  C   UNL     1      -0.519  10.890  18.570  0.00  0.00    +0.000 A 
ATOM      5  N   UNL     1       0.382  10.284  17.719  0.00  0.00    +0.000 N 
ATOM      6  C   UNL     1      -1.929  11.028  18.122  0.00  0.00    +0.000 A 
ATOM      7  C   UNL     1      -2.423  10.534  16.915  0.00  0.00    +0.000 A 
ATOM      8  C   UNL     1      -3.773  10.691  16.623  0.00  0.00    +0.000 A 
ATOM      9  C   UNL     1      -4.572  11.369  17.530  0.00  0.00    +0.000 A 
ATOM     10  N   UNL     1      -4.115  11.884  18.694  0.00  0.00    +0.000 NA
ATOM     11  C   UNL     1      -2.794  11.693  18.971  0.00  0.00    +0.000 A 
ATOM     12  N   UNL     1      -2.300  12.163  20.184  0.00  0.00    +0.000 N 
ATOM     13  H   UNL     1       0.038   9.605  17.055  0.00  0.00    +0.000 HD
ENDROOT
BRANCH  12  14
ATOM     14  O   UNL     1      -3.227  12.795  21.044  0.00  0.00    +0.000 OA
ATOM     15  H   UNL     1      -3.506  12.050  21.615  0.00  0.00    +0.000 HD
ENDBRANCH  12  14
BRANCH   5  16
ATOM     16  C   UNL     1       1.775  10.085  18.081  0.00  0.00    +0.000 C 
BRANCH  16  17
ATOM     17  C   UNL     1       1.977   8.701  18.653  0.00  0.00    +0.000 A 
ATOM     18  C   UNL     1       1.663   8.387  19.983  0.00  0.00    +0.000 A 
ATOM     19  C   UNL     1       1.808   7.079  20.458  0.00  0.00    +0.000 A 
ATOM     20  C   UNL     1       2.303   6.054  19.635  0.00  0.00    +0.000 A 
ATOM     21  C   UNL     1       2.630   6.393  18.310  0.00  0.00    +0.000 A 
ATOM     22  C   UNL     1       2.476   7.689  17.829  0.00  0.00    +0.000 A 
BRANCH  20  23
ATOM     23  C   UNL     1       2.480   4.675  20.127  0.00  0.00    +0.000 A 
ATOM     24  C   UNL     1       3.560   3.876  19.731  0.00  0.00    +0.000 A 
ATOM     25  C   UNL     1       3.687   2.606  20.267  0.00  0.00    +0.000 A 
ATOM     26  N   UNL     1       2.814   2.068  21.141  0.00  0.00    +0.000 NA
ATOM     27  C   UNL     1       1.763   2.835  21.495  0.00  0.00    +0.000 A 
ATOM     28  C   UNL     1       1.560   4.118  21.025  0.00  0.00    +0.000 A 
ENDBRANCH  20  23
ENDBRANCH  16  17
ENDBRANCH   5  16
TORSDOF 4
ENDMDL
