MODEL 1
REMARK VINA RESULT:      -8.6      0.000      0.000
REMARK  Name = 
REMARK  8 active torsions:
REMARK  status: ('A' for Active; 'I' for Inactive)
REMARK    1  A    between atoms: C_1  and  O_2
REMARK    2  A    between atoms: O_2  and  C_3
REMARK    3  A    between atoms: C_5  and  C_6
REMARK    4  A    between atoms: C_7  and  C_8
REMARK    5  A    between atoms: C_12  and  C_13
REMARK    6  A    between atoms: C_24  and  O_25
REMARK    7  A    between atoms: O_25  and  C_26
REMARK    8  A    between atoms: C_26  and  C_27
REMARK                            x       y       z     vdW  Elec       q    Type
REMARK                         _______ _______ _______ _____ _____    ______ ____
ROOT
ATOM      1  C   UNL     1       1.624   4.687  19.723  0.00  0.00    +0.000 A 
ATOM      2  C   UNL     1       1.434   5.680  20.704  0.00  0.00    +0.000 A 
ATOM      3  C   UNL     1       1.730   7.017  20.435  0.00  0.00    +0.000 A 
ATOM      4  C   UNL     1       2.306   7.341  19.207  0.00  0.00    +0.000 A 
ATOM      5  C   UNL     1       2.555   6.361  18.258  0.00  0.00    +0.000 A 
ATOM      6  C   UNL     1       2.257   5.019  18.508  0.00  0.00    +0.000 A 
ENDROOT
BRANCH   1   8
ATOM      7  C   UNL     1       1.662   2.781  21.127  0.00  0.00    +0.000 C 
ATOM      8  O   UNL     1       1.216   3.389  19.912  0.00  0.00    +0.000 OA
ENDBRANCH   1   8
BRANCH   3   9
ATOM      9  C   UNL     1       1.468   8.062  21.431  0.00  0.00    +0.000 C 
ATOM     10  C   UNL     1       0.311   8.742  21.428  0.00  0.00    +0.000 C 
BRANCH  10  11
ATOM     11  C   UNL     1       0.107   9.915  22.304  0.00  0.00    +0.000 C 
ATOM     12  O   UNL     1       0.373   9.899  23.500  0.00  0.00    +0.000 OA
ATOM     13  N   UNL     1      -0.280  11.032  21.606  0.00  0.00    +0.000 N 
ATOM     14  C   UNL     1      -0.503  12.346  22.179  0.00  0.00    +0.000 C 
ATOM     15  C   UNL     1      -1.804  12.431  21.364  0.00  0.00    +0.000 C 
ATOM     16  C   UNL     1      -1.371  11.145  20.641  0.00  0.00    +0.000 C 
BRANCH  15  17
ATOM     17  C   UNL     1      -3.105  12.392  22.199  0.00  0.00    +0.000 C 
ATOM     18  O   UNL     1      -3.150  11.896  23.330  0.00  0.00    +0.000 OA
ATOM     19  N   UNL     1      -4.231  12.988  21.624  0.00  0.00    +0.000 N 
ATOM     20  C   UNL     1      -5.414  13.243  22.438  0.00  0.00    +0.000 C 
ATOM     21  C   UNL     1      -6.602  12.439  21.922  0.00  0.00    +0.000 C 
ATOM     22  C   UNL     1      -6.823  12.673  20.427  0.00  0.00    +0.000 C 
ATOM     23  C   UNL     1      -5.537  12.434  19.633  0.00  0.00    +0.000 C 
ATOM     24  C   UNL     1      -4.389  13.267  20.197  0.00  0.00    +0.000 C 
ENDBRANCH  15  17
ENDBRANCH  10  11
ENDBRANCH   3   9
BRANCH   6  25
ATOM     25  O   UNL     1       2.569   4.007  17.611  0.00  0.00    +0.000 OA
BRANCH  25  26
ATOM     26  C   UNL     1       3.866   3.429  17.845  0.00  0.00    +0.000 C 
BRANCH  26  27
ATOM     27  C   UNL     1       5.027   4.106  17.163  0.00  0.00    +0.000 A 
ATOM     28  C   UNL     1       6.151   4.556  17.858  0.00  0.00    +0.000 A 
ATOM     29  C   UNL     1       7.249   5.065  17.160  0.00  0.00    +0.000 A 
ATOM     30  C   UNL     1       7.238   5.119  15.764  0.00  0.00    +0.000 A 
ATOM     31  C   UNL     1       6.129   4.661  15.060  0.00  0.00    +0.000 A 
ATOM     32  C   UNL     1       5.035   4.154  15.755  0.00  0.00    +0.000 A 
ENDBRANCH  26  27
ENDBRANCH  25  26
ENDBRANCH   6  25
TORSDOF 7
ENDMDL
MODEL 2
REMARK VINA RESULT:      -8.6      1.161      1.466
REMARK  Name = 
REMARK  8 active torsions:
REMARK  status: ('A' for Active; 'I' for Inactive)
REMARK    1  A    between atoms: C_1  and  O_2
REMARK    2  A    between atoms: O_2  and  C_3
REMARK    3  A    between atoms: C_5  and  C_6
REMARK    4  A    between atoms: C_7  and  C_8
REMARK    5  A    between atoms: C_12  and  C_13
REMARK    6  A    between atoms: C_24  and  O_25
REMARK    7  A    between atoms: O_25  and  C_26
REMARK    8  A    between atoms: C_26  and  C_27
REMARK                            x       y       z     vdW  Elec       q    Type
REMARK                         _______ _______ _______ _____ _____    ______ ____
ROOT
ATOM      1  C   UNL     1       2.325   5.272  19.774  0.00  0.00    +0.000 A 
ATOM      2  C   UNL     1       1.883   6.164  20.770  0.00  0.00    +0.000 A 
ATOM      3  C   UNL     1       1.702   7.519  20.487  0.00  0.00    +0.000 A 
ATOM      4  C   UNL     1       2.054   7.992  19.223  0.00  0.00    +0.000 A 
ATOM      5  C   UNL     1       2.550   7.131  18.256  0.00  0.00    +0.000 A 
ATOM      6  C   UNL     1       2.730   5.771  18.519  0.00  0.00    +0.000 A 
ENDROOT
BRANCH   1   8
ATOM      7  C   UNL     1       1.820   3.466  21.220  0.00  0.00    +0.000 C 
ATOM      8  O   UNL     1       2.385   3.916  19.985  0.00  0.00    +0.000 OA
ENDBRANCH   1   8
BRANCH   3   9
ATOM      9  C   UNL     1       1.176   8.437  21.504  0.00  0.00    +0.000 C 
ATOM     10  C   UNL     1       0.239   9.347  21.192  0.00  0.00    +0.000 C 
BRANCH  10  11
ATOM     11  C   UNL     1      -0.165  10.393  22.154  0.00  0.00    +0.000 C 
ATOM     12  O   UNL     1      -0.005  10.275  23.363  0.00  0.00    +0.000 OA
ATOM     13  N   UNL     1      -0.608  11.536  21.534  0.00  0.00    +0.000 N 
ATOM     14  C   UNL     1      -1.019  12.752  22.208  0.00  0.00    +0.000 C 
ATOM     15  C   UNL     1      -2.246  12.796  21.282  0.00  0.00    +0.000 C 
ATOM     16  C   UNL     1      -1.615  11.644  20.482  0.00  0.00    +0.000 C 
BRANCH  15  17
ATOM     17  C   UNL     1      -3.603  12.541  21.976  0.00  0.00    +0.000 C 
ATOM     18  O   UNL     1      -3.683  12.109  23.131  0.00  0.00    +0.000 OA
ATOM     19  N   UNL     1      -4.747  12.865  21.243  0.00  0.00    +0.000 N 
ATOM     20  C   UNL     1      -6.045  12.920  21.908  0.00  0.00    +0.000 C 
ATOM     21  C   UNL     1      -6.986  11.867  21.335  0.00  0.00    +0.000 C 
ATOM     22  C   UNL     1      -7.071  11.970  19.811  0.00  0.00    +0.000 C 
ATOM     23  C   UNL     1      -5.679  11.953  19.176  0.00  0.00    +0.000 C 
ATOM     24  C   UNL     1      -4.789  13.029  19.791  0.00  0.00    +0.000 C 
ENDBRANCH  15  17
ENDBRANCH  10  11
ENDBRANCH   3   9
BRANCH   6  25
ATOM     25  O   UNL     1       3.298   4.902  17.599  0.00  0.00    +0.000 OA
BRANCH  25  26
ATOM     26  C   UNL     1       4.349   5.511  16.826  0.00  0.00    +0.000 C 
BRANCH  26  27
ATOM     27  C   UNL     1       5.586   5.913  17.587  0.00  0.00    +0.000 A 
ATOM     28  C   UNL     1       6.089   5.169  18.654  0.00  0.00    +0.000 A 
ATOM     29  C   UNL     1       7.307   5.524  19.242  0.00  0.00    +0.000 A 
ATOM     30  C   UNL     1       8.035   6.615  18.763  0.00  0.00    +0.000 A 
ATOM     31  C   UNL     1       7.549   7.356  17.690  0.00  0.00    +0.000 A 
ATOM     32  C   UNL     1       6.337   7.005  17.104  0.00  0.00    +0.000 A 
ENDBRANCH  26  27
ENDBRANCH  25  26
ENDBRANCH   6  25
TORSDOF 7
ENDMDL
MODEL 3
REMARK VINA RESULT:      -8.5      6.962     11.403
REMARK  Name = 
REMARK  8 active torsions:
REMARK  status: ('A' for Active; 'I' for Inactive)
REMARK    1  A    between atoms: C_1  and  O_2
REMARK    2  A    between atoms: O_2  and  C_3
REMARK    3  A    between atoms: C_5  and  C_6
REMARK    4  A    between atoms: C_7  and  C_8
REMARK    5  A    between atoms: C_12  and  C_13
REMARK    6  A    between atoms: C_24  and  O_25
REMARK    7  A    between atoms: O_25  and  C_26
REMARK    8  A    between atoms: C_26  and  C_27
REMARK                            x       y       z     vdW  Elec       q    Type
REMARK                         _______ _______ _______ _____ _____    ______ ____
ROOT
ATOM      1  C   UNL     1      10.443  12.235  18.676  0.00  0.00    +0.000 A 
ATOM      2  C   UNL     1       9.797  11.205  17.966  0.00  0.00    +0.000 A 
ATOM      3  C   UNL     1       9.028  10.250  18.633  0.00  0.00    +0.000 A 
ATOM      4  C   UNL     1       8.985  10.279  20.026  0.00  0.00    +0.000 A 
ATOM      5  C   UNL     1       9.669  11.253  20.738  0.00  0.00    +0.000 A 
ATOM      6  C   UNL     1      10.437  12.221  20.086  0.00  0.00    +0.000 A 
ENDROOT
BRANCH   1   8
ATOM      7  C   UNL     1      11.136  13.166  16.612  0.00  0.00    +0.000 C 
ATOM      8  O   UNL     1      11.094  13.263  18.038  0.00  0.00    +0.000 OA
ENDBRANCH   1   8
BRANCH   3   9
ATOM      9  C   UNL     1       8.298   9.217  17.889  0.00  0.00    +0.000 C 
ATOM     10  C   UNL     1       8.248   7.952  18.335  0.00  0.00    +0.000 C 
BRANCH  10  11
ATOM     11  C   UNL     1       7.676   6.868  17.509  0.00  0.00    +0.000 C 
ATOM     12  O   UNL     1       7.569   6.954  16.291  0.00  0.00    +0.000 OA
ATOM     13  N   UNL     1       7.408   5.736  18.238  0.00  0.00    +0.000 N 
ATOM     14  C   UNL     1       6.896   4.491  17.699  0.00  0.00    +0.000 C 
ATOM     15  C   UNL     1       5.898   4.448  18.869  0.00  0.00    +0.000 C 
ATOM     16  C   UNL     1       6.654   5.637  19.485  0.00  0.00    +0.000 C 
BRANCH  15  17
ATOM     17  C   UNL     1       4.417   4.652  18.476  0.00  0.00    +0.000 C 
ATOM     18  O   UNL     1       4.039   5.615  17.800  0.00  0.00    +0.000 OA
ATOM     19  N   UNL     1       3.522   3.664  18.893  0.00  0.00    +0.000 N 
ATOM     20  C   UNL     1       2.171   3.627  18.342  0.00  0.00    +0.000 C 
ATOM     21  C   UNL     1       1.138   3.856  19.438  0.00  0.00    +0.000 C 
ATOM     22  C   UNL     1       1.350   2.894  20.610  0.00  0.00    +0.000 C 
ATOM     23  C   UNL     1       2.794   2.945  21.113  0.00  0.00    +0.000 C 
ATOM     24  C   UNL     1       3.777   2.707  19.969  0.00  0.00    +0.000 C 
ENDBRANCH  15  17
ENDBRANCH  10  11
ENDBRANCH   3   9
BRANCH   6  25
ATOM     25  O   UNL     1      11.196  13.157  20.773  0.00  0.00    +0.000 OA
BRANCH  25  26
ATOM     26  C   UNL     1      10.539  14.431  20.900  0.00  0.00    +0.000 C 
BRANCH  26  27
ATOM     27  C   UNL     1       9.172  14.413  21.534  0.00  0.00    +0.000 A 
ATOM     28  C   UNL     1       8.978  14.226  22.903  0.00  0.00    +0.000 A 
ATOM     29  C   UNL     1       7.698  14.341  23.451  0.00  0.00    +0.000 A 
ATOM     30  C   UNL     1       6.604  14.654  22.640  0.00  0.00    +0.000 A 
ATOM     31  C   UNL     1       6.788  14.857  21.276  0.00  0.00    +0.000 A 
ATOM     32  C   UNL     1       8.062  14.742  20.729  0.00  0.00    +0.000 A 
ENDBRANCH  26  27
ENDBRANCH  25  26
ENDBRANCH   6  25
TORSDOF 7
ENDMDL
MODEL 4
REMARK VINA RESULT:      -8.5      7.286     11.690
REMARK  Name = 
REMARK  8 active torsions:
REMARK  status: ('A' for Active; 'I' for Inactive)
REMARK    1  A    between atoms: C_1  and  O_2
REMARK    2  A    between atoms: O_2  and  C_3
REMARK    3  A    between atoms: C_5  and  C_6
REMARK    4  A    between atoms: C_7  and  C_8
REMARK    5  A    between atoms: C_12  and  C_13
REMARK    6  A    between atoms: C_24  and  O_25
REMARK    7  A    between atoms: O_25  and  C_26
REMARK    8  A    between atoms: C_26  and  C_27
REMARK                            x       y       z     vdW  Elec       q    Type
REMARK                         _______ _______ _______ _____ _____    ______ ____
ROOT
ATOM      1  C   UNL     1       9.667  12.586  18.620  0.00  0.00    +0.000 A 
ATOM      2  C   UNL     1       9.115  11.522  17.880  0.00  0.00    +0.000 A 
ATOM      3  C   UNL     1       8.797  10.311  18.498  0.00  0.00    +0.000 A 
ATOM      4  C   UNL     1       9.121  10.141  19.843  0.00  0.00    +0.000 A 
ATOM      5  C   UNL     1       9.722  11.161  20.564  0.00  0.00    +0.000 A 
ATOM      6  C   UNL     1      10.040  12.383  19.964  0.00  0.00    +0.000 A 
ENDROOT
BRANCH   1   8
ATOM      7  C   UNL     1      10.999  13.941  17.207  0.00  0.00    +0.000 C 
ATOM      8  O   UNL     1       9.864  13.829  18.070  0.00  0.00    +0.000 OA
ENDBRANCH   1   8
BRANCH   3   9
ATOM      9  C   UNL     1       8.158   9.226  17.744  0.00  0.00    +0.000 C 
ATOM     10  C   UNL     1       8.101   7.982  18.244  0.00  0.00    +0.000 C 
BRANCH  10  11
ATOM     11  C   UNL     1       7.628   6.846  17.424  0.00  0.00    +0.000 C 
ATOM     12  O   UNL     1       7.566   6.896  16.201  0.00  0.00    +0.000 OA
ATOM     13  N   UNL     1       7.398   5.718  18.171  0.00  0.00    +0.000 N 
ATOM     14  C   UNL     1       6.982   4.432  17.644  0.00  0.00    +0.000 C 
ATOM     15  C   UNL     1       5.941   4.357  18.775  0.00  0.00    +0.000 C 
ATOM     16  C   UNL     1       6.600   5.603  19.389  0.00  0.00    +0.000 C 
BRANCH  15  17
ATOM     17  C   UNL     1       4.468   4.463  18.319  0.00  0.00    +0.000 C 
ATOM     18  O   UNL     1       4.061   5.386  17.605  0.00  0.00    +0.000 OA
ATOM     19  N   UNL     1       3.616   3.432  18.724  0.00  0.00    +0.000 N 
ATOM     20  C   UNL     1       2.294   3.302  18.121  0.00  0.00    +0.000 C 
ATOM     21  C   UNL     1       1.205   3.493  19.170  0.00  0.00    +0.000 C 
ATOM     22  C   UNL     1       1.426   2.572  20.372  0.00  0.00    +0.000 C 
ATOM     23  C   UNL     1       2.842   2.720  20.931  0.00  0.00    +0.000 C 
ATOM     24  C   UNL     1       3.883   2.517  19.833  0.00  0.00    +0.000 C 
ENDBRANCH  15  17
ENDBRANCH  10  11
ENDBRANCH   3   9
BRANCH   6  25
ATOM     25  O   UNL     1      10.713  13.391  20.638  0.00  0.00    +0.000 OA
BRANCH  25  26
ATOM     26  C   UNL     1       9.874  14.518  20.948  0.00  0.00    +0.000 C 
BRANCH  26  27
ATOM     27  C   UNL     1       9.361  14.594  22.363  0.00  0.00    +0.000 A 
ATOM     28  C   UNL     1       8.729  13.521  22.994  0.00  0.00    +0.000 A 
ATOM     29  C   UNL     1       8.386  13.609  24.346  0.00  0.00    +0.000 A 
ATOM     30  C   UNL     1       8.678  14.761  25.079  0.00  0.00    +0.000 A 
ATOM     31  C   UNL     1       9.319  15.831  24.464  0.00  0.00    +0.000 A 
ATOM     32  C   UNL     1       9.662  15.746  23.118  0.00  0.00    +0.000 A 
ENDBRANCH  26  27
ENDBRANCH  25  26
ENDBRANCH   6  25
TORSDOF 7
ENDMDL
MODEL 5
REMARK VINA RESULT:      -8.5      7.164     11.276
REMARK  Name = 
REMARK  8 active torsions:
REMARK  status: ('A' for Active; 'I' for Inactive)
REMARK    1  A    between atoms: C_1  and  O_2
REMARK    2  A    between atoms: O_2  and  C_3
REMARK    3  A    between atoms: C_5  and  C_6
REMARK    4  A    between atoms: C_7  and  C_8
REMARK    5  A    between atoms: C_12  and  C_13
REMARK    6  A    between atoms: C_24  and  O_25
REMARK    7  A    between atoms: O_25  and  C_26
REMARK    8  A    between atoms: C_26  and  C_27
REMARK                            x       y       z     vdW  Elec       q    Type
REMARK                         _______ _______ _______ _____ _____    ______ ____
ROOT
ATOM      1  C   UNL     1       9.199  12.718  18.908  0.00  0.00    +0.000 A 
ATOM      2  C   UNL     1       8.873  11.641  18.060  0.00  0.00    +0.000 A 
ATOM      3  C   UNL     1       8.868  10.330  18.539  0.00  0.00    +0.000 A 
ATOM      4  C   UNL     1       9.280  10.095  19.850  0.00  0.00    +0.000 A 
ATOM      5  C   UNL     1       9.663  11.143  20.673  0.00  0.00    +0.000 A 
ATOM      6  C   UNL     1       9.666  12.462  20.213  0.00  0.00    +0.000 A 
ENDROOT
BRANCH   1   8
ATOM      7  C   UNL     1      10.143  14.501  17.669  0.00  0.00    +0.000 C 
ATOM      8  O   UNL     1       9.083  14.025  18.502  0.00  0.00    +0.000 OA
ENDBRANCH   1   8
BRANCH   3   9
ATOM      9  C   UNL     1       8.462   9.215  17.676  0.00  0.00    +0.000 C 
ATOM     10  C   UNL     1       7.874   8.124  18.192  0.00  0.00    +0.000 C 
BRANCH  10  11
ATOM     11  C   UNL     1       7.628   6.922  17.367  0.00  0.00    +0.000 C 
ATOM     12  O   UNL     1       7.753   6.922  16.148  0.00  0.00    +0.000 OA
ATOM     13  N   UNL     1       7.378   5.805  18.126  0.00  0.00    +0.000 N 
ATOM     14  C   UNL     1       7.155   4.469  17.606  0.00  0.00    +0.000 C 
ATOM     15  C   UNL     1       5.962   4.344  18.568  0.00  0.00    +0.000 C 
ATOM     16  C   UNL     1       6.413   5.665  19.213  0.00  0.00    +0.000 C 
BRANCH  15  17
ATOM     17  C   UNL     1       4.573   4.303  17.890  0.00  0.00    +0.000 C 
ATOM     18  O   UNL     1       4.276   5.044  16.947  0.00  0.00    +0.000 OA
ATOM     19  N   UNL     1       3.673   3.350  18.373  0.00  0.00    +0.000 N 
ATOM     20  C   UNL     1       2.457   3.053  17.624  0.00  0.00    +0.000 C 
ATOM     21  C   UNL     1       1.222   3.419  18.439  0.00  0.00    +0.000 C 
ATOM     22  C   UNL     1       1.262   2.775  19.827  0.00  0.00    +0.000 C 
ATOM     23  C   UNL     1       2.578   3.085  20.543  0.00  0.00    +0.000 C 
ATOM     24  C   UNL     1       3.773   2.694  19.676  0.00  0.00    +0.000 C 
ENDBRANCH  15  17
ENDBRANCH  10  11
ENDBRANCH   3   9
BRANCH   6  25
ATOM     25  O   UNL     1      10.120  13.520  20.987  0.00  0.00    +0.000 OA
BRANCH  25  26
ATOM     26  C   UNL     1       9.071  14.160  21.736  0.00  0.00    +0.000 C 
BRANCH  26  27
ATOM     27  C   UNL     1       8.295  13.277  22.680  0.00  0.00    +0.000 A 
ATOM     28  C   UNL     1       8.865  12.708  23.819  0.00  0.00    +0.000 A 
ATOM     29  C   UNL     1       8.068  12.000  24.722  0.00  0.00    +0.000 A 
ATOM     30  C   UNL     1       6.695  11.864  24.500  0.00  0.00    +0.000 A 
ATOM     31  C   UNL     1       6.114  12.438  23.375  0.00  0.00    +0.000 A 
ATOM     32  C   UNL     1       6.907  13.143  22.475  0.00  0.00    +0.000 A 
ENDBRANCH  26  27
ENDBRANCH  25  26
ENDBRANCH   6  25
TORSDOF 7
ENDMDL
MODEL 6
REMARK VINA RESULT:      -8.4      7.526     11.836
REMARK  Name = 
REMARK  8 active torsions:
REMARK  status: ('A' for Active; 'I' for Inactive)
REMARK    1  A    between atoms: C_1  and  O_2
REMARK    2  A    between atoms: O_2  and  C_3
REMARK    3  A    between atoms: C_5  and  C_6
REMARK    4  A    between atoms: C_7  and  C_8
REMARK    5  A    between atoms: C_12  and  C_13
REMARK    6  A    between atoms: C_24  and  O_25
REMARK    7  A    between atoms: O_25  and  C_26
REMARK    8  A    between atoms: C_26  and  C_27
REMARK                            x       y       z     vdW  Elec       q    Type
REMARK                         _______ _______ _______ _____ _____    ______ ____
ROOT
ATOM      1  C   UNL     1       9.081  12.734  18.585  0.00  0.00    +0.000 A 
ATOM      2  C   UNL     1       8.627  11.631  17.836  0.00  0.00    +0.000 A 
ATOM      3  C   UNL     1       8.678  10.339  18.362  0.00  0.00    +0.000 A 
ATOM      4  C   UNL     1       9.274  10.147  19.609  0.00  0.00    +0.000 A 
ATOM      5  C   UNL     1       9.781  11.220  20.326  0.00  0.00    +0.000 A 
ATOM      6  C   UNL     1       9.730  12.521  19.818  0.00  0.00    +0.000 A 
ENDROOT
BRANCH   1   8
ATOM      7  C   UNL     1       7.575  14.402  17.841  0.00  0.00    +0.000 C 
ATOM      8  O   UNL     1       8.920  14.026  18.149  0.00  0.00    +0.000 OA
ENDBRANCH   1   8
BRANCH   3   9
ATOM      9  C   UNL     1       8.143   9.198  17.611  0.00  0.00    +0.000 C 
ATOM     10  C   UNL     1       8.000   7.997  18.193  0.00  0.00    +0.000 C 
BRANCH  10  11
ATOM     11  C   UNL     1       7.637   6.800  17.404  0.00  0.00    +0.000 C 
ATOM     12  O   UNL     1       7.693   6.775  16.180  0.00  0.00    +0.000 OA
ATOM     13  N   UNL     1       7.363   5.712  18.196  0.00  0.00    +0.000 N 
ATOM     14  C   UNL     1       7.032   4.385  17.713  0.00  0.00    +0.000 C 
ATOM     15  C   UNL     1       5.890   4.346  18.742  0.00  0.00    +0.000 C 
ATOM     16  C   UNL     1       6.454   5.646  19.337  0.00  0.00    +0.000 C 
BRANCH  15  17
ATOM     17  C   UNL     1       4.465   4.379  18.143  0.00  0.00    +0.000 C 
ATOM     18  O   UNL     1       4.137   5.181  17.262  0.00  0.00    +0.000 OA
ATOM     19  N   UNL     1       3.567   3.421  18.621  0.00  0.00    +0.000 N 
ATOM     20  C   UNL     1       2.303   3.199  17.926  0.00  0.00    +0.000 C 
ATOM     21  C   UNL     1       1.126   3.547  18.829  0.00  0.00    +0.000 C 
ATOM     22  C   UNL     1       1.225   2.822  20.173  0.00  0.00    +0.000 C 
ATOM     23  C   UNL     1       2.587   3.056  20.830  0.00  0.00    +0.000 C 
ATOM     24  C   UNL     1       3.720   2.687  19.876  0.00  0.00    +0.000 C 
ENDBRANCH  15  17
ENDBRANCH  10  11
ENDBRANCH   3   9
BRANCH   6  25
ATOM     25  O   UNL     1      10.300  13.601  20.477  0.00  0.00    +0.000 OA
BRANCH  25  26
ATOM     26  C   UNL     1       9.375  14.283  21.344  0.00  0.00    +0.000 C 
BRANCH  26  27
ATOM     27  C   UNL     1       9.983  15.212  22.362  0.00  0.00    +0.000 A 
ATOM     28  C   UNL     1      10.995  16.120  22.046  0.00  0.00    +0.000 A 
ATOM     29  C   UNL     1      11.433  17.041  23.001  0.00  0.00    +0.000 A 
ATOM     30  C   UNL     1      10.858  17.070  24.274  0.00  0.00    +0.000 A 
ATOM     31  C   UNL     1       9.840  16.179  24.596  0.00  0.00    +0.000 A 
ATOM     32  C   UNL     1       9.403  15.261  23.646  0.00  0.00    +0.000 A 
ENDBRANCH  26  27
ENDBRANCH  25  26
ENDBRANCH   6  25
TORSDOF 7
ENDMDL
MODEL 7
REMARK VINA RESULT:      -8.2      1.620      2.154
REMARK  Name = 
REMARK  8 active torsions:
REMARK  status: ('A' for Active; 'I' for Inactive)
REMARK    1  A    between atoms: C_1  and  O_2
REMARK    2  A    between atoms: O_2  and  C_3
REMARK    3  A    between atoms: C_5  and  C_6
REMARK    4  A    between atoms: C_7  and  C_8
REMARK    5  A    between atoms: C_12  and  C_13
REMARK    6  A    between atoms: C_24  and  O_25
REMARK    7  A    between atoms: O_25  and  C_26
REMARK    8  A    between atoms: C_26  and  C_27
REMARK                            x       y       z     vdW  Elec       q    Type
REMARK                         _______ _______ _______ _____ _____    ______ ____
ROOT
ATOM      1  C   UNL     1       2.304   6.009  19.901  0.00  0.00    +0.000 A 
ATOM      2  C   UNL     1       1.805   7.161  20.541  0.00  0.00    +0.000 A 
ATOM      3  C   UNL     1       1.628   8.351  19.835  0.00  0.00    +0.000 A 
ATOM      4  C   UNL     1       2.041   8.408  18.504  0.00  0.00    +0.000 A 
ATOM      5  C   UNL     1       2.591   7.296  17.883  0.00  0.00    +0.000 A 
ATOM      6  C   UNL     1       2.768   6.094  18.573  0.00  0.00    +0.000 A 
ENDROOT
BRANCH   1   8
ATOM      7  C   UNL     1       1.126   4.075  20.592  0.00  0.00    +0.000 C 
ATOM      8  O   UNL     1       2.362   4.791  20.534  0.00  0.00    +0.000 OA
ENDBRANCH   1   8
BRANCH   3   9
ATOM      9  C   UNL     1       1.045   9.532  20.482  0.00  0.00    +0.000 C 
ATOM     10  C   UNL     1       1.012  10.717  19.853  0.00  0.00    +0.000 C 
BRANCH  10  11
ATOM     11  C   UNL     1       0.597  11.949  20.557  0.00  0.00    +0.000 C 
ATOM     12  O   UNL     1       1.333  12.543  21.335  0.00  0.00    +0.000 OA
ATOM     13  N   UNL     1      -0.630  12.404  20.142  0.00  0.00    +0.000 N 
ATOM     14  C   UNL     1      -1.278  13.616  20.606  0.00  0.00    +0.000 C 
ATOM     15  C   UNL     1      -2.579  12.809  20.754  0.00  0.00    +0.000 C 
ATOM     16  C   UNL     1      -1.873  11.644  20.040  0.00  0.00    +0.000 C 
BRANCH  15  17
ATOM     17  C   UNL     1      -3.053  12.589  22.209  0.00  0.00    +0.000 C 
ATOM     18  O   UNL     1      -2.379  11.967  23.037  0.00  0.00    +0.000 OA
ATOM     19  N   UNL     1      -4.276  13.168  22.558  0.00  0.00    +0.000 N 
ATOM     20  C   UNL     1      -4.667  13.250  23.961  0.00  0.00    +0.000 C 
ATOM     21  C   UNL     1      -5.927  12.431  24.215  0.00  0.00    +0.000 C 
ATOM     22  C   UNL     1      -7.044  12.816  23.242  0.00  0.00    +0.000 C 
ATOM     23  C   UNL     1      -6.560  12.755  21.792  0.00  0.00    +0.000 C 
ATOM     24  C   UNL     1      -5.299  13.595  21.604  0.00  0.00    +0.000 C 
ENDBRANCH  15  17
ENDBRANCH  10  11
ENDBRANCH   3   9
BRANCH   6  25
ATOM     25  O   UNL     1       3.388   4.992  18.003  0.00  0.00    +0.000 OA
BRANCH  25  26
ATOM     26  C   UNL     1       4.344   5.348  16.987  0.00  0.00    +0.000 C 
BRANCH  26  27
ATOM     27  C   UNL     1       5.684   5.833  17.477  0.00  0.00    +0.000 A 
ATOM     28  C   UNL     1       6.257   7.029  17.044  0.00  0.00    +0.000 A 
ATOM     29  C   UNL     1       7.443   7.488  17.625  0.00  0.00    +0.000 A 
ATOM     30  C   UNL     1       8.059   6.762  18.647  0.00  0.00    +0.000 A 
ATOM     31  C   UNL     1       7.490   5.575  19.095  0.00  0.00    +0.000 A 
ATOM     32  C   UNL     1       6.310   5.117  18.518  0.00  0.00    +0.000 A 
ENDBRANCH  26  27
ENDBRANCH  25  26
ENDBRANCH   6  25
TORSDOF 7
ENDMDL
MODEL 8
REMARK VINA RESULT:      -8.2      1.075      1.509
REMARK  Name = 
REMARK  8 active torsions:
REMARK  status: ('A' for Active; 'I' for Inactive)
REMARK    1  A    between atoms: C_1  and  O_2
REMARK    2  A    between atoms: O_2  and  C_3
REMARK    3  A    between atoms: C_5  and  C_6
REMARK    4  A    between atoms: C_7  and  C_8
REMARK    5  A    between atoms: C_12  and  C_13
REMARK    6  A    between atoms: C_24  and  O_25
REMARK    7  A    between atoms: O_25  and  C_26
REMARK    8  A    between atoms: C_26  and  C_27
REMARK                            x       y       z     vdW  Elec       q    Type
REMARK                         _______ _______ _______ _____ _____    ______ ____
ROOT
ATOM      1  C   UNL     1       1.728   4.974  20.233  0.00  0.00    +0.000 A 
ATOM      2  C   UNL     1       1.484   6.183  20.914  0.00  0.00    +0.000 A 
ATOM      3  C   UNL     1       1.733   7.412  20.302  0.00  0.00    +0.000 A 
ATOM      4  C   UNL     1       2.317   7.423  19.035  0.00  0.00    +0.000 A 
ATOM      5  C   UNL     1       2.619   6.238  18.382  0.00  0.00    +0.000 A 
ATOM      6  C   UNL     1       2.368   4.998  18.977  0.00  0.00    +0.000 A 
ENDROOT
BRANCH   1   8
ATOM      7  C   UNL     1       2.189   3.287  21.828  0.00  0.00    +0.000 C 
ATOM      8  O   UNL     1       1.367   3.757  20.756  0.00  0.00    +0.000 OA
ENDBRANCH   1   8
BRANCH   3   9
ATOM      9  C   UNL     1       1.415   8.672  20.984  0.00  0.00    +0.000 C 
ATOM     10  C   UNL     1       0.229   8.847  21.588  0.00  0.00    +0.000 C 
BRANCH  10  11
ATOM     11  C   UNL     1      -0.175  10.167  22.117  0.00  0.00    +0.000 C 
ATOM     12  O   UNL     1      -0.218  10.412  23.317  0.00  0.00    +0.000 OA
ATOM     13  N   UNL     1      -0.363  11.097  21.124  0.00  0.00    +0.000 N 
ATOM     14  C   UNL     1      -0.707  12.490  21.333  0.00  0.00    +0.000 C 
ATOM     15  C   UNL     1      -1.762  12.348  20.222  0.00  0.00    +0.000 C 
ATOM     16  C   UNL     1      -1.175  10.960  19.918  0.00  0.00    +0.000 C 
BRANCH  15  17
ATOM     17  C   UNL     1      -3.231  12.428  20.698  0.00  0.00    +0.000 C 
ATOM     18  O   UNL     1      -3.535  12.534  21.891  0.00  0.00    +0.000 OA
ATOM     19  N   UNL     1      -4.209  12.416  19.700  0.00  0.00    +0.000 N 
ATOM     20  C   UNL     1      -5.587  12.762  20.029  0.00  0.00    +0.000 C 
ATOM     21  C   UNL     1      -6.510  11.573  19.790  0.00  0.00    +0.000 C 
ATOM     22  C   UNL     1      -6.338  11.012  18.377  0.00  0.00    +0.000 C 
ATOM     23  C   UNL     1      -4.868  10.712  18.076  0.00  0.00    +0.000 C 
ATOM     24  C   UNL     1      -3.999  11.940  18.333  0.00  0.00    +0.000 C 
ENDBRANCH  15  17
ENDBRANCH  10  11
ENDBRANCH   3   9
BRANCH   6  25
ATOM     25  O   UNL     1       2.733   3.799  18.382  0.00  0.00    +0.000 OA
BRANCH  25  26
ATOM     26  C   UNL     1       3.228   3.964  17.041  0.00  0.00    +0.000 C 
BRANCH  26  27
ATOM     27  C   UNL     1       4.718   4.134  16.898  0.00  0.00    +0.000 A 
ATOM     28  C   UNL     1       5.345   4.287  15.661  0.00  0.00    +0.000 A 
ATOM     29  C   UNL     1       6.713   4.564  15.598  0.00  0.00    +0.000 A 
ATOM     30  C   UNL     1       7.464   4.699  16.769  0.00  0.00    +0.000 A 
ATOM     31  C   UNL     1       6.847   4.561  18.008  0.00  0.00    +0.000 A 
ATOM     32  C   UNL     1       5.485   4.285  18.072  0.00  0.00    +0.000 A 
ENDBRANCH  26  27
ENDBRANCH  25  26
ENDBRANCH   6  25
TORSDOF 7
ENDMDL
MODEL 9
REMARK VINA RESULT:      -8.2      1.561      2.000
REMARK  Name = 
REMARK  8 active torsions:
REMARK  status: ('A' for Active; 'I' for Inactive)
REMARK    1  A    between atoms: C_1  and  O_2
REMARK    2  A    between atoms: O_2  and  C_3
REMARK    3  A    between atoms: C_5  and  C_6
REMARK    4  A    between atoms: C_7  and  C_8
REMARK    5  A    between atoms: C_12  and  C_13
REMARK    6  A    between atoms: C_24  and  O_25
REMARK    7  A    between atoms: O_25  and  C_26
REMARK    8  A    between atoms: C_26  and  C_27
REMARK                            x       y       z     vdW  Elec       q    Type
REMARK                         _______ _______ _______ _____ _____    ______ ____
ROOT
ATOM      1  C   UNL     1       2.198   5.860  20.187  0.00  0.00    +0.000 A 
ATOM      2  C   UNL     1       1.610   7.002  20.765  0.00  0.00    +0.000 A 
ATOM      3  C   UNL     1       1.478   8.185  20.036  0.00  0.00    +0.000 A 
ATOM      4  C   UNL     1       2.023   8.246  18.753  0.00  0.00    +0.000 A 
ATOM      5  C   UNL     1       2.659   7.146  18.199  0.00  0.00    +0.000 A 
ATOM      6  C   UNL     1       2.792   5.951  18.911  0.00  0.00    +0.000 A 
ENDROOT
BRANCH   1   8
ATOM      7  C   UNL     1       1.106   3.792  20.557  0.00  0.00    +0.000 C 
ATOM      8  O   UNL     1       2.220   4.647  20.830  0.00  0.00    +0.000 OA
ENDBRANCH   1   8
BRANCH   3   9
ATOM      9  C   UNL     1       0.804   9.354  20.613  0.00  0.00    +0.000 C 
ATOM     10  C   UNL     1       0.864  10.552  20.009  0.00  0.00    +0.000 C 
BRANCH  10  11
ATOM     11  C   UNL     1       0.349  11.770  20.668  0.00  0.00    +0.000 C 
ATOM     12  O   UNL     1       0.827  12.211  21.706  0.00  0.00    +0.000 OA
ATOM     13  N   UNL     1      -0.617  12.402  19.923  0.00  0.00    +0.000 N 
ATOM     14  C   UNL     1      -1.271  13.647  20.278  0.00  0.00    +0.000 C 
ATOM     15  C   UNL     1      -2.612  12.998  19.899  0.00  0.00    +0.000 C 
ATOM     16  C   UNL     1      -1.816  11.811  19.334  0.00  0.00    +0.000 C 
BRANCH  15  17
ATOM     17  C   UNL     1      -3.572  12.733  21.082  0.00  0.00    +0.000 C 
ATOM     18  O   UNL     1      -3.171  12.332  22.180  0.00  0.00    +0.000 OA
ATOM     19  N   UNL     1      -4.923  13.010  20.861  0.00  0.00    +0.000 N 
ATOM     20  C   UNL     1      -5.850  13.055  21.986  0.00  0.00    +0.000 C 
ATOM     21  C   UNL     1      -6.907  11.965  21.854  0.00  0.00    +0.000 C 
ATOM     22  C   UNL     1      -7.595  12.023  20.489  0.00  0.00    +0.000 C 
ATOM     23  C   UNL     1      -6.571  12.018  19.352  0.00  0.00    +0.000 C 
ATOM     24  C   UNL     1      -5.544  13.132  19.542  0.00  0.00    +0.000 C 
ENDBRANCH  15  17
ENDBRANCH  10  11
ENDBRANCH   3   9
BRANCH   6  25
ATOM     25  O   UNL     1       3.493   4.862  18.415  0.00  0.00    +0.000 OA
BRANCH  25  26
ATOM     26  C   UNL     1       4.357   5.202  17.315  0.00  0.00    +0.000 C 
BRANCH  26  27
ATOM     27  C   UNL     1       5.709   5.758  17.679  0.00  0.00    +0.000 A 
ATOM     28  C   UNL     1       6.255   6.881  17.056  0.00  0.00    +0.000 A 
ATOM     29  C   UNL     1       7.457   7.424  17.520  0.00  0.00    +0.000 A 
ATOM     30  C   UNL     1       8.116   6.857  18.614  0.00  0.00    +0.000 A 
ATOM     31  C   UNL     1       7.574   5.746  19.251  0.00  0.00    +0.000 A 
ATOM     32  C   UNL     1       6.377   5.204  18.790  0.00  0.00    +0.000 A 
ENDBRANCH  26  27
ENDBRANCH  25  26
ENDBRANCH   6  25
TORSDOF 7
ENDMDL
