MODEL 1
REMARK VINA RESULT:      -7.8      0.000      0.000
REMARK  Name = 
REMARK  6 active torsions:
REMARK  status: ('A' for Active; 'I' for Inactive)
REMARK    1  A    between atoms: C_1  and  C_2
REMARK    2  A    between atoms: C_7  and  C_8
REMARK    3  A    between atoms: C_11  and  C_12
REMARK    4  A    between atoms: N_13  and  N_14
REMARK    5  A    between atoms: N_20  and  C_21
REMARK    6  A    between atoms: N_26  and  C_27
REMARK                            x       y       z     vdW  Elec       q    Type
REMARK                         _______ _______ _______ _____ _____    ______ ____
ROOT
ATOM      1  C   UNL     1      -1.714  11.944  22.277  0.00  0.00    +0.000 A 
ATOM      2  C   UNL     1      -1.241  10.951  23.142  0.00  0.00    +0.000 A 
ATOM      3  C   UNL     1      -0.330  10.005  22.672  0.00  0.00    +0.000 A 
ATOM      4  C   UNL     1       0.121  10.065  21.349  0.00  0.00    +0.000 A 
ATOM      5  C   UNL     1      -0.369  11.028  20.476  0.00  0.00    +0.000 A 
ATOM      6  C   UNL     1      -1.272  11.964  20.946  0.00  0.00    +0.000 A 
ENDROOT
BRANCH   1  13
ATOM      7  C   UNL     1      -5.300  17.837  25.272  0.00  0.00    +0.000 C 
ATOM      8  C   UNL     1      -4.957  16.540  24.603  0.00  0.00    +0.000 A 
ATOM      9  C   UNL     1      -6.035  15.696  24.079  0.00  0.00    +0.000 A 
ATOM     10  C   UNL     1      -5.812  14.533  23.432  0.00  0.00    +0.000 A 
ATOM     11  N   UNL     1      -4.495  14.135  23.275  0.00  0.00    +0.000 N 
ATOM     12  C   UNL     1      -4.014  13.022  22.623  0.00  0.00    +0.000 A 
ATOM     13  C   UNL     1      -2.638  13.009  22.769  0.00  0.00    +0.000 A 
ATOM     14  N   UNL     1      -2.329  14.181  23.484  0.00  0.00    +0.000 N 
ATOM     15  C   UNL     1      -1.005  14.706  23.797  0.00  0.00    +0.000 C 
ATOM     16  C   UNL     1      -3.459  14.837  23.765  0.00  0.00    +0.000 A 
ATOM     17  C   UNL     1      -3.677  16.130  24.474  0.00  0.00    +0.000 A 
ENDBRANCH   1  13
BRANCH   4  18
ATOM     18  C   UNL     1       1.164   9.117  20.873  0.00  0.00    +0.000 C 
ATOM     19  N   UNL     1       0.967   7.836  20.920  0.00  0.00    +0.000 NA
BRANCH  19  20
ATOM     20  N   UNL     1       2.037   7.047  20.576  0.00  0.00    +0.000 N 
ATOM     21  C   UNL     1       2.461   6.935  19.262  0.00  0.00    +0.000 C 
ATOM     22  N   UNL     1       2.252   7.848  18.373  0.00  0.00    +0.000 NA
ATOM     23  N   UNL     1       3.092   5.748  18.939  0.00  0.00    +0.000 N 
ATOM     24  C   UNL     1       4.330   5.395  19.668  0.00  0.00    +0.000 C 
ATOM     25  C   UNL     1       4.817   3.965  19.345  0.00  0.00    +0.000 C 
ATOM     26  N   UNL     1       4.954   3.649  17.910  0.00  0.00    +0.000 NA
ATOM     27  C   UNL     1       6.100   4.336  17.313  0.00  0.00    +0.000 C 
ATOM     28  C   UNL     1       3.693   4.008  17.228  0.00  0.00    +0.000 C 
ATOM     29  C   UNL     1       3.191   5.442  17.489  0.00  0.00    +0.000 C 
ATOM     30  H   UNL     1       2.230   6.226  21.133  0.00  0.00    +0.000 HD
ATOM     31  H   UNL     1       1.772   8.614  18.865  0.00  0.00    +0.000 HD
ENDBRANCH  19  20
ENDBRANCH   4  18
TORSDOF 3
ENDMDL
MODEL 2
REMARK VINA RESULT:      -7.8      1.661      2.143
REMARK  Name = 
REMARK  6 active torsions:
REMARK  status: ('A' for Active; 'I' for Inactive)
REMARK    1  A    between atoms: C_1  and  C_2
REMARK    2  A    between atoms: C_7  and  C_8
REMARK    3  A    between atoms: C_11  and  C_12
REMARK    4  A    between atoms: N_13  and  N_14
REMARK    5  A    between atoms: N_20  and  C_21
REMARK    6  A    between atoms: N_26  and  C_27
REMARK                            x       y       z     vdW  Elec       q    Type
REMARK                         _______ _______ _______ _____ _____    ______ ____
ROOT
ATOM      1  C   UNL     1      -1.479  11.869  21.954  0.00  0.00    +0.000 A 
ATOM      2  C   UNL     1      -1.089  11.440  20.681  0.00  0.00    +0.000 A 
ATOM      3  C   UNL     1      -0.354  10.261  20.547  0.00  0.00    +0.000 A 
ATOM      4  C   UNL     1      -0.030   9.506  21.680  0.00  0.00    +0.000 A 
ATOM      5  C   UNL     1      -0.387   9.943  22.949  0.00  0.00    +0.000 A 
ATOM      6  C   UNL     1      -1.115  11.112  23.077  0.00  0.00    +0.000 A 
ENDROOT
BRANCH   1  13
ATOM      7  C   UNL     1      -6.380  17.309  23.675  0.00  0.00    +0.000 C 
ATOM      8  C   UNL     1      -5.298  16.481  23.047  0.00  0.00    +0.000 A 
ATOM      9  C   UNL     1      -4.528  17.036  21.930  0.00  0.00    +0.000 A 
ATOM     10  C   UNL     1      -3.515  16.375  21.333  0.00  0.00    +0.000 A 
ATOM     11  N   UNL     1      -3.212  15.111  21.809  0.00  0.00    +0.000 N 
ATOM     12  C   UNL     1      -2.208  14.263  21.398  0.00  0.00    +0.000 A 
ATOM     13  C   UNL     1      -2.322  13.090  22.123  0.00  0.00    +0.000 A 
ATOM     14  N   UNL     1      -3.396  13.303  23.008  0.00  0.00    +0.000 N 
ATOM     15  C   UNL     1      -3.853  12.421  24.076  0.00  0.00    +0.000 C 
ATOM     16  C   UNL     1      -3.901  14.523  22.803  0.00  0.00    +0.000 A 
ATOM     17  C   UNL     1      -5.018  15.236  23.486  0.00  0.00    +0.000 A 
ENDBRANCH   1  13
BRANCH   4  18
ATOM     18  C   UNL     1       0.669   8.202  21.531  0.00  0.00    +0.000 C 
ATOM     19  N   UNL     1       1.702   8.088  20.756  0.00  0.00    +0.000 NA
BRANCH  19  20
ATOM     20  N   UNL     1       2.196   6.817  20.590  0.00  0.00    +0.000 N 
ATOM     21  C   UNL     1       2.211   6.203  19.349  0.00  0.00    +0.000 C 
ATOM     22  N   UNL     1       2.235   6.860  18.236  0.00  0.00    +0.000 NA
ATOM     23  N   UNL     1       2.152   4.822  19.366  0.00  0.00    +0.000 N 
ATOM     24  C   UNL     1       3.231   4.086  20.060  0.00  0.00    +0.000 C 
ATOM     25  C   UNL     1       2.938   2.573  20.167  0.00  0.00    +0.000 C 
ATOM     26  N   UNL     1       2.586   1.902  18.901  0.00  0.00    +0.000 NA
ATOM     27  C   UNL     1       3.747   1.768  18.021  0.00  0.00    +0.000 C 
ATOM     28  C   UNL     1       1.500   2.665  18.251  0.00  0.00    +0.000 C 
ATOM     29  C   UNL     1       1.768   4.175  18.086  0.00  0.00    +0.000 C 
ATOM     30  H   UNL     1       2.124   6.167  21.360  0.00  0.00    +0.000 HD
ATOM     31  H   UNL     1       2.276   7.854  18.499  0.00  0.00    +0.000 HD
ENDBRANCH  19  20
ENDBRANCH   4  18
TORSDOF 3
ENDMDL
MODEL 3
REMARK VINA RESULT:      -7.7      1.500     11.754
REMARK  Name = 
REMARK  6 active torsions:
REMARK  status: ('A' for Active; 'I' for Inactive)
REMARK    1  A    between atoms: C_1  and  C_2
REMARK    2  A    between atoms: C_7  and  C_8
REMARK    3  A    between atoms: C_11  and  C_12
REMARK    4  A    between atoms: N_13  and  N_14
REMARK    5  A    between atoms: N_20  and  C_21
REMARK    6  A    between atoms: N_26  and  C_27
REMARK                            x       y       z     vdW  Elec       q    Type
REMARK                         _______ _______ _______ _____ _____    ______ ____
ROOT
ATOM      1  C   UNL     1       1.030   8.813  20.760  0.00  0.00    +0.000 A 
ATOM      2  C   UNL     1       0.926   8.954  22.148  0.00  0.00    +0.000 A 
ATOM      3  C   UNL     1       0.199  10.021  22.679  0.00  0.00    +0.000 A 
ATOM      4  C   UNL     1      -0.438  10.928  21.825  0.00  0.00    +0.000 A 
ATOM      5  C   UNL     1      -0.311  10.812  20.447  0.00  0.00    +0.000 A 
ATOM      6  C   UNL     1       0.410   9.754  19.924  0.00  0.00    +0.000 A 
ENDROOT
BRANCH   1  13
ATOM      7  C   UNL     1       4.761   3.695  16.703  0.00  0.00    +0.000 C 
ATOM      8  C   UNL     1       3.969   4.408  17.760  0.00  0.00    +0.000 A 
ATOM      9  C   UNL     1       3.574   3.683  18.971  0.00  0.00    +0.000 A 
ATOM     10  C   UNL     1       2.894   4.257  19.984  0.00  0.00    +0.000 A 
ATOM     11  N   UNL     1       2.558   5.593  19.849  0.00  0.00    +0.000 N 
ATOM     12  C   UNL     1       1.909   6.405  20.751  0.00  0.00    +0.000 A 
ATOM     13  C   UNL     1       1.745   7.646  20.163  0.00  0.00    +0.000 A 
ATOM     14  N   UNL     1       2.368   7.546  18.904  0.00  0.00    +0.000 N 
ATOM     15  C   UNL     1       2.584   8.613  17.934  0.00  0.00    +0.000 C 
ATOM     16  C   UNL     1       2.852   6.309  18.750  0.00  0.00    +0.000 A 
ATOM     17  C   UNL     1       3.611   5.701  17.620  0.00  0.00    +0.000 A 
ENDBRANCH   1  13
BRANCH   4  18
ATOM     18  C   UNL     1      -1.292  12.008  22.388  0.00  0.00    +0.000 C 
ATOM     19  N   UNL     1      -2.334  11.724  23.104  0.00  0.00    +0.000 NA
BRANCH  19  20
ATOM     20  N   UNL     1      -3.125  12.786  23.468  0.00  0.00    +0.000 N 
ATOM     21  C   UNL     1      -4.209  13.178  22.701  0.00  0.00    +0.000 C 
ATOM     22  N   UNL     1      -4.845  12.374  21.914  0.00  0.00    +0.000 NA
ATOM     23  N   UNL     1      -4.551  14.514  22.791  0.00  0.00    +0.000 N 
ATOM     24  C   UNL     1      -4.933  15.049  24.116  0.00  0.00    +0.000 C 
ATOM     25  C   UNL     1      -5.101  16.585  24.105  0.00  0.00    +0.000 C 
ATOM     26  N   UNL     1      -5.988  17.121  23.056  0.00  0.00    +0.000 NA
ATOM     27  C   UNL     1      -7.394  16.819  23.332  0.00  0.00    +0.000 C 
ATOM     28  C   UNL     1      -5.563  16.568  21.753  0.00  0.00    +0.000 C 
ATOM     29  C   UNL     1      -5.423  15.034  21.706  0.00  0.00    +0.000 C 
ATOM     30  H   UNL     1      -2.705  13.544  23.989  0.00  0.00    +0.000 HD
ATOM     31  H   UNL     1      -4.398  11.455  22.033  0.00  0.00    +0.000 HD
ENDBRANCH  19  20
ENDBRANCH   4  18
TORSDOF 3
ENDMDL
MODEL 4
REMARK VINA RESULT:      -7.7      1.482     11.842
REMARK  Name = 
REMARK  6 active torsions:
REMARK  status: ('A' for Active; 'I' for Inactive)
REMARK    1  A    between atoms: C_1  and  C_2
REMARK    2  A    between atoms: C_7  and  C_8
REMARK    3  A    between atoms: C_11  and  C_12
REMARK    4  A    between atoms: N_13  and  N_14
REMARK    5  A    between atoms: N_20  and  C_21
REMARK    6  A    between atoms: N_26  and  C_27
REMARK                            x       y       z     vdW  Elec       q    Type
REMARK                         _______ _______ _______ _____ _____    ______ ____
ROOT
ATOM      1  C   UNL     1       1.082   8.473  20.616  0.00  0.00    +0.000 A 
ATOM      2  C   UNL     1       0.291   9.331  19.845  0.00  0.00    +0.000 A 
ATOM      3  C   UNL     1      -0.412  10.363  20.467  0.00  0.00    +0.000 A 
ATOM      4  C   UNL     1      -0.307  10.548  21.849  0.00  0.00    +0.000 A 
ATOM      5  C   UNL     1       0.450   9.680  22.625  0.00  0.00    +0.000 A 
ATOM      6  C   UNL     1       1.146   8.658  22.005  0.00  0.00    +0.000 A 
ENDROOT
BRANCH   1  13
ATOM      7  C   UNL     1       5.273   3.894  16.369  0.00  0.00    +0.000 C 
ATOM      8  C   UNL     1       4.412   4.484  17.446  0.00  0.00    +0.000 A 
ATOM      9  C   UNL     1       4.059   3.666  18.610  0.00  0.00    +0.000 A 
ATOM     10  C   UNL     1       3.320   4.129  19.640  0.00  0.00    +0.000 A 
ATOM     11  N   UNL     1       2.879   5.439  19.567  0.00  0.00    +0.000 N 
ATOM     12  C   UNL     1       2.153   6.146  20.499  0.00  0.00    +0.000 A 
ATOM     13  C   UNL     1       1.898   7.400  19.972  0.00  0.00    +0.000 A 
ATOM     14  N   UNL     1       2.545   7.417  18.723  0.00  0.00    +0.000 N 
ATOM     15  C   UNL     1       2.688   8.549  17.813  0.00  0.00    +0.000 C 
ATOM     16  C   UNL     1       3.130   6.234  18.513  0.00  0.00    +0.000 A 
ATOM     17  C   UNL     1       3.952   5.750  17.367  0.00  0.00    +0.000 A 
ENDBRANCH   1  13
BRANCH   4  18
ATOM     18  C   UNL     1      -0.979  11.706  22.499  0.00  0.00    +0.000 C 
ATOM     19  N   UNL     1      -2.099  11.551  23.134  0.00  0.00    +0.000 NA
BRANCH  19  20
ATOM     20  N   UNL     1      -2.699  12.700  23.588  0.00  0.00    +0.000 N 
ATOM     21  C   UNL     1      -3.781  13.260  22.928  0.00  0.00    +0.000 C 
ATOM     22  N   UNL     1      -4.589  12.575  22.188  0.00  0.00    +0.000 NA
ATOM     23  N   UNL     1      -3.925  14.627  23.074  0.00  0.00    +0.000 N 
ATOM     24  C   UNL     1      -4.112  15.169  24.438  0.00  0.00    +0.000 C 
ATOM     25  C   UNL     1      -4.065  16.712  24.471  0.00  0.00    +0.000 C 
ATOM     26  N   UNL     1      -4.958  17.397  23.516  0.00  0.00    +0.000 NA
ATOM     27  C   UNL     1      -6.362  17.281  23.912  0.00  0.00    +0.000 C 
ATOM     28  C   UNL     1      -4.728  16.831  22.170  0.00  0.00    +0.000 C 
ATOM     29  C   UNL     1      -4.807  15.294  22.082  0.00  0.00    +0.000 C 
ATOM     30  H   UNL     1      -2.135  13.377  24.082  0.00  0.00    +0.000 HD
ATOM     31  H   UNL     1      -4.265  11.600  22.249  0.00  0.00    +0.000 HD
ENDBRANCH  19  20
ENDBRANCH   4  18
TORSDOF 3
ENDMDL
MODEL 5
REMARK VINA RESULT:      -7.7      1.619     11.842
REMARK  Name = 
REMARK  6 active torsions:
REMARK  status: ('A' for Active; 'I' for Inactive)
REMARK    1  A    between atoms: C_1  and  C_2
REMARK    2  A    between atoms: C_7  and  C_8
REMARK    3  A    between atoms: C_11  and  C_12
REMARK    4  A    between atoms: N_13  and  N_14
REMARK    5  A    between atoms: N_20  and  C_21
REMARK    6  A    between atoms: N_26  and  C_27
REMARK                            x       y       z     vdW  Elec       q    Type
REMARK                         _______ _______ _______ _____ _____    ______ ____
ROOT
ATOM      1  C   UNL     1       1.763   8.212  19.840  0.00  0.00    +0.000 A 
ATOM      2  C   UNL     1       1.504   8.334  21.209  0.00  0.00    +0.000 A 
ATOM      3  C   UNL     1       0.942   9.513  21.701  0.00  0.00    +0.000 A 
ATOM      4  C   UNL     1       0.622  10.555  20.824  0.00  0.00    +0.000 A 
ATOM      5  C   UNL     1       0.906  10.452  19.468  0.00  0.00    +0.000 A 
ATOM      6  C   UNL     1       1.463   9.282  18.984  0.00  0.00    +0.000 A 
ENDROOT
BRANCH   1  13
ATOM      7  C   UNL     1       3.927   1.239  18.032  0.00  0.00    +0.000 C 
ATOM      8  C   UNL     1       3.736   2.726  18.091  0.00  0.00    +0.000 A 
ATOM      9  C   UNL     1       4.405   3.574  17.100  0.00  0.00    +0.000 A 
ATOM     10  C   UNL     1       4.259   4.915  17.059  0.00  0.00    +0.000 A 
ATOM     11  N   UNL     1       3.439   5.495  18.012  0.00  0.00    +0.000 N 
ATOM     12  C   UNL     1       3.101   6.822  18.152  0.00  0.00    +0.000 A 
ATOM     13  C   UNL     1       2.302   6.939  19.275  0.00  0.00    +0.000 A 
ATOM     14  N   UNL     1       2.142   5.625  19.756  0.00  0.00    +0.000 N 
ATOM     15  C   UNL     1       1.289   5.180  20.852  0.00  0.00    +0.000 C 
ATOM     16  C   UNL     1       2.827   4.784  18.975  0.00  0.00    +0.000 A 
ATOM     17  C   UNL     1       2.964   3.301  19.036  0.00  0.00    +0.000 A 
ENDBRANCH   1  13
BRANCH   4  18
ATOM     18  C   UNL     1      -0.065  11.772  21.332  0.00  0.00    +0.000 C 
ATOM     19  N   UNL     1      -0.325  11.909  22.595  0.00  0.00    +0.000 NA
BRANCH  19  20
ATOM     20  N   UNL     1      -1.072  13.008  22.942  0.00  0.00    +0.000 N 
ATOM     21  C   UNL     1      -2.444  12.923  23.120  0.00  0.00    +0.000 C 
ATOM     22  N   UNL     1      -3.047  11.828  23.445  0.00  0.00    +0.000 NA
ATOM     23  N   UNL     1      -3.148  14.088  22.880  0.00  0.00    +0.000 N 
ATOM     24  C   UNL     1      -2.829  15.278  23.698  0.00  0.00    +0.000 C 
ATOM     25  C   UNL     1      -3.550  16.549  23.196  0.00  0.00    +0.000 C 
ATOM     26  N   UNL     1      -5.008  16.423  23.014  0.00  0.00    +0.000 NA
ATOM     27  C   UNL     1      -5.708  16.351  24.297  0.00  0.00    +0.000 C 
ATOM     28  C   UNL     1      -5.277  15.230  22.184  0.00  0.00    +0.000 C 
ATOM     29  C   UNL     1      -4.611  13.928  22.672  0.00  0.00    +0.000 C 
ATOM     30  H   UNL     1      -0.761  13.919  22.637  0.00  0.00    +0.000 HD
ATOM     31  H   UNL     1      -2.306  11.124  23.563  0.00  0.00    +0.000 HD
ENDBRANCH  19  20
ENDBRANCH   4  18
TORSDOF 3
ENDMDL
MODEL 6
REMARK VINA RESULT:      -7.7      1.410      1.960
REMARK  Name = 
REMARK  6 active torsions:
REMARK  status: ('A' for Active; 'I' for Inactive)
REMARK    1  A    between atoms: C_1  and  C_2
REMARK    2  A    between atoms: C_7  and  C_8
REMARK    3  A    between atoms: C_11  and  C_12
REMARK    4  A    between atoms: N_13  and  N_14
REMARK    5  A    between atoms: N_20  and  C_21
REMARK    6  A    between atoms: N_26  and  C_27
REMARK                            x       y       z     vdW  Elec       q    Type
REMARK                         _______ _______ _______ _____ _____    ______ ____
ROOT
ATOM      1  C   UNL     1      -1.483  11.899  20.675  0.00  0.00    +0.000 A 
ATOM      2  C   UNL     1      -0.644  10.985  21.323  0.00  0.00    +0.000 A 
ATOM      3  C   UNL     1       0.212  10.182  20.568  0.00  0.00    +0.000 A 
ATOM      4  C   UNL     1       0.245  10.309  19.176  0.00  0.00    +0.000 A 
ATOM      5  C   UNL     1      -0.608  11.191  18.524  0.00  0.00    +0.000 A 
ATOM      6  C   UNL     1      -1.456  11.985  19.275  0.00  0.00    +0.000 A 
ENDROOT
BRANCH   1  13
ATOM      7  C   UNL     1      -4.799  17.050  25.038  0.00  0.00    +0.000 C 
ATOM      8  C   UNL     1      -4.509  15.885  24.138  0.00  0.00    +0.000 A 
ATOM      9  C   UNL     1      -5.618  15.049  23.670  0.00  0.00    +0.000 A 
ATOM     10  C   UNL     1      -5.450  14.006  22.831  0.00  0.00    +0.000 A 
ATOM     11  N   UNL     1      -4.161  13.728  22.411  0.00  0.00    +0.000 N 
ATOM     12  C   UNL     1      -3.742  12.753  21.534  0.00  0.00    +0.000 A 
ATOM     13  C   UNL     1      -2.362  12.817  21.458  0.00  0.00    +0.000 A 
ATOM     14  N   UNL     1      -1.995  13.897  22.283  0.00  0.00    +0.000 N 
ATOM     15  C   UNL     1      -0.663  14.466  22.458  0.00  0.00    +0.000 C 
ATOM     16  C   UNL     1      -3.093  14.426  22.831  0.00  0.00    +0.000 A 
ATOM     17  C   UNL     1      -3.251  15.589  23.751  0.00  0.00    +0.000 A 
ENDBRANCH   1  13
BRANCH   4  18
ATOM     18  C   UNL     1       1.225   9.524  18.378  0.00  0.00    +0.000 C 
ATOM     19  N   UNL     1       1.878   8.540  18.913  0.00  0.00    +0.000 NA
BRANCH  19  20
ATOM     20  N   UNL     1       2.848   7.963  18.131  0.00  0.00    +0.000 N 
ATOM     21  C   UNL     1       3.051   6.593  18.123  0.00  0.00    +0.000 C 
ATOM     22  N   UNL     1       2.127   5.741  18.422  0.00  0.00    +0.000 NA
ATOM     23  N   UNL     1       4.335   6.182  17.816  0.00  0.00    +0.000 N 
ATOM     24  C   UNL     1       4.891   6.559  16.498  0.00  0.00    +0.000 C 
ATOM     25  C   UNL     1       6.389   6.203  16.368  0.00  0.00    +0.000 C 
ATOM     26  N   UNL     1       6.743   4.810  16.699  0.00  0.00    +0.000 NA
ATOM     27  C   UNL     1       6.278   3.876  15.673  0.00  0.00    +0.000 C 
ATOM     28  C   UNL     1       6.176   4.483  18.024  0.00  0.00    +0.000 C 
ATOM     29  C   UNL     1       4.673   4.783  18.186  0.00  0.00    +0.000 C 
ATOM     30  H   UNL     1       3.683   8.495  17.926  0.00  0.00    +0.000 HD
ATOM     31  H   UNL     1       1.282   6.298  18.608  0.00  0.00    +0.000 HD
ENDBRANCH  19  20
ENDBRANCH   4  18
TORSDOF 3
ENDMDL
MODEL 7
REMARK VINA RESULT:      -7.6      1.845      2.318
REMARK  Name = 
REMARK  6 active torsions:
REMARK  status: ('A' for Active; 'I' for Inactive)
REMARK    1  A    between atoms: C_1  and  C_2
REMARK    2  A    between atoms: C_7  and  C_8
REMARK    3  A    between atoms: C_11  and  C_12
REMARK    4  A    between atoms: N_13  and  N_14
REMARK    5  A    between atoms: N_20  and  C_21
REMARK    6  A    between atoms: N_26  and  C_27
REMARK                            x       y       z     vdW  Elec       q    Type
REMARK                         _______ _______ _______ _____ _____    ______ ____
ROOT
ATOM      1  C   UNL     1      -1.122  11.993  22.179  0.00  0.00    +0.000 A 
ATOM      2  C   UNL     1      -1.140  11.056  23.217  0.00  0.00    +0.000 A 
ATOM      3  C   UNL     1      -0.559   9.802  23.023  0.00  0.00    +0.000 A 
ATOM      4  C   UNL     1       0.055   9.496  21.804  0.00  0.00    +0.000 A 
ATOM      5  C   UNL     1       0.047  10.410  20.758  0.00  0.00    +0.000 A 
ATOM      6  C   UNL     1      -0.529  11.652  20.954  0.00  0.00    +0.000 A 
ENDROOT
BRANCH   1  13
ATOM      7  C   UNL     1      -4.785  18.561  22.284  0.00  0.00    +0.000 C 
ATOM      8  C   UNL     1      -3.799  17.450  22.493  0.00  0.00    +0.000 A 
ATOM      9  C   UNL     1      -2.640  17.675  23.362  0.00  0.00    +0.000 A 
ATOM     10  C   UNL     1      -1.725  16.721  23.632  0.00  0.00    +0.000 A 
ATOM     11  N   UNL     1      -1.908  15.480  23.046  0.00  0.00    +0.000 N 
ATOM     12  C   UNL     1      -1.145  14.345  23.198  0.00  0.00    +0.000 A 
ATOM     13  C   UNL     1      -1.676  13.365  22.379  0.00  0.00    +0.000 A 
ATOM     14  N   UNL     1      -2.808  13.953  21.783  0.00  0.00    +0.000 N 
ATOM     15  C   UNL     1      -3.795  13.306  20.926  0.00  0.00    +0.000 C 
ATOM     16  C   UNL     1      -2.925  15.214  22.208  0.00  0.00    +0.000 A 
ATOM     17  C   UNL     1      -3.954  16.248  21.900  0.00  0.00    +0.000 A 
ENDBRANCH   1  13
BRANCH   4  18
ATOM     18  C   UNL     1       0.758   8.197  21.628  0.00  0.00    +0.000 C 
ATOM     19  N   UNL     1       1.695   8.065  20.741  0.00  0.00    +0.000 NA
BRANCH  19  20
ATOM     20  N   UNL     1       2.192   6.796  20.572  0.00  0.00    +0.000 N 
ATOM     21  C   UNL     1       2.212   6.187  19.328  0.00  0.00    +0.000 C 
ATOM     22  N   UNL     1       2.238   6.849  18.218  0.00  0.00    +0.000 NA
ATOM     23  N   UNL     1       2.155   4.806  19.339  0.00  0.00    +0.000 N 
ATOM     24  C   UNL     1       3.233   4.069  20.034  0.00  0.00    +0.000 C 
ATOM     25  C   UNL     1       2.942   2.555  20.133  0.00  0.00    +0.000 C 
ATOM     26  N   UNL     1       2.595   1.889  18.863  0.00  0.00    +0.000 NA
ATOM     27  C   UNL     1       3.760   1.760  17.986  0.00  0.00    +0.000 C 
ATOM     28  C   UNL     1       1.511   2.653  18.212  0.00  0.00    +0.000 C 
ATOM     29  C   UNL     1       1.776   4.164  18.054  0.00  0.00    +0.000 C 
ATOM     30  H   UNL     1       2.117   6.142  21.339  0.00  0.00    +0.000 HD
ATOM     31  H   UNL     1       2.277   7.842  18.486  0.00  0.00    +0.000 HD
ENDBRANCH  19  20
ENDBRANCH   4  18
TORSDOF 3
ENDMDL
MODEL 8
REMARK VINA RESULT:      -7.5      2.214      3.043
REMARK  Name = 
REMARK  6 active torsions:
REMARK  status: ('A' for Active; 'I' for Inactive)
REMARK    1  A    between atoms: C_1  and  C_2
REMARK    2  A    between atoms: C_7  and  C_8
REMARK    3  A    between atoms: C_11  and  C_12
REMARK    4  A    between atoms: N_13  and  N_14
REMARK    5  A    between atoms: N_20  and  C_21
REMARK    6  A    between atoms: N_26  and  C_27
REMARK                            x       y       z     vdW  Elec       q    Type
REMARK                         _______ _______ _______ _____ _____    ______ ____
ROOT
ATOM      1  C   UNL     1      -2.163  11.559  19.545  0.00  0.00    +0.000 A 
ATOM      2  C   UNL     1      -2.321  10.804  18.378  0.00  0.00    +0.000 A 
ATOM      3  C   UNL     1      -1.210  10.182  17.805  0.00  0.00    +0.000 A 
ATOM      4  C   UNL     1       0.046  10.299  18.409  0.00  0.00    +0.000 A 
ATOM      5  C   UNL     1       0.216  11.074  19.548  0.00  0.00    +0.000 A 
ATOM      6  C   UNL     1      -0.887  11.689  20.114  0.00  0.00    +0.000 A 
ENDROOT
BRANCH   1  13
ATOM      7  C   UNL     1      -7.452  14.465  24.033  0.00  0.00    +0.000 C 
ATOM      8  C   UNL     1      -6.680  13.934  22.862  0.00  0.00    +0.000 A 
ATOM      9  C   UNL     1      -7.295  13.948  21.532  0.00  0.00    +0.000 A 
ATOM     10  C   UNL     1      -6.657  13.524  20.421  0.00  0.00    +0.000 A 
ATOM     11  N   UNL     1      -5.365  13.050  20.570  0.00  0.00    +0.000 N 
ATOM     12  C   UNL     1      -4.503  12.605  19.594  0.00  0.00    +0.000 A 
ATOM     13  C   UNL     1      -3.342  12.181  20.217  0.00  0.00    +0.000 A 
ATOM     14  N   UNL     1      -3.538  12.444  21.586  0.00  0.00    +0.000 N 
ATOM     15  C   UNL     1      -2.568  12.294  22.665  0.00  0.00    +0.000 C 
ATOM     16  C   UNL     1      -4.753  12.971  21.764  0.00  0.00    +0.000 A 
ATOM     17  C   UNL     1      -5.431  13.442  23.006  0.00  0.00    +0.000 A 
ENDBRANCH   1  13
BRANCH   4  18
ATOM     18  C   UNL     1       1.211   9.559  17.854  0.00  0.00    +0.000 C 
ATOM     19  N   UNL     1       1.852   8.693  18.577  0.00  0.00    +0.000 NA
BRANCH  19  20
ATOM     20  N   UNL     1       2.986   8.160  18.015  0.00  0.00    +0.000 N 
ATOM     21  C   UNL     1       3.212   6.793  17.999  0.00  0.00    +0.000 C 
ATOM     22  N   UNL     1       2.260   5.920  18.043  0.00  0.00    +0.000 NA
ATOM     23  N   UNL     1       4.539   6.408  17.978  0.00  0.00    +0.000 N 
ATOM     24  C   UNL     1       5.376   6.847  16.840  0.00  0.00    +0.000 C 
ATOM     25  C   UNL     1       6.870   6.511  17.043  0.00  0.00    +0.000 C 
ATOM     26  N   UNL     1       7.165   5.108  17.390  0.00  0.00    +0.000 NA
ATOM     27  C   UNL     1       6.965   4.216  16.248  0.00  0.00    +0.000 C 
ATOM     28  C   UNL     1       6.315   4.719  18.535  0.00  0.00    +0.000 C 
ATOM     29  C   UNL     1       4.810   4.998  18.360  0.00  0.00    +0.000 C 
ATOM     30  H   UNL     1       3.836   8.707  18.030  0.00  0.00    +0.000 HD
ATOM     31  H   UNL     1       1.384   6.461  18.052  0.00  0.00    +0.000 HD
ENDBRANCH  19  20
ENDBRANCH   4  18
TORSDOF 3
ENDMDL
MODEL 9
REMARK VINA RESULT:      -7.5      1.649     11.944
REMARK  Name = 
REMARK  6 active torsions:
REMARK  status: ('A' for Active; 'I' for Inactive)
REMARK    1  A    between atoms: C_1  and  C_2
REMARK    2  A    between atoms: C_7  and  C_8
REMARK    3  A    between atoms: C_11  and  C_12
REMARK    4  A    between atoms: N_13  and  N_14
REMARK    5  A    between atoms: N_20  and  C_21
REMARK    6  A    between atoms: N_26  and  C_27
REMARK                            x       y       z     vdW  Elec       q    Type
REMARK                         _______ _______ _______ _____ _____    ______ ____
ROOT
ATOM      1  C   UNL     1       1.577   8.146  19.794  0.00  0.00    +0.000 A 
ATOM      2  C   UNL     1       1.318   9.264  18.995  0.00  0.00    +0.000 A 
ATOM      3  C   UNL     1       0.773  10.412  19.572  0.00  0.00    +0.000 A 
ATOM      4  C   UNL     1       0.509  10.447  20.945  0.00  0.00    +0.000 A 
ATOM      5  C   UNL     1       0.733   9.329  21.738  0.00  0.00    +0.000 A 
ATOM      6  C   UNL     1       1.274   8.193  21.163  0.00  0.00    +0.000 A 
ENDROOT
BRANCH   1  13
ATOM      7  C   UNL     1       4.228   1.378  17.863  0.00  0.00    +0.000 C 
ATOM      8  C   UNL     1       3.955   2.849  17.969  0.00  0.00    +0.000 A 
ATOM      9  C   UNL     1       4.645   3.773  17.065  0.00  0.00    +0.000 A 
ATOM     10  C   UNL     1       4.432   5.105  17.068  0.00  0.00    +0.000 A 
ATOM     11  N   UNL     1       3.518   5.600  17.982  0.00  0.00    +0.000 N 
ATOM     12  C   UNL     1       3.102   6.901  18.152  0.00  0.00    +0.000 A 
ATOM     13  C   UNL     1       2.221   6.928  19.219  0.00  0.00    +0.000 A 
ATOM     14  N   UNL     1       2.098   5.588  19.632  0.00  0.00    +0.000 N 
ATOM     15  C   UNL     1       1.195   5.052  20.645  0.00  0.00    +0.000 C 
ATOM     16  C   UNL     1       2.878   4.818  18.869  0.00  0.00    +0.000 A 
ATOM     17  C   UNL     1       3.089   3.342  18.879  0.00  0.00    +0.000 A 
ENDBRANCH   1  13
BRANCH   4  18
ATOM     18  C   UNL     1       0.018  11.700  21.578  0.00  0.00    +0.000 C 
ATOM     19  N   UNL     1      -0.524  11.681  22.756  0.00  0.00    +0.000 NA
BRANCH  19  20
ATOM     20  N   UNL     1      -1.057  12.867  23.195  0.00  0.00    +0.000 N 
ATOM     21  C   UNL     1      -2.425  13.038  23.336  0.00  0.00    +0.000 C 
ATOM     22  N   UNL     1      -3.241  12.058  23.540  0.00  0.00    +0.000 NA
ATOM     23  N   UNL     1      -2.881  14.336  23.199  0.00  0.00    +0.000 N 
ATOM     24  C   UNL     1      -2.368  15.359  24.137  0.00  0.00    +0.000 C 
ATOM     25  C   UNL     1      -2.810  16.787  23.749  0.00  0.00    +0.000 C 
ATOM     26  N   UNL     1      -4.256  16.968  23.526  0.00  0.00    +0.000 NA
ATOM     27  C   UNL     1      -5.006  16.916  24.782  0.00  0.00    +0.000 C 
ATOM     28  C   UNL     1      -4.719  15.934  22.578  0.00  0.00    +0.000 C 
ATOM     29  C   UNL     1      -4.337  14.487  22.948  0.00  0.00    +0.000 C 
ATOM     30  H   UNL     1      -0.564  13.725  22.988  0.00  0.00    +0.000 HD
ATOM     31  H   UNL     1      -2.655  11.214  23.602  0.00  0.00    +0.000 HD
ENDBRANCH  19  20
ENDBRANCH   4  18
TORSDOF 3
ENDMDL
