MODEL 1
REMARK VINA RESULT:      -8.5      0.000      0.000
REMARK  Name = 
REMARK  12 active torsions:
REMARK  status: ('A' for Active; 'I' for Inactive)
REMARK    1  A    between atoms: C_4  and  C_5
REMARK    2  A    between atoms: C_10  and  C_11
REMARK    3  A    between atoms: C_15  and  C_16
REMARK    4  A    between atoms: C_16  and  C_17
REMARK    5  A    between atoms: C_16  and  C_18
REMARK    6  A    between atoms: C_18  and  C_19
REMARK    7  A    between atoms: C_25  and  C_26
REMARK    8  A    between atoms: C_26  and  C_27
REMARK    9  A    between atoms: C_27  and  C_28
REMARK   10  A    between atoms: C_30  and  O_31
REMARK   11  A    between atoms: C_32  and  C_33
REMARK   12  A    between atoms: C_34  and  O_35
REMARK                            x       y       z     vdW  Elec       q    Type
REMARK                         _______ _______ _______ _____ _____    ______ ____
ROOT
ATOM      1  C   UNL     1       1.251   7.954  20.328  0.00  0.00    +0.000 C 
ATOM      2  C   UNL     1       0.320   8.747  20.865  0.00  0.00    +0.000 C 
ATOM      3  C   UNL     1      -0.284   8.580  22.258  0.00  0.00    +0.000 C 
ATOM      4  C   UNL     1      -0.354   9.889  23.059  0.00  0.00    +0.000 C 
ATOM      5  C   UNL     1      -0.964  11.048  22.263  0.00  0.00    +0.000 C 
ATOM      6  C   UNL     1      -0.314  11.209  20.874  0.00  0.00    +0.000 C 
ATOM      7  C   UNL     1       1.138  11.728  21.098  0.00  0.00    +0.000 C 
ATOM      8  C   UNL     1      -0.328   9.871  20.107  0.00  0.00    +0.000 C 
ATOM      9  C   UNL     1       0.101  10.261  18.693  0.00  0.00    +0.000 C 
ATOM     10  C   UNL     1      -0.575  11.622  18.468  0.00  0.00    +0.000 C 
ATOM     11  C   UNL     1      -1.046  12.147  19.858  0.00  0.00    +0.000 C 
ENDROOT
BRANCH   1  15
ATOM     12  C   UNL     1       2.923   6.406  18.101  0.00  0.00    +0.000 C 
ATOM     13  C   UNL     1       2.282   5.489  18.849  0.00  0.00    +0.000 C 
ATOM     14  C   UNL     1       2.145   5.636  20.306  0.00  0.00    +0.000 C 
ATOM     15  C   UNL     1       1.740   6.746  20.940  0.00  0.00    +0.000 C 
ATOM     16  C   UNL     1       2.459   4.402  21.135  0.00  0.00    +0.000 C 
ATOM     17  C   UNL     1       1.819   3.131  20.560  0.00  0.00    +0.000 C 
ATOM     18  C   UNL     1       2.109   2.958  19.058  0.00  0.00    +0.000 C 
ATOM     19  C   UNL     1       3.590   2.618  18.831  0.00  0.00    +0.000 C 
ATOM     20  C   UNL     1       1.658   4.219  18.288  0.00  0.00    +0.000 C 
BRANCH  17  21
ATOM     21  O   UNL     1       0.406   3.137  20.792  0.00  0.00    +0.000 OA
ATOM     22  H   UNL     1      -0.021   2.554  20.137  0.00  0.00    +0.000 HD
ENDBRANCH  17  21
BRANCH  20  23
ATOM     23  O   UNL     1       1.921   4.059  16.895  0.00  0.00    +0.000 OA
ATOM     24  H   UNL     1       2.777   3.610  16.808  0.00  0.00    +0.000 HD
ENDBRANCH  20  23
ENDBRANCH   1  15
BRANCH  11  25
ATOM     25  C   UNL     1      -2.608  12.270  20.008  0.00  0.00    +0.000 C 
ATOM     26  C   UNL     1      -3.425  11.709  18.833  0.00  0.00    +0.000 C 
BRANCH  25  27
ATOM     27  C   UNL     1      -3.031  13.738  20.288  0.00  0.00    +0.000 C 
BRANCH  27  28
ATOM     28  C   UNL     1      -3.945  13.918  21.515  0.00  0.00    +0.000 C 
ATOM     29  O   UNL     1      -5.135  13.135  21.366  0.00  0.00    +0.000 OA
ATOM     30  C   UNL     1      -5.559  12.706  22.583  0.00  0.00    +0.000 C 
ATOM     31  O   UNL     1      -6.641  12.205  22.818  0.00  0.00    +0.000 OA
ATOM     32  C   UNL     1      -4.442  12.886  23.539  0.00  0.00    +0.000 C 
ATOM     33  C   UNL     1      -4.523  12.389  24.779  0.00  0.00    +0.000 C 
ATOM     34  C   UNL     1      -3.273  13.475  22.820  0.00  0.00    +0.000 C 
BRANCH  34  35
ATOM     35  C   UNL     1      -2.490  14.653  23.442  0.00  0.00    +0.000 C 
BRANCH  35  36
ATOM     36  C   UNL     1      -0.994  14.406  23.638  0.00  0.00    +0.000 C 
ATOM     37  C   UNL     1      -0.156  14.968  22.497  0.00  0.00    +0.000 C 
ENDBRANCH  35  36
ENDBRANCH  34  35
ENDBRANCH  27  28
ENDBRANCH  25  27
ENDBRANCH  11  25
TORSDOF 8
ENDMDL
MODEL 2
REMARK VINA RESULT:      -8.0      1.366      2.397
REMARK  Name = 
REMARK  12 active torsions:
REMARK  status: ('A' for Active; 'I' for Inactive)
REMARK    1  A    between atoms: C_4  and  C_5
REMARK    2  A    between atoms: C_10  and  C_11
REMARK    3  A    between atoms: C_15  and  C_16
REMARK    4  A    between atoms: C_16  and  C_17
REMARK    5  A    between atoms: C_16  and  C_18
REMARK    6  A    between atoms: C_18  and  C_19
REMARK    7  A    between atoms: C_25  and  C_26
REMARK    8  A    between atoms: C_26  and  C_27
REMARK    9  A    between atoms: C_27  and  C_28
REMARK   10  A    between atoms: C_30  and  O_31
REMARK   11  A    between atoms: C_32  and  C_33
REMARK   12  A    between atoms: C_34  and  O_35
REMARK                            x       y       z     vdW  Elec       q    Type
REMARK                         _______ _______ _______ _____ _____    ______ ____
ROOT
ATOM      1  C   UNL     1       1.236   7.960  20.311  0.00  0.00    +0.000 C 
ATOM      2  C   UNL     1       0.307   8.743  20.863  0.00  0.00    +0.000 C 
ATOM      3  C   UNL     1      -0.243   8.596  22.280  0.00  0.00    +0.000 C 
ATOM      4  C   UNL     1      -0.314   9.921  23.054  0.00  0.00    +0.000 C 
ATOM      5  C   UNL     1      -0.978  11.048  22.255  0.00  0.00    +0.000 C 
ATOM      6  C   UNL     1      -0.382  11.191  20.840  0.00  0.00    +0.000 C 
ATOM      7  C   UNL     1       1.066  11.747  21.000  0.00  0.00    +0.000 C 
ATOM      8  C   UNL     1      -0.392   9.835  20.103  0.00  0.00    +0.000 C 
ATOM      9  C   UNL     1      -0.023  10.202  18.667  0.00  0.00    +0.000 C 
ATOM     10  C   UNL     1      -0.737  11.543  18.436  0.00  0.00    +0.000 C 
ATOM     11  C   UNL     1      -1.170  12.090  19.830  0.00  0.00    +0.000 C 
ENDROOT
BRANCH   1  15
ATOM     12  C   UNL     1       2.856   6.393  18.057  0.00  0.00    +0.000 C 
ATOM     13  C   UNL     1       2.264   5.481  18.851  0.00  0.00    +0.000 C 
ATOM     14  C   UNL     1       2.178   5.660  20.308  0.00  0.00    +0.000 C 
ATOM     15  C   UNL     1       1.774   6.777  20.931  0.00  0.00    +0.000 C 
ATOM     16  C   UNL     1       2.550   4.453  21.152  0.00  0.00    +0.000 C 
ATOM     17  C   UNL     1       1.916   3.156  20.631  0.00  0.00    +0.000 C 
ATOM     18  C   UNL     1       2.152   2.953  19.124  0.00  0.00    +0.000 C 
ATOM     19  C   UNL     1       3.631   2.638  18.849  0.00  0.00    +0.000 C 
ATOM     20  C   UNL     1       1.646   4.185  18.343  0.00  0.00    +0.000 C 
BRANCH  17  21
ATOM     21  O   UNL     1       0.513   3.138  20.917  0.00  0.00    +0.000 OA
ATOM     22  H   UNL     1       0.065   3.773  20.329  0.00  0.00    +0.000 HD
ENDBRANCH  17  21
BRANCH  20  23
ATOM     23  O   UNL     1       1.859   3.997  16.945  0.00  0.00    +0.000 OA
ATOM     24  H   UNL     1       2.493   3.269  16.840  0.00  0.00    +0.000 HD
ENDBRANCH  20  23
ENDBRANCH   1  15
BRANCH  11  25
ATOM     25  C   UNL     1      -2.728  12.182  20.034  0.00  0.00    +0.000 C 
ATOM     26  C   UNL     1      -3.571  11.870  18.786  0.00  0.00    +0.000 C 
BRANCH  25  27
ATOM     27  C   UNL     1      -3.137  13.564  20.612  0.00  0.00    +0.000 C 
BRANCH  27  28
ATOM     28  C   UNL     1      -3.805  13.505  22.000  0.00  0.00    +0.000 C 
ATOM     29  O   UNL     1      -3.183  14.438  22.890  0.00  0.00    +0.000 OA
ATOM     30  C   UNL     1      -4.100  14.917  23.769  0.00  0.00    +0.000 C 
ATOM     31  O   UNL     1      -3.850  15.555  24.773  0.00  0.00    +0.000 OA
ATOM     32  C   UNL     1      -5.445  14.590  23.241  0.00  0.00    +0.000 C 
ATOM     33  C   UNL     1      -6.542  15.091  23.821  0.00  0.00    +0.000 C 
ATOM     34  C   UNL     1      -5.297  13.854  21.951  0.00  0.00    +0.000 C 
BRANCH  34  35
ATOM     35  C   UNL     1      -6.133  12.581  21.680  0.00  0.00    +0.000 C 
BRANCH  35  36
ATOM     36  C   UNL     1      -6.904  12.580  20.360  0.00  0.00    +0.000 C 
ATOM     37  C   UNL     1      -7.137  11.174  19.824  0.00  0.00    +0.000 C 
ENDBRANCH  35  36
ENDBRANCH  34  35
ENDBRANCH  27  28
ENDBRANCH  25  27
ENDBRANCH  11  25
TORSDOF 8
ENDMDL
MODEL 3
REMARK VINA RESULT:      -8.0      1.158      1.582
REMARK  Name = 
REMARK  12 active torsions:
REMARK  status: ('A' for Active; 'I' for Inactive)
REMARK    1  A    between atoms: C_4  and  C_5
REMARK    2  A    between atoms: C_10  and  C_11
REMARK    3  A    between atoms: C_15  and  C_16
REMARK    4  A    between atoms: C_16  and  C_17
REMARK    5  A    between atoms: C_16  and  C_18
REMARK    6  A    between atoms: C_18  and  C_19
REMARK    7  A    between atoms: C_25  and  C_26
REMARK    8  A    between atoms: C_26  and  C_27
REMARK    9  A    between atoms: C_27  and  C_28
REMARK   10  A    between atoms: C_30  and  O_31
REMARK   11  A    between atoms: C_32  and  C_33
REMARK   12  A    between atoms: C_34  and  O_35
REMARK                            x       y       z     vdW  Elec       q    Type
REMARK                         _______ _______ _______ _____ _____    ______ ____
ROOT
ATOM      1  C   UNL     1       1.176   7.949  20.302  0.00  0.00    +0.000 C 
ATOM      2  C   UNL     1       0.283   8.770  20.860  0.00  0.00    +0.000 C 
ATOM      3  C   UNL     1      -0.245   8.659  22.289  0.00  0.00    +0.000 C 
ATOM      4  C   UNL     1      -0.259   9.996  23.045  0.00  0.00    +0.000 C 
ATOM      5  C   UNL     1      -0.901  11.133  22.243  0.00  0.00    +0.000 C 
ATOM      6  C   UNL     1      -0.327  11.238  20.815  0.00  0.00    +0.000 C 
ATOM      7  C   UNL     1       1.140  11.749  20.941  0.00  0.00    +0.000 C 
ATOM      8  C   UNL     1      -0.395   9.873  20.099  0.00  0.00    +0.000 C 
ATOM      9  C   UNL     1      -0.041  10.209  18.650  0.00  0.00    +0.000 C 
ATOM     10  C   UNL     1      -0.715  11.569  18.414  0.00  0.00    +0.000 C 
ATOM     11  C   UNL     1      -1.105  12.148  19.808  0.00  0.00    +0.000 C 
ENDROOT
BRANCH   1  15
ATOM     12  C   UNL     1       2.878   6.404  18.095  0.00  0.00    +0.000 C 
ATOM     13  C   UNL     1       2.254   5.484  18.854  0.00  0.00    +0.000 C 
ATOM     14  C   UNL     1       2.113   5.647  20.309  0.00  0.00    +0.000 C 
ATOM     15  C   UNL     1       1.687   6.758  20.929  0.00  0.00    +0.000 C 
ATOM     16  C   UNL     1       2.449   4.430  21.153  0.00  0.00    +0.000 C 
ATOM     17  C   UNL     1       1.833   3.140  20.594  0.00  0.00    +0.000 C 
ATOM     18  C   UNL     1       2.127   2.954  19.095  0.00  0.00    +0.000 C 
ATOM     19  C   UNL     1       3.615   2.639  18.873  0.00  0.00    +0.000 C 
ATOM     20  C   UNL     1       1.654   4.196  18.309  0.00  0.00    +0.000 C 
BRANCH  17  21
ATOM     21  O   UNL     1       0.421   3.123  20.825  0.00  0.00    +0.000 OA
ATOM     22  H   UNL     1       0.238   3.553  21.681  0.00  0.00    +0.000 HD
ENDBRANCH  17  21
BRANCH  20  23
ATOM     23  O   UNL     1       1.921   4.024  16.918  0.00  0.00    +0.000 OA
ATOM     24  H   UNL     1       1.382   4.671  16.434  0.00  0.00    +0.000 HD
ENDBRANCH  20  23
ENDBRANCH   1  15
BRANCH  11  25
ATOM     25  C   UNL     1      -2.655  12.293  20.038  0.00  0.00    +0.000 C 
ATOM     26  C   UNL     1      -3.538  11.801  18.880  0.00  0.00    +0.000 C 
BRANCH  25  27
ATOM     27  C   UNL     1      -3.034  13.755  20.403  0.00  0.00    +0.000 C 
BRANCH  27  28
ATOM     28  C   UNL     1      -3.809  13.903  21.727  0.00  0.00    +0.000 C 
ATOM     29  O   UNL     1      -3.974  12.625  22.351  0.00  0.00    +0.000 OA
ATOM     30  C   UNL     1      -3.968  12.768  23.701  0.00  0.00    +0.000 C 
ATOM     31  O   UNL     1      -4.295  11.915  24.504  0.00  0.00    +0.000 OA
ATOM     32  C   UNL     1      -3.421  14.109  24.011  0.00  0.00    +0.000 C 
ATOM     33  C   UNL     1      -3.142  14.454  25.274  0.00  0.00    +0.000 C 
ATOM     34  C   UNL     1      -3.087  14.807  22.734  0.00  0.00    +0.000 C 
BRANCH  34  35
ATOM     35  C   UNL     1      -3.503  16.280  22.520  0.00  0.00    +0.000 C 
BRANCH  35  36
ATOM     36  C   UNL     1      -5.011  16.536  22.524  0.00  0.00    +0.000 C 
ATOM     37  C   UNL     1      -5.482  17.219  23.800  0.00  0.00    +0.000 C 
ENDBRANCH  35  36
ENDBRANCH  34  35
ENDBRANCH  27  28
ENDBRANCH  25  27
ENDBRANCH  11  25
TORSDOF 8
ENDMDL
MODEL 4
REMARK VINA RESULT:      -7.9      1.260      2.113
REMARK  Name = 
REMARK  12 active torsions:
REMARK  status: ('A' for Active; 'I' for Inactive)
REMARK    1  A    between atoms: C_4  and  C_5
REMARK    2  A    between atoms: C_10  and  C_11
REMARK    3  A    between atoms: C_15  and  C_16
REMARK    4  A    between atoms: C_16  and  C_17
REMARK    5  A    between atoms: C_16  and  C_18
REMARK    6  A    between atoms: C_18  and  C_19
REMARK    7  A    between atoms: C_25  and  C_26
REMARK    8  A    between atoms: C_26  and  C_27
REMARK    9  A    between atoms: C_27  and  C_28
REMARK   10  A    between atoms: C_30  and  O_31
REMARK   11  A    between atoms: C_32  and  C_33
REMARK   12  A    between atoms: C_34  and  O_35
REMARK                            x       y       z     vdW  Elec       q    Type
REMARK                         _______ _______ _______ _____ _____    ______ ____
ROOT
ATOM      1  C   UNL     1       1.282   7.924  20.270  0.00  0.00    +0.000 C 
ATOM      2  C   UNL     1       0.334   8.687  20.817  0.00  0.00    +0.000 C 
ATOM      3  C   UNL     1      -0.224   8.523  22.229  0.00  0.00    +0.000 C 
ATOM      4  C   UNL     1      -0.326   9.843  23.009  0.00  0.00    +0.000 C 
ATOM      5  C   UNL     1      -1.004  10.961  22.209  0.00  0.00    +0.000 C 
ATOM      6  C   UNL     1      -0.399  11.122  20.800  0.00  0.00    +0.000 C 
ATOM      7  C   UNL     1       1.037  11.704  20.975  0.00  0.00    +0.000 C 
ATOM      8  C   UNL     1      -0.378   9.770  20.058  0.00  0.00    +0.000 C 
ATOM      9  C   UNL     1      -0.004  10.151  18.626  0.00  0.00    +0.000 C 
ATOM     10  C   UNL     1      -0.740  11.479  18.395  0.00  0.00    +0.000 C 
ATOM     11  C   UNL     1      -1.195  12.011  19.788  0.00  0.00    +0.000 C 
ENDROOT
BRANCH   1  15
ATOM     12  C   UNL     1       2.810   6.312  17.984  0.00  0.00    +0.000 C 
ATOM     13  C   UNL     1       2.243   5.416  18.813  0.00  0.00    +0.000 C 
ATOM     14  C   UNL     1       2.212   5.619  20.269  0.00  0.00    +0.000 C 
ATOM     15  C   UNL     1       1.837   6.748  20.889  0.00  0.00    +0.000 C 
ATOM     16  C   UNL     1       2.609   4.424  21.119  0.00  0.00    +0.000 C 
ATOM     17  C   UNL     1       1.949   3.122  20.643  0.00  0.00    +0.000 C 
ATOM     18  C   UNL     1       2.129   2.893  19.132  0.00  0.00    +0.000 C 
ATOM     19  C   UNL     1       3.595   2.566  18.807  0.00  0.00    +0.000 C 
ATOM     20  C   UNL     1       1.601   4.116  18.350  0.00  0.00    +0.000 C 
BRANCH  17  21
ATOM     21  O   UNL     1       0.558   3.117  20.981  0.00  0.00    +0.000 OA
ATOM     22  H   UNL     1       0.433   2.582  21.787  0.00  0.00    +0.000 HD
ENDBRANCH  17  21
BRANCH  20  23
ATOM     23  O   UNL     1       1.761   3.904  16.948  0.00  0.00    +0.000 OA
ATOM     24  H   UNL     1       1.448   4.703  16.494  0.00  0.00    +0.000 HD
ENDBRANCH  20  23
ENDBRANCH   1  15
BRANCH  11  25
ATOM     25  C   UNL     1      -2.756  12.073  19.979  0.00  0.00    +0.000 C 
ATOM     26  C   UNL     1      -3.581  11.906  18.692  0.00  0.00    +0.000 C 
BRANCH  25  27
ATOM     27  C   UNL     1      -3.181  13.378  20.709  0.00  0.00    +0.000 C 
BRANCH  27  28
ATOM     28  C   UNL     1      -4.587  13.331  21.337  0.00  0.00    +0.000 C 
ATOM     29  O   UNL     1      -4.591  12.470  22.481  0.00  0.00    +0.000 OA
ATOM     30  C   UNL     1      -5.478  12.930  23.400  0.00  0.00    +0.000 C 
ATOM     31  O   UNL     1      -5.867  12.317  24.376  0.00  0.00    +0.000 OA
ATOM     32  C   UNL     1      -5.816  14.327  23.042  0.00  0.00    +0.000 C 
ATOM     33  C   UNL     1      -6.542  15.084  23.873  0.00  0.00    +0.000 C 
ATOM     34  C   UNL     1      -5.068  14.708  21.807  0.00  0.00    +0.000 C 
BRANCH  34  35
ATOM     35  C   UNL     1      -5.792  15.442  20.654  0.00  0.00    +0.000 C 
BRANCH  35  36
ATOM     36  C   UNL     1      -6.937  14.663  20.008  0.00  0.00    +0.000 C 
ATOM     37  C   UNL     1      -6.690  14.381  18.532  0.00  0.00    +0.000 C 
ENDBRANCH  35  36
ENDBRANCH  34  35
ENDBRANCH  27  28
ENDBRANCH  25  27
ENDBRANCH  11  25
TORSDOF 8
ENDMDL
MODEL 5
REMARK VINA RESULT:      -7.7      1.217      1.709
REMARK  Name = 
REMARK  12 active torsions:
REMARK  status: ('A' for Active; 'I' for Inactive)
REMARK    1  A    between atoms: C_4  and  C_5
REMARK    2  A    between atoms: C_10  and  C_11
REMARK    3  A    between atoms: C_15  and  C_16
REMARK    4  A    between atoms: C_16  and  C_17
REMARK    5  A    between atoms: C_16  and  C_18
REMARK    6  A    between atoms: C_18  and  C_19
REMARK    7  A    between atoms: C_25  and  C_26
REMARK    8  A    between atoms: C_26  and  C_27
REMARK    9  A    between atoms: C_27  and  C_28
REMARK   10  A    between atoms: C_30  and  O_31
REMARK   11  A    between atoms: C_32  and  C_33
REMARK   12  A    between atoms: C_34  and  O_35
REMARK                            x       y       z     vdW  Elec       q    Type
REMARK                         _______ _______ _______ _____ _____    ______ ____
ROOT
ATOM      1  C   UNL     1       1.205   7.971  20.276  0.00  0.00    +0.000 C 
ATOM      2  C   UNL     1       0.283   8.786  20.793  0.00  0.00    +0.000 C 
ATOM      3  C   UNL     1      -0.311   8.668  22.195  0.00  0.00    +0.000 C 
ATOM      4  C   UNL     1      -0.367  10.004  22.953  0.00  0.00    +0.000 C 
ATOM      5  C   UNL     1      -0.976  11.139  22.125  0.00  0.00    +0.000 C 
ATOM      6  C   UNL     1      -0.335  11.251  20.726  0.00  0.00    +0.000 C 
ATOM      7  C   UNL     1       1.122  11.768  20.922  0.00  0.00    +0.000 C 
ATOM      8  C   UNL     1      -0.363   9.889  20.003  0.00  0.00    +0.000 C 
ATOM      9  C   UNL     1       0.058  10.230  18.575  0.00  0.00    +0.000 C 
ATOM     10  C   UNL     1      -0.611  11.588  18.310  0.00  0.00    +0.000 C 
ATOM     11  C   UNL     1      -1.068  12.160  19.685  0.00  0.00    +0.000 C 
ENDROOT
BRANCH   1  15
ATOM     12  C   UNL     1       2.957   6.403  18.125  0.00  0.00    +0.000 C 
ATOM     13  C   UNL     1       2.307   5.491  18.872  0.00  0.00    +0.000 C 
ATOM     14  C   UNL     1       2.127   5.663  20.321  0.00  0.00    +0.000 C 
ATOM     15  C   UNL     1       1.692   6.780  20.923  0.00  0.00    +0.000 C 
ATOM     16  C   UNL     1       2.433   4.449  21.181  0.00  0.00    +0.000 C 
ATOM     17  C   UNL     1       1.825   3.160  20.612  0.00  0.00    +0.000 C 
ATOM     18  C   UNL     1       2.158   2.963  19.122  0.00  0.00    +0.000 C 
ATOM     19  C   UNL     1       3.649   2.638  18.943  0.00  0.00    +0.000 C 
ATOM     20  C   UNL     1       1.714   4.204  18.317  0.00  0.00    +0.000 C 
BRANCH  17  21
ATOM     21  O   UNL     1       0.406   3.152  20.805  0.00  0.00    +0.000 OA
ATOM     22  H   UNL     1       0.017   2.456  20.245  0.00  0.00    +0.000 HD
ENDBRANCH  17  21
BRANCH  20  23
ATOM     23  O   UNL     1       2.018   4.022  16.935  0.00  0.00    +0.000 OA
ATOM     24  H   UNL     1       1.868   4.870  16.488  0.00  0.00    +0.000 HD
ENDBRANCH  20  23
ENDBRANCH   1  15
BRANCH  11  25
ATOM     25  C   UNL     1      -2.629  12.298  19.843  0.00  0.00    +0.000 C 
ATOM     26  C   UNL     1      -3.460  11.617  18.743  0.00  0.00    +0.000 C 
BRANCH  25  27
ATOM     27  C   UNL     1      -3.050  13.787  19.974  0.00  0.00    +0.000 C 
BRANCH  27  28
ATOM     28  C   UNL     1      -4.464  14.004  20.547  0.00  0.00    +0.000 C 
ATOM     29  O   UNL     1      -5.450  13.792  19.530  0.00  0.00    +0.000 OA
ATOM     30  C   UNL     1      -6.579  13.280  20.083  0.00  0.00    +0.000 C 
ATOM     31  O   UNL     1      -7.658  13.189  19.530  0.00  0.00    +0.000 OA
ATOM     32  C   UNL     1      -6.236  12.790  21.438  0.00  0.00    +0.000 C 
ATOM     33  C   UNL     1      -7.123  12.081  22.148  0.00  0.00    +0.000 C 
ATOM     34  C   UNL     1      -4.788  13.042  21.696  0.00  0.00    +0.000 C 
BRANCH  34  35
ATOM     35  C   UNL     1      -4.332  13.649  23.043  0.00  0.00    +0.000 C 
BRANCH  35  36
ATOM     36  C   UNL     1      -3.759  12.648  24.046  0.00  0.00    +0.000 C 
ATOM     37  C   UNL     1      -4.776  12.235  25.102  0.00  0.00    +0.000 C 
ENDBRANCH  35  36
ENDBRANCH  34  35
ENDBRANCH  27  28
ENDBRANCH  25  27
ENDBRANCH  11  25
TORSDOF 8
ENDMDL
MODEL 6
REMARK VINA RESULT:      -7.7      1.373      2.323
REMARK  Name = 
REMARK  12 active torsions:
REMARK  status: ('A' for Active; 'I' for Inactive)
REMARK    1  A    between atoms: C_4  and  C_5
REMARK    2  A    between atoms: C_10  and  C_11
REMARK    3  A    between atoms: C_15  and  C_16
REMARK    4  A    between atoms: C_16  and  C_17
REMARK    5  A    between atoms: C_16  and  C_18
REMARK    6  A    between atoms: C_18  and  C_19
REMARK    7  A    between atoms: C_25  and  C_26
REMARK    8  A    between atoms: C_26  and  C_27
REMARK    9  A    between atoms: C_27  and  C_28
REMARK   10  A    between atoms: C_30  and  O_31
REMARK   11  A    between atoms: C_32  and  C_33
REMARK   12  A    between atoms: C_34  and  O_35
REMARK                            x       y       z     vdW  Elec       q    Type
REMARK                         _______ _______ _______ _____ _____    ______ ____
ROOT
ATOM      1  C   UNL     1       1.277   7.720  20.307  0.00  0.00    +0.000 C 
ATOM      2  C   UNL     1       0.414   8.558  20.885  0.00  0.00    +0.000 C 
ATOM      3  C   UNL     1      -0.097   8.447  22.320  0.00  0.00    +0.000 C 
ATOM      4  C   UNL     1      -0.065   9.776  23.090  0.00  0.00    +0.000 C 
ATOM      5  C   UNL     1      -0.687  10.938  22.309  0.00  0.00    +0.000 C 
ATOM      6  C   UNL     1      -0.130  11.043  20.874  0.00  0.00    +0.000 C 
ATOM      7  C   UNL     1       1.353  11.512  20.985  0.00  0.00    +0.000 C 
ATOM      8  C   UNL     1      -0.244   9.688  20.145  0.00  0.00    +0.000 C 
ATOM      9  C   UNL     1       0.100  10.029  18.695  0.00  0.00    +0.000 C 
ATOM     10  C   UNL     1      -0.541  11.409  18.482  0.00  0.00    +0.000 C 
ATOM     11  C   UNL     1      -0.896  11.983  19.887  0.00  0.00    +0.000 C 
ENDROOT
BRANCH   1  15
ATOM     12  C   UNL     1       2.923   6.163  18.066  0.00  0.00    +0.000 C 
ATOM     13  C   UNL     1       2.283   5.249  18.819  0.00  0.00    +0.000 C 
ATOM     14  C   UNL     1       2.157   5.396  20.277  0.00  0.00    +0.000 C 
ATOM     15  C   UNL     1       1.764   6.509  20.915  0.00  0.00    +0.000 C 
ATOM     16  C   UNL     1       2.471   4.160  21.103  0.00  0.00    +0.000 C 
ATOM     17  C   UNL     1       1.819   2.893  20.533  0.00  0.00    +0.000 C 
ATOM     18  C   UNL     1       2.096   2.719  19.029  0.00  0.00    +0.000 C 
ATOM     19  C   UNL     1       3.574   2.371  18.790  0.00  0.00    +0.000 C 
ATOM     20  C   UNL     1       1.647   3.982  18.263  0.00  0.00    +0.000 C 
BRANCH  17  21
ATOM     21  O   UNL     1       0.408   2.907  20.776  0.00  0.00    +0.000 OA
ATOM     22  H   UNL     1       0.123   2.006  21.015  0.00  0.00    +0.000 HD
ENDBRANCH  17  21
BRANCH  20  23
ATOM     23  O   UNL     1       1.898   3.821  16.867  0.00  0.00    +0.000 OA
ATOM     24  H   UNL     1       2.800   4.136  16.694  0.00  0.00    +0.000 HD
ENDBRANCH  20  23
ENDBRANCH   1  15
BRANCH  11  25
ATOM     25  C   UNL     1      -2.438  12.168  20.140  0.00  0.00    +0.000 C 
ATOM     26  C   UNL     1      -3.340  11.874  18.931  0.00  0.00    +0.000 C 
BRANCH  25  27
ATOM     27  C   UNL     1      -2.750  13.585  20.696  0.00  0.00    +0.000 C 
BRANCH  27  28
ATOM     28  C   UNL     1      -2.957  13.642  22.222  0.00  0.00    +0.000 C 
ATOM     29  O   UNL     1      -1.727  13.967  22.878  0.00  0.00    +0.000 OA
ATOM     30  C   UNL     1      -1.980  14.691  23.998  0.00  0.00    +0.000 C 
ATOM     31  O   UNL     1      -1.177  14.937  24.877  0.00  0.00    +0.000 OA
ATOM     32  C   UNL     1      -3.374  15.184  23.912  0.00  0.00    +0.000 C 
ATOM     33  C   UNL     1      -3.838  16.069  24.803  0.00  0.00    +0.000 C 
ATOM     34  C   UNL     1      -3.984  14.702  22.638  0.00  0.00    +0.000 C 
BRANCH  34  35
ATOM     35  C   UNL     1      -5.406  14.095  22.636  0.00  0.00    +0.000 C 
BRANCH  35  36
ATOM     36  C   UNL     1      -5.664  13.045  23.717  0.00  0.00    +0.000 C 
ATOM     37  C   UNL     1      -7.109  13.047  24.197  0.00  0.00    +0.000 C 
ENDBRANCH  35  36
ENDBRANCH  34  35
ENDBRANCH  27  28
ENDBRANCH  25  27
ENDBRANCH  11  25
TORSDOF 8
ENDMDL
MODEL 7
REMARK VINA RESULT:      -7.6      1.116      1.346
REMARK  Name = 
REMARK  12 active torsions:
REMARK  status: ('A' for Active; 'I' for Inactive)
REMARK    1  A    between atoms: C_4  and  C_5
REMARK    2  A    between atoms: C_10  and  C_11
REMARK    3  A    between atoms: C_15  and  C_16
REMARK    4  A    between atoms: C_16  and  C_17
REMARK    5  A    between atoms: C_16  and  C_18
REMARK    6  A    between atoms: C_18  and  C_19
REMARK    7  A    between atoms: C_25  and  C_26
REMARK    8  A    between atoms: C_26  and  C_27
REMARK    9  A    between atoms: C_27  and  C_28
REMARK   10  A    between atoms: C_30  and  O_31
REMARK   11  A    between atoms: C_32  and  C_33
REMARK   12  A    between atoms: C_34  and  O_35
REMARK                            x       y       z     vdW  Elec       q    Type
REMARK                         _______ _______ _______ _____ _____    ______ ____
ROOT
ATOM      1  C   UNL     1       1.197   7.940  20.301  0.00  0.00    +0.000 C 
ATOM      2  C   UNL     1       0.281   8.742  20.846  0.00  0.00    +0.000 C 
ATOM      3  C   UNL     1      -0.273   8.614  22.263  0.00  0.00    +0.000 C 
ATOM      4  C   UNL     1      -0.323   9.946  23.027  0.00  0.00    +0.000 C 
ATOM      5  C   UNL     1      -0.968  11.077  22.219  0.00  0.00    +0.000 C 
ATOM      6  C   UNL     1      -0.368  11.201  20.804  0.00  0.00    +0.000 C 
ATOM      7  C   UNL     1       1.088  11.734  20.961  0.00  0.00    +0.000 C 
ATOM      8  C   UNL     1      -0.400   9.840  20.078  0.00  0.00    +0.000 C 
ATOM      9  C   UNL     1      -0.023  10.190  18.639  0.00  0.00    +0.000 C 
ATOM     10  C   UNL     1      -0.715  11.540  18.397  0.00  0.00    +0.000 C 
ATOM     11  C   UNL     1      -1.141  12.104  19.786  0.00  0.00    +0.000 C 
ENDROOT
BRANCH   1  15
ATOM     12  C   UNL     1       2.873   6.377  18.085  0.00  0.00    +0.000 C 
ATOM     13  C   UNL     1       2.258   5.464  18.859  0.00  0.00    +0.000 C 
ATOM     14  C   UNL     1       2.134   5.638  20.314  0.00  0.00    +0.000 C 
ATOM     15  C   UNL     1       1.716   6.753  20.930  0.00  0.00    +0.000 C 
ATOM     16  C   UNL     1       2.480   4.426  21.163  0.00  0.00    +0.000 C 
ATOM     17  C   UNL     1       1.857   3.133  20.620  0.00  0.00    +0.000 C 
ATOM     18  C   UNL     1       2.133   2.935  19.119  0.00  0.00    +0.000 C 
ATOM     19  C   UNL     1       3.617   2.618  18.882  0.00  0.00    +0.000 C 
ATOM     20  C   UNL     1       1.651   4.172  18.330  0.00  0.00    +0.000 C 
BRANCH  17  21
ATOM     21  O   UNL     1       0.447   3.118  20.869  0.00  0.00    +0.000 OA
ATOM     22  H   UNL     1       0.216   3.891  21.416  0.00  0.00    +0.000 HD
ENDBRANCH  17  21
BRANCH  20  23
ATOM     23  O   UNL     1       1.901   3.989  16.937  0.00  0.00    +0.000 OA
ATOM     24  H   UNL     1       1.482   3.154  16.671  0.00  0.00    +0.000 HD
ENDBRANCH  20  23
ENDBRANCH   1  15
BRANCH  11  25
ATOM     25  C   UNL     1      -2.698  12.223  19.988  0.00  0.00    +0.000 C 
ATOM     26  C   UNL     1      -3.544  11.926  18.739  0.00  0.00    +0.000 C 
BRANCH  25  27
ATOM     27  C   UNL     1      -3.084  13.612  20.566  0.00  0.00    +0.000 C 
BRANCH  27  28
ATOM     28  C   UNL     1      -4.541  13.718  21.056  0.00  0.00    +0.000 C 
ATOM     29  O   UNL     1      -5.250  12.506  20.772  0.00  0.00    +0.000 OA
ATOM     30  C   UNL     1      -6.180  12.280  21.735  0.00  0.00    +0.000 C 
ATOM     31  O   UNL     1      -7.076  11.461  21.674  0.00  0.00    +0.000 OA
ATOM     32  C   UNL     1      -5.856  13.150  22.889  0.00  0.00    +0.000 C 
ATOM     33  C   UNL     1      -6.510  13.012  24.049  0.00  0.00    +0.000 C 
ATOM     34  C   UNL     1      -4.639  13.953  22.568  0.00  0.00    +0.000 C 
BRANCH  34  35
ATOM     35  C   UNL     1      -4.603  15.468  22.874  0.00  0.00    +0.000 C 
BRANCH  35  36
ATOM     36  C   UNL     1      -4.037  15.841  24.245  0.00  0.00    +0.000 C 
ATOM     37  C   UNL     1      -4.835  16.945  24.924  0.00  0.00    +0.000 C 
ENDBRANCH  35  36
ENDBRANCH  34  35
ENDBRANCH  27  28
ENDBRANCH  25  27
ENDBRANCH  11  25
TORSDOF 8
ENDMDL
MODEL 8
REMARK VINA RESULT:      -7.4      1.732      2.609
REMARK  Name = 
REMARK  12 active torsions:
REMARK  status: ('A' for Active; 'I' for Inactive)
REMARK    1  A    between atoms: C_4  and  C_5
REMARK    2  A    between atoms: C_10  and  C_11
REMARK    3  A    between atoms: C_15  and  C_16
REMARK    4  A    between atoms: C_16  and  C_17
REMARK    5  A    between atoms: C_16  and  C_18
REMARK    6  A    between atoms: C_18  and  C_19
REMARK    7  A    between atoms: C_25  and  C_26
REMARK    8  A    between atoms: C_26  and  C_27
REMARK    9  A    between atoms: C_27  and  C_28
REMARK   10  A    between atoms: C_30  and  O_31
REMARK   11  A    between atoms: C_32  and  C_33
REMARK   12  A    between atoms: C_34  and  O_35
REMARK                            x       y       z     vdW  Elec       q    Type
REMARK                         _______ _______ _______ _____ _____    ______ ____
ROOT
ATOM      1  C   UNL     1       1.279   7.962  20.293  0.00  0.00    +0.000 C 
ATOM      2  C   UNL     1       0.369   8.764  20.851  0.00  0.00    +0.000 C 
ATOM      3  C   UNL     1      -0.187   8.615  22.266  0.00  0.00    +0.000 C 
ATOM      4  C   UNL     1      -0.227   9.934  23.053  0.00  0.00    +0.000 C 
ATOM      5  C   UNL     1      -0.860  11.085  22.264  0.00  0.00    +0.000 C 
ATOM      6  C   UNL     1      -0.257  11.228  20.852  0.00  0.00    +0.000 C 
ATOM      7  C   UNL     1       1.204  11.745  21.020  0.00  0.00    +0.000 C 
ATOM      8  C   UNL     1      -0.300   9.881  20.102  0.00  0.00    +0.000 C 
ATOM      9  C   UNL     1       0.082  10.253  18.670  0.00  0.00    +0.000 C 
ATOM     10  C   UNL     1      -0.597  11.614  18.451  0.00  0.00    +0.000 C 
ATOM     11  C   UNL     1      -1.019  12.156  19.850  0.00  0.00    +0.000 C 
ENDROOT
BRANCH   1  15
ATOM     12  C   UNL     1       2.847   6.368  18.022  0.00  0.00    +0.000 C 
ATOM     13  C   UNL     1       2.232   5.467  18.810  0.00  0.00    +0.000 C 
ATOM     14  C   UNL     1       2.156   5.637  20.269  0.00  0.00    +0.000 C 
ATOM     15  C   UNL     1       1.786   6.760  20.902  0.00  0.00    +0.000 C 
ATOM     16  C   UNL     1       2.497   4.413  21.102  0.00  0.00    +0.000 C 
ATOM     17  C   UNL     1       1.825   3.139  20.574  0.00  0.00    +0.000 C 
ATOM     18  C   UNL     1       2.050   2.941  19.065  0.00  0.00    +0.000 C 
ATOM     19  C   UNL     1       3.518   2.587  18.781  0.00  0.00    +0.000 C 
ATOM     20  C   UNL     1       1.576   4.193  18.295  0.00  0.00    +0.000 C 
BRANCH  17  21
ATOM     21  O   UNL     1       0.423   3.158  20.865  0.00  0.00    +0.000 OA
ATOM     22  H   UNL     1       0.076   4.051  20.680  0.00  0.00    +0.000 HD
ENDBRANCH  17  21
BRANCH  20  23
ATOM     23  O   UNL     1       1.780   4.010  16.894  0.00  0.00    +0.000 OA
ATOM     24  H   UNL     1       2.228   3.158  16.772  0.00  0.00    +0.000 HD
ENDBRANCH  20  23
ENDBRANCH   1  15
BRANCH  11  25
ATOM     25  C   UNL     1      -2.576  12.286  20.051  0.00  0.00    +0.000 C 
ATOM     26  C   UNL     1      -3.427  11.932  18.821  0.00  0.00    +0.000 C 
BRANCH  25  27
ATOM     27  C   UNL     1      -2.959  13.701  20.566  0.00  0.00    +0.000 C 
BRANCH  27  28
ATOM     28  C   UNL     1      -1.758  14.614  20.880  0.00  0.00    +0.000 C 
ATOM     29  O   UNL     1      -1.610  15.609  19.860  0.00  0.00    +0.000 OA
ATOM     30  C   UNL     1      -1.121  16.754  20.402  0.00  0.00    +0.000 C 
ATOM     31  O   UNL     1      -0.689  17.703  19.777  0.00  0.00    +0.000 OA
ATOM     32  C   UNL     1      -1.283  16.663  21.871  0.00  0.00    +0.000 C 
ATOM     33  C   UNL     1      -1.039  17.726  22.648  0.00  0.00    +0.000 C 
ATOM     34  C   UNL     1      -1.914  15.354  22.214  0.00  0.00    +0.000 C 
BRANCH  34  35
ATOM     35  C   UNL     1      -1.348  14.496  23.368  0.00  0.00    +0.000 C 
BRANCH  35  36
ATOM     36  C   UNL     1      -2.303  14.275  24.541  0.00  0.00    +0.000 C 
ATOM     37  C   UNL     1      -2.191  15.366  25.597  0.00  0.00    +0.000 C 
ENDBRANCH  35  36
ENDBRANCH  34  35
ENDBRANCH  27  28
ENDBRANCH  25  27
ENDBRANCH  11  25
TORSDOF 8
ENDMDL
MODEL 9
REMARK VINA RESULT:      -7.1      1.616      2.352
REMARK  Name = 
REMARK  12 active torsions:
REMARK  status: ('A' for Active; 'I' for Inactive)
REMARK    1  A    between atoms: C_4  and  C_5
REMARK    2  A    between atoms: C_10  and  C_11
REMARK    3  A    between atoms: C_15  and  C_16
REMARK    4  A    between atoms: C_16  and  C_17
REMARK    5  A    between atoms: C_16  and  C_18
REMARK    6  A    between atoms: C_18  and  C_19
REMARK    7  A    between atoms: C_25  and  C_26
REMARK    8  A    between atoms: C_26  and  C_27
REMARK    9  A    between atoms: C_27  and  C_28
REMARK   10  A    between atoms: C_30  and  O_31
REMARK   11  A    between atoms: C_32  and  C_33
REMARK   12  A    between atoms: C_34  and  O_35
REMARK                            x       y       z     vdW  Elec       q    Type
REMARK                         _______ _______ _______ _____ _____    ______ ____
ROOT
ATOM      1  C   UNL     1       1.231   7.889  20.337  0.00  0.00    +0.000 C 
ATOM      2  C   UNL     1       0.339   8.671  20.949  0.00  0.00    +0.000 C 
ATOM      3  C   UNL     1      -0.121   8.518  22.398  0.00  0.00    +0.000 C 
ATOM      4  C   UNL     1      -0.144   9.840  23.179  0.00  0.00    +0.000 C 
ATOM      5  C   UNL     1      -0.857  10.969  22.428  0.00  0.00    +0.000 C 
ATOM      6  C   UNL     1      -0.351  11.118  20.979  0.00  0.00    +0.000 C 
ATOM      7  C   UNL     1       1.104  11.674  21.049  0.00  0.00    +0.000 C 
ATOM      8  C   UNL     1      -0.407   9.765  20.240  0.00  0.00    +0.000 C 
ATOM      9  C   UNL     1      -0.128  10.138  18.784  0.00  0.00    +0.000 C 
ATOM     10  C   UNL     1      -0.856  11.479  18.603  0.00  0.00    +0.000 C 
ATOM     11  C   UNL     1      -1.200  12.020  20.024  0.00  0.00    +0.000 C 
ENDROOT
BRANCH   1  15
ATOM     12  C   UNL     1       2.724   6.342  17.985  0.00  0.00    +0.000 C 
ATOM     13  C   UNL     1       2.181   5.423  18.805  0.00  0.00    +0.000 C 
ATOM     14  C   UNL     1       2.178   5.593  20.266  0.00  0.00    +0.000 C 
ATOM     15  C   UNL     1       1.807   6.705  20.918  0.00  0.00    +0.000 C 
ATOM     16  C   UNL     1       2.602   4.382  21.080  0.00  0.00    +0.000 C 
ATOM     17  C   UNL     1       1.942   3.086  20.588  0.00  0.00    +0.000 C 
ATOM     18  C   UNL     1       2.092   2.893  19.069  0.00  0.00    +0.000 C 
ATOM     19  C   UNL     1       3.554   2.585  18.707  0.00  0.00    +0.000 C 
ATOM     20  C   UNL     1       1.539   4.128  18.326  0.00  0.00    +0.000 C 
BRANCH  17  21
ATOM     21  O   UNL     1       0.558   3.062  20.954  0.00  0.00    +0.000 OA
ATOM     22  H   UNL     1       0.322   3.924  21.344  0.00  0.00    +0.000 HD
ENDBRANCH  17  21
BRANCH  20  23
ATOM     23  O   UNL     1       1.672   3.950  16.916  0.00  0.00    +0.000 OA
ATOM     24  H   UNL     1       2.038   4.771  16.551  0.00  0.00    +0.000 HD
ENDBRANCH  20  23
ENDBRANCH   1  15
BRANCH  11  25
ATOM     25  C   UNL     1      -2.743  12.111  20.325  0.00  0.00    +0.000 C 
ATOM     26  C   UNL     1      -3.647  12.215  19.086  0.00  0.00    +0.000 C 
BRANCH  25  27
ATOM     27  C   UNL     1      -3.056  13.276  21.303  0.00  0.00    +0.000 C 
BRANCH  27  28
ATOM     28  C   UNL     1      -2.902  14.683  20.692  0.00  0.00    +0.000 C 
ATOM     29  O   UNL     1      -4.161  15.366  20.698  0.00  0.00    +0.000 OA
ATOM     30  C   UNL     1      -3.959  16.699  20.864  0.00  0.00    +0.000 C 
ATOM     31  O   UNL     1      -4.797  17.566  20.703  0.00  0.00    +0.000 OA
ATOM     32  C   UNL     1      -2.572  16.889  21.347  0.00  0.00    +0.000 C 
ATOM     33  C   UNL     1      -2.155  18.094  21.757  0.00  0.00    +0.000 C 
ATOM     34  C   UNL     1      -1.910  15.557  21.467  0.00  0.00    +0.000 C 
BRANCH  34  35
ATOM     35  C   UNL     1      -0.478  15.348  20.923  0.00  0.00    +0.000 C 
BRANCH  35  36
ATOM     36  C   UNL     1      -0.339  15.459  19.404  0.00  0.00    +0.000 C 
ATOM     37  C   UNL     1       0.964  14.858  18.893  0.00  0.00    +0.000 C 
ENDBRANCH  35  36
ENDBRANCH  34  35
ENDBRANCH  27  28
ENDBRANCH  25  27
ENDBRANCH  11  25
TORSDOF 8
ENDMDL
