MODEL 1
REMARK VINA RESULT:      -7.4      0.000      0.000
REMARK  Name = 
REMARK  2 active torsions:
REMARK  status: ('A' for Active; 'I' for Inactive)
REMARK    1  A    between atoms: C_1  and  C_2
REMARK    2  A    between atoms: C_4  and  C_5
REMARK                            x       y       z     vdW  Elec       q    Type
REMARK                         _______ _______ _______ _____ _____    ______ ____
ROOT
ATOM      1  C   UNL     1       7.762   5.767  19.139  0.00  0.00    +0.000 C 
ATOM      2  C   UNL     1       6.451   5.280  18.588  0.00  0.00    +0.000 A 
ATOM      3  C   UNL     1       5.366   5.128  19.458  0.00  0.00    +0.000 A 
ATOM      4  C   UNL     1       4.156   4.651  18.967  0.00  0.00    +0.000 A 
ATOM      5  N   UNL     1       3.981   4.352  17.658  0.00  0.00    +0.000 NA
ATOM      6  C   UNL     1       5.011   4.500  16.809  0.00  0.00    +0.000 A 
ATOM      7  C   UNL     1       4.817   4.179  15.473  0.00  0.00    +0.000 A 
ATOM      8  C   UNL     1       5.838   4.286  14.528  0.00  0.00    +0.000 A 
ATOM      9  C   UNL     1       7.093   4.727  14.921  0.00  0.00    +0.000 A 
ATOM     10  C   UNL     1       7.315   5.061  16.257  0.00  0.00    +0.000 A 
ATOM     11  C   UNL     1       6.284   4.957  17.220  0.00  0.00    +0.000 A 
ENDROOT
BRANCH   4  12
ATOM     12  C   UNL     1       2.994   4.419  19.902  0.00  0.00    +0.000 C 
ATOM     13  C   UNL     1       1.652   4.257  19.189  0.00  0.00    +0.000 C 
ATOM     14  C   UNL     1       0.760   3.610  20.239  0.00  0.00    +0.000 C 
ATOM     15  C   UNL     1       1.687   2.784  21.132  0.00  0.00    +0.000 C 
ATOM     16  C   UNL     1       3.114   3.121  20.706  0.00  0.00    +0.000 C 
ENDBRANCH   4  12
TORSDOF 1
ENDMDL
MODEL 2
REMARK VINA RESULT:      -7.4      1.526      5.689
REMARK  Name = 
REMARK  2 active torsions:
REMARK  status: ('A' for Active; 'I' for Inactive)
REMARK    1  A    between atoms: C_1  and  C_2
REMARK    2  A    between atoms: C_4  and  C_5
REMARK                            x       y       z     vdW  Elec       q    Type
REMARK                         _______ _______ _______ _____ _____    ______ ____
ROOT
ATOM      1  C   UNL     1       2.644   7.206  18.419  0.00  0.00    +0.000 C 
ATOM      2  C   UNL     1       3.150   5.802  18.236  0.00  0.00    +0.000 A 
ATOM      3  C   UNL     1       4.156   5.562  17.294  0.00  0.00    +0.000 A 
ATOM      4  C   UNL     1       4.611   4.265  17.094  0.00  0.00    +0.000 A 
ATOM      5  N   UNL     1       4.132   3.219  17.807  0.00  0.00    +0.000 NA
ATOM      6  C   UNL     1       3.171   3.434  18.720  0.00  0.00    +0.000 A 
ATOM      7  C   UNL     1       2.683   2.348  19.434  0.00  0.00    +0.000 A 
ATOM      8  C   UNL     1       1.674   2.480  20.388  0.00  0.00    +0.000 A 
ATOM      9  C   UNL     1       1.131   3.731  20.643  0.00  0.00    +0.000 A 
ATOM     10  C   UNL     1       1.605   4.840  19.944  0.00  0.00    +0.000 A 
ATOM     11  C   UNL     1       2.630   4.714  18.977  0.00  0.00    +0.000 A 
ENDROOT
BRANCH   4  12
ATOM     12  C   UNL     1       5.650   3.977  16.037  0.00  0.00    +0.000 C 
ATOM     13  C   UNL     1       5.110   4.039  14.610  0.00  0.00    +0.000 C 
ATOM     14  C   UNL     1       6.363   4.167  13.753  0.00  0.00    +0.000 C 
ATOM     15  C   UNL     1       7.393   4.894  14.617  0.00  0.00    +0.000 C 
ATOM     16  C   UNL     1       6.791   4.999  16.017  0.00  0.00    +0.000 C 
ENDBRANCH   4  12
TORSDOF 1
ENDMDL
MODEL 3
REMARK VINA RESULT:      -7.3      1.538      5.639
REMARK  Name = 
REMARK  2 active torsions:
REMARK  status: ('A' for Active; 'I' for Inactive)
REMARK    1  A    between atoms: C_1  and  C_2
REMARK    2  A    between atoms: C_4  and  C_5
REMARK                            x       y       z     vdW  Elec       q    Type
REMARK                         _______ _______ _______ _____ _____    ______ ____
ROOT
ATOM      1  C   UNL     1       2.400   7.120  19.670  0.00  0.00    +0.000 C 
ATOM      2  C   UNL     1       2.848   5.968  18.813  0.00  0.00    +0.000 A 
ATOM      3  C   UNL     1       3.840   6.187  17.850  0.00  0.00    +0.000 A 
ATOM      4  C   UNL     1       4.242   5.138  17.032  0.00  0.00    +0.000 A 
ATOM      5  N   UNL     1       3.724   3.893  17.154  0.00  0.00    +0.000 NA
ATOM      6  C   UNL     1       2.777   3.666  18.079  0.00  0.00    +0.000 A 
ATOM      7  C   UNL     1       2.249   2.387  18.183  0.00  0.00    +0.000 A 
ATOM      8  C   UNL     1       1.250   2.068  19.104  0.00  0.00    +0.000 A 
ATOM      9  C   UNL     1       0.759   3.052  19.950  0.00  0.00    +0.000 A 
ATOM     10  C   UNL     1       1.274   4.346  19.869  0.00  0.00    +0.000 A 
ATOM     11  C   UNL     1       2.289   4.674  18.940  0.00  0.00    +0.000 A 
ENDROOT
BRANCH   4  12
ATOM     12  C   UNL     1       5.263   5.370  15.945  0.00  0.00    +0.000 C 
ATOM     13  C   UNL     1       6.709   5.227  16.417  0.00  0.00    +0.000 C 
ATOM     14  C   UNL     1       7.497   5.055  15.125  0.00  0.00    +0.000 C 
ATOM     15  C   UNL     1       6.546   4.383  14.135  0.00  0.00    +0.000 C 
ATOM     16  C   UNL     1       5.173   4.354  14.803  0.00  0.00    +0.000 C 
ENDBRANCH   4  12
TORSDOF 1
ENDMDL
MODEL 4
REMARK VINA RESULT:      -7.3      0.654      1.193
REMARK  Name = 
REMARK  2 active torsions:
REMARK  status: ('A' for Active; 'I' for Inactive)
REMARK    1  A    between atoms: C_1  and  C_2
REMARK    2  A    between atoms: C_4  and  C_5
REMARK                            x       y       z     vdW  Elec       q    Type
REMARK                         _______ _______ _______ _____ _____    ______ ____
ROOT
ATOM      1  C   UNL     1       7.272   5.568  19.124  0.00  0.00    +0.000 C 
ATOM      2  C   UNL     1       6.150   4.894  18.384  0.00  0.00    +0.000 A 
ATOM      3  C   UNL     1       5.049   4.421  19.107  0.00  0.00    +0.000 A 
ATOM      4  C   UNL     1       4.020   3.770  18.438  0.00  0.00    +0.000 A 
ATOM      5  N   UNL     1       4.031   3.600  17.095  0.00  0.00    +0.000 NA
ATOM      6  C   UNL     1       5.078   4.055  16.386  0.00  0.00    +0.000 A 
ATOM      7  C   UNL     1       5.078   3.863  15.012  0.00  0.00    +0.000 A 
ATOM      8  C   UNL     1       6.133   4.288  14.203  0.00  0.00    +0.000 A 
ATOM      9  C   UNL     1       7.223   4.925  14.777  0.00  0.00    +0.000 A 
ATOM     10  C   UNL     1       7.248   5.135  16.155  0.00  0.00    +0.000 A 
ATOM     11  C   UNL     1       6.180   4.709  16.981  0.00  0.00    +0.000 A 
ENDROOT
BRANCH   4  12
ATOM     12  C   UNL     1       2.855   3.197  19.208  0.00  0.00    +0.000 C 
ATOM     13  C   UNL     1       3.204   2.783  20.636  0.00  0.00    +0.000 C 
ATOM     14  C   UNL     1       1.850   2.675  21.324  0.00  0.00    +0.000 C 
ATOM     15  C   UNL     1       0.934   3.673  20.615  0.00  0.00    +0.000 C 
ATOM     16  C   UNL     1       1.712   4.197  19.410  0.00  0.00    +0.000 C 
ENDBRANCH   4  12
TORSDOF 1
ENDMDL
MODEL 5
REMARK VINA RESULT:      -7.2      1.357      5.639
REMARK  Name = 
REMARK  2 active torsions:
REMARK  status: ('A' for Active; 'I' for Inactive)
REMARK    1  A    between atoms: C_1  and  C_2
REMARK    2  A    between atoms: C_4  and  C_5
REMARK                            x       y       z     vdW  Elec       q    Type
REMARK                         _______ _______ _______ _____ _____    ______ ____
ROOT
ATOM      1  C   UNL     1       2.174   7.469  19.626  0.00  0.00    +0.000 C 
ATOM      2  C   UNL     1       2.946   6.267  19.157  0.00  0.00    +0.000 A 
ATOM      3  C   UNL     1       3.734   6.375  18.006  0.00  0.00    +0.000 A 
ATOM      4  C   UNL     1       4.429   5.263  17.546  0.00  0.00    +0.000 A 
ATOM      5  N   UNL     1       4.393   4.075  18.194  0.00  0.00    +0.000 NA
ATOM      6  C   UNL     1       3.646   3.958  19.304  0.00  0.00    +0.000 A 
ATOM      7  C   UNL     1       3.612   2.730  19.950  0.00  0.00    +0.000 A 
ATOM      8  C   UNL     1       2.849   2.516  21.099  0.00  0.00    +0.000 A 
ATOM      9  C   UNL     1       2.096   3.556  21.625  0.00  0.00    +0.000 A 
ATOM     10  C   UNL     1       2.115   4.801  20.998  0.00  0.00    +0.000 A 
ATOM     11  C   UNL     1       2.888   5.025  19.835  0.00  0.00    +0.000 A 
ENDROOT
BRANCH   4  12
ATOM     12  C   UNL     1       5.233   5.343  16.271  0.00  0.00    +0.000 C 
ATOM     13  C   UNL     1       6.745   5.328  16.493  0.00  0.00    +0.000 C 
ATOM     14  C   UNL     1       7.309   4.969  15.125  0.00  0.00    +0.000 C 
ATOM     15  C   UNL     1       6.246   4.109  14.441  0.00  0.00    +0.000 C 
ATOM     16  C   UNL     1       5.012   4.147  15.340  0.00  0.00    +0.000 C 
ENDBRANCH   4  12
TORSDOF 1
ENDMDL
MODEL 6
REMARK VINA RESULT:      -7.1      1.877      5.796
REMARK  Name = 
REMARK  2 active torsions:
REMARK  status: ('A' for Active; 'I' for Inactive)
REMARK    1  A    between atoms: C_1  and  C_2
REMARK    2  A    between atoms: C_4  and  C_5
REMARK                            x       y       z     vdW  Elec       q    Type
REMARK                         _______ _______ _______ _____ _____    ______ ____
ROOT
ATOM      1  C   UNL     1       3.592   7.271  17.820  0.00  0.00    +0.000 C 
ATOM      2  C   UNL     1       3.836   5.851  17.391  0.00  0.00    +0.000 A 
ATOM      3  C   UNL     1       4.841   5.589  16.454  0.00  0.00    +0.000 A 
ATOM      4  C   UNL     1       5.057   4.284  16.028  0.00  0.00    +0.000 A 
ATOM      5  N   UNL     1       4.340   3.244  16.514  0.00  0.00    +0.000 NA
ATOM      6  C   UNL     1       3.377   3.478  17.419  0.00  0.00    +0.000 A 
ATOM      7  C   UNL     1       2.646   2.400  17.899  0.00  0.00    +0.000 A 
ATOM      8  C   UNL     1       1.616   2.556  18.828  0.00  0.00    +0.000 A 
ATOM      9  C   UNL     1       1.302   3.823  19.297  0.00  0.00    +0.000 A 
ATOM     10  C   UNL     1       2.023   4.924  18.835  0.00  0.00    +0.000 A 
ATOM     11  C   UNL     1       3.071   4.772  17.895  0.00  0.00    +0.000 A 
ENDROOT
BRANCH   4  12
ATOM     12  C   UNL     1       6.093   3.991  14.970  0.00  0.00    +0.000 C 
ATOM     13  C   UNL     1       5.506   3.769  13.577  0.00  0.00    +0.000 C 
ATOM     14  C   UNL     1       6.701   3.942  12.649  0.00  0.00    +0.000 C 
ATOM     15  C   UNL     1       7.643   4.921  13.349  0.00  0.00    +0.000 C 
ATOM     16  C   UNL     1       7.075   5.145  14.749  0.00  0.00    +0.000 C 
ENDBRANCH   4  12
TORSDOF 1
ENDMDL
MODEL 7
REMARK VINA RESULT:      -7.0      1.194      2.906
REMARK  Name = 
REMARK  2 active torsions:
REMARK  status: ('A' for Active; 'I' for Inactive)
REMARK    1  A    between atoms: C_1  and  C_2
REMARK    2  A    between atoms: C_4  and  C_5
REMARK                            x       y       z     vdW  Elec       q    Type
REMARK                         _______ _______ _______ _____ _____    ______ ____
ROOT
ATOM      1  C   UNL     1       5.099   4.498  14.841  0.00  0.00    +0.000 C 
ATOM      2  C   UNL     1       5.081   4.405  16.342  0.00  0.00    +0.000 A 
ATOM      3  C   UNL     1       4.108   3.611  16.959  0.00  0.00    +0.000 A 
ATOM      4  C   UNL     1       4.063   3.540  18.346  0.00  0.00    +0.000 A 
ATOM      5  N   UNL     1       4.953   4.195  19.128  0.00  0.00    +0.000 NA
ATOM      6  C   UNL     1       5.897   4.955  18.549  0.00  0.00    +0.000 A 
ATOM      7  C   UNL     1       6.794   5.628  19.366  0.00  0.00    +0.000 A 
ATOM      8  C   UNL     1       7.795   6.452  18.850  0.00  0.00    +0.000 A 
ATOM      9  C   UNL     1       7.909   6.614  17.476  0.00  0.00    +0.000 A 
ATOM     10  C   UNL     1       7.023   5.946  16.632  0.00  0.00    +0.000 A 
ATOM     11  C   UNL     1       6.008   5.106  17.149  0.00  0.00    +0.000 A 
ENDROOT
BRANCH   4  12
ATOM     12  C   UNL     1       2.981   2.740  19.032  0.00  0.00    +0.000 C 
ATOM     13  C   UNL     1       2.597   3.276  20.410  0.00  0.00    +0.000 C 
ATOM     14  C   UNL     1       1.249   2.627  20.689  0.00  0.00    +0.000 C 
ATOM     15  C   UNL     1       0.594   2.408  19.325  0.00  0.00    +0.000 C 
ATOM     16  C   UNL     1       1.649   2.751  18.276  0.00  0.00    +0.000 C 
ENDBRANCH   4  12
TORSDOF 1
ENDMDL
MODEL 8
REMARK VINA RESULT:      -7.0      1.713      2.207
REMARK  Name = 
REMARK  2 active torsions:
REMARK  status: ('A' for Active; 'I' for Inactive)
REMARK    1  A    between atoms: C_1  and  C_2
REMARK    2  A    between atoms: C_4  and  C_5
REMARK                            x       y       z     vdW  Elec       q    Type
REMARK                         _______ _______ _______ _____ _____    ______ ____
ROOT
ATOM      1  C   UNL     1       3.399   7.608  17.610  0.00  0.00    +0.000 C 
ATOM      2  C   UNL     1       3.645   6.125  17.580  0.00  0.00    +0.000 A 
ATOM      3  C   UNL     1       2.955   5.306  18.480  0.00  0.00    +0.000 A 
ATOM      4  C   UNL     1       3.195   3.937  18.483  0.00  0.00    +0.000 A 
ATOM      5  N   UNL     1       4.062   3.360  17.618  0.00  0.00    +0.000 NA
ATOM      6  C   UNL     1       4.727   4.132  16.744  0.00  0.00    +0.000 A 
ATOM      7  C   UNL     1       5.620   3.525  15.872  0.00  0.00    +0.000 A 
ATOM      8  C   UNL     1       6.365   4.254  14.944  0.00  0.00    +0.000 A 
ATOM      9  C   UNL     1       6.219   5.632  14.879  0.00  0.00    +0.000 A 
ATOM     10  C   UNL     1       5.326   6.268  15.740  0.00  0.00    +0.000 A 
ATOM     11  C   UNL     1       4.565   5.534  16.682  0.00  0.00    +0.000 A 
ENDROOT
BRANCH   4  12
ATOM     12  C   UNL     1       2.508   3.046  19.488  0.00  0.00    +0.000 C 
ATOM     13  C   UNL     1       3.376   2.692  20.694  0.00  0.00    +0.000 C 
ATOM     14  C   UNL     1       2.375   2.201  21.731  0.00  0.00    +0.000 C 
ATOM     15  C   UNL     1       1.069   2.940  21.441  0.00  0.00    +0.000 C 
ATOM     16  C   UNL     1       1.277   3.695  20.130  0.00  0.00    +0.000 C 
ENDBRANCH   4  12
TORSDOF 1
ENDMDL
MODEL 9
REMARK VINA RESULT:      -6.9      1.497      5.581
REMARK  Name = 
REMARK  2 active torsions:
REMARK  status: ('A' for Active; 'I' for Inactive)
REMARK    1  A    between atoms: C_1  and  C_2
REMARK    2  A    between atoms: C_4  and  C_5
REMARK                            x       y       z     vdW  Elec       q    Type
REMARK                         _______ _______ _______ _____ _____    ______ ____
ROOT
ATOM      1  C   UNL     1       7.499   5.664  19.075  0.00  0.00    +0.000 C 
ATOM      2  C   UNL     1       6.539   5.132  18.048  0.00  0.00    +0.000 A 
ATOM      3  C   UNL     1       7.033   4.736  16.800  0.00  0.00    +0.000 A 
ATOM      4  C   UNL     1       6.152   4.271  15.832  0.00  0.00    +0.000 A 
ATOM      5  N   UNL     1       4.823   4.159  16.065  0.00  0.00    +0.000 NA
ATOM      6  C   UNL     1       4.335   4.528  17.260  0.00  0.00    +0.000 A 
ATOM      7  C   UNL     1       2.969   4.417  17.478  0.00  0.00    +0.000 A 
ATOM      8  C   UNL     1       2.376   4.795  18.684  0.00  0.00    +0.000 A 
ATOM      9  C   UNL     1       3.165   5.299  19.708  0.00  0.00    +0.000 A 
ATOM     10  C   UNL     1       4.542   5.417  19.517  0.00  0.00    +0.000 A 
ATOM     11  C   UNL     1       5.149   5.034  18.298  0.00  0.00    +0.000 A 
ENDROOT
BRANCH   4  12
ATOM     12  C   UNL     1       6.657   3.900  14.459  0.00  0.00    +0.000 C 
ATOM     13  C   UNL     1       5.547   3.655  13.438  0.00  0.00    +0.000 C 
ATOM     14  C   UNL     1       6.261   3.747  12.096  0.00  0.00    +0.000 C 
ATOM     15  C   UNL     1       7.431   4.710  12.304  0.00  0.00    +0.000 C 
ATOM     16  C   UNL     1       7.490   5.004  13.801  0.00  0.00    +0.000 C 
ENDBRANCH   4  12
TORSDOF 1
ENDMDL
