MODEL 1
REMARK VINA RESULT:      -7.8      0.000      0.000
REMARK  Name = 
REMARK  6 active torsions:
REMARK  status: ('A' for Active; 'I' for Inactive)
REMARK    1  A    between atoms: C_1  and  C_2
REMARK    2  A    between atoms: C_2  and  C_3
REMARK    3  A    between atoms: C_3  and  C_4
REMARK    4  A    between atoms: C_4  and  C_5
REMARK    5  A    between atoms: N_9  and  N_10
REMARK    6  A    between atoms: N_10  and  C_11
REMARK                            x       y       z     vdW  Elec       q    Type
REMARK                         _______ _______ _______ _____ _____    ______ ____
ROOT
ATOM      1  C   UNL     1       6.600   5.883  17.455  0.00  0.00    +0.000 C 
ATOM      2  C   UNL     1       5.597   6.790  16.722  0.00  0.00    +0.000 C 
ATOM      3  C   UNL     1       4.351   6.759  17.562  0.00  0.00    +0.000 C 
ATOM      4  O   UNL     1       3.426   7.551  17.423  0.00  0.00    +0.000 OA
ATOM      5  N   UNL     1       4.503   5.788  18.520  0.00  0.00    +0.000 N 
ATOM      6  C   UNL     1       5.804   5.357  18.645  0.00  0.00    +0.000 C 
ATOM      7  O   UNL     1       6.305   4.744  19.578  0.00  0.00    +0.000 OA
ENDROOT
BRANCH   1   9
ATOM      8  C   UNL     1       7.844   8.163  17.649  0.00  0.00    +0.000 C 
ATOM      9  C   UNL     1       7.772   6.701  18.062  0.00  0.00    +0.000 C 
ENDBRANCH   1   9
BRANCH   1  10
ATOM     10  C   UNL     1       7.123   4.710  16.595  0.00  0.00    +0.000 C 
ATOM     11  C   UNL     1       6.095   4.017  15.708  0.00  0.00    +0.000 C 
ENDBRANCH   1  10
BRANCH   5  12
ATOM     12  N   UNL     1       3.655   5.835  19.650  0.00  0.00    +0.000 N 
ATOM     13  H   UNL     1       4.199   5.885  20.509  0.00  0.00    +0.000 HD
BRANCH  12  14
ATOM     14  C   UNL     1       2.656   4.836  19.734  0.00  0.00    +0.000 A 
ATOM     15  C   UNL     1       2.163   4.285  18.539  0.00  0.00    +0.000 A 
ATOM     16  C   UNL     1       1.215   3.261  18.551  0.00  0.00    +0.000 A 
ATOM     17  C   UNL     1       0.766   2.750  19.765  0.00  0.00    +0.000 A 
ATOM     18  C   UNL     1       1.271   3.256  20.960  0.00  0.00    +0.000 A 
ATOM     19  C   UNL     1       2.222   4.284  20.944  0.00  0.00    +0.000 A 
ENDBRANCH  12  14
ENDBRANCH   5  12
TORSDOF 4
ENDMDL
MODEL 2
REMARK VINA RESULT:      -7.7      0.140      1.142
REMARK  Name = 
REMARK  6 active torsions:
REMARK  status: ('A' for Active; 'I' for Inactive)
REMARK    1  A    between atoms: C_1  and  C_2
REMARK    2  A    between atoms: C_2  and  C_3
REMARK    3  A    between atoms: C_3  and  C_4
REMARK    4  A    between atoms: C_4  and  C_5
REMARK    5  A    between atoms: N_9  and  N_10
REMARK    6  A    between atoms: N_10  and  C_11
REMARK                            x       y       z     vdW  Elec       q    Type
REMARK                         _______ _______ _______ _____ _____    ______ ____
ROOT
ATOM      1  C   UNL     1       6.584   5.924  17.403  0.00  0.00    +0.000 C 
ATOM      2  C   UNL     1       5.541   6.835  16.732  0.00  0.00    +0.000 C 
ATOM      3  C   UNL     1       4.318   6.740  17.602  0.00  0.00    +0.000 C 
ATOM      4  O   UNL     1       3.372   7.513  17.517  0.00  0.00    +0.000 OA
ATOM      5  N   UNL     1       4.519   5.736  18.516  0.00  0.00    +0.000 N 
ATOM      6  C   UNL     1       5.833   5.333  18.591  0.00  0.00    +0.000 C 
ATOM      7  O   UNL     1       6.373   4.696  19.486  0.00  0.00    +0.000 OA
ENDROOT
BRANCH   1   9
ATOM      8  C   UNL     1       7.785   8.223  17.646  0.00  0.00    +0.000 C 
ATOM      9  C   UNL     1       7.752   6.748  18.013  0.00  0.00    +0.000 C 
ENDBRANCH   1   9
BRANCH   1  10
ATOM     10  C   UNL     1       7.113   4.800  16.485  0.00  0.00    +0.000 C 
ATOM     11  C   UNL     1       6.064   4.043  15.677  0.00  0.00    +0.000 C 
ENDBRANCH   1  10
BRANCH   5  12
ATOM     12  N   UNL     1       3.700   5.718  19.669  0.00  0.00    +0.000 N 
ATOM     13  H   UNL     1       4.265   5.758  20.515  0.00  0.00    +0.000 HD
BRANCH  12  14
ATOM     14  C   UNL     1       2.737   4.683  19.744  0.00  0.00    +0.000 A 
ATOM     15  C   UNL     1       2.316   4.255  21.015  0.00  0.00    +0.000 A 
ATOM     16  C   UNL     1       1.333   3.276  21.160  0.00  0.00    +0.000 A 
ATOM     17  C   UNL     1       0.731   2.728  20.031  0.00  0.00    +0.000 A 
ATOM     18  C   UNL     1       1.107   3.168  18.763  0.00  0.00    +0.000 A 
ATOM     19  C   UNL     1       2.094   4.150  18.621  0.00  0.00    +0.000 A 
ENDBRANCH  12  14
ENDBRANCH   5  12
TORSDOF 4
ENDMDL
MODEL 3
REMARK VINA RESULT:      -7.2      1.756      2.995
REMARK  Name = 
REMARK  6 active torsions:
REMARK  status: ('A' for Active; 'I' for Inactive)
REMARK    1  A    between atoms: C_1  and  C_2
REMARK    2  A    between atoms: C_2  and  C_3
REMARK    3  A    between atoms: C_3  and  C_4
REMARK    4  A    between atoms: C_4  and  C_5
REMARK    5  A    between atoms: N_9  and  N_10
REMARK    6  A    between atoms: N_10  and  C_11
REMARK                            x       y       z     vdW  Elec       q    Type
REMARK                         _______ _______ _______ _____ _____    ______ ____
ROOT
ATOM      1  C   UNL     1       6.112   5.081  16.229  0.00  0.00    +0.000 C 
ATOM      2  C   UNL     1       7.110   5.640  17.258  0.00  0.00    +0.000 C 
ATOM      3  C   UNL     1       6.696   5.042  18.574  0.00  0.00    +0.000 C 
ATOM      4  O   UNL     1       7.402   5.067  19.574  0.00  0.00    +0.000 OA
ATOM      5  N   UNL     1       5.487   4.417  18.399  0.00  0.00    +0.000 N 
ATOM      6  C   UNL     1       5.160   4.240  17.074  0.00  0.00    +0.000 C 
ATOM      7  O   UNL     1       4.329   3.477  16.601  0.00  0.00    +0.000 OA
ENDROOT
BRANCH   1   9
ATOM      8  C   UNL     1       6.271   4.093  13.824  0.00  0.00    +0.000 C 
ATOM      9  C   UNL     1       6.796   4.086  15.251  0.00  0.00    +0.000 C 
ENDBRANCH   1   9
BRANCH   1  10
ATOM     10  C   UNL     1       5.331   6.172  15.462  0.00  0.00    +0.000 C 
ATOM     11  C   UNL     1       4.527   7.147  16.314  0.00  0.00    +0.000 C 
ENDBRANCH   1  10
BRANCH   5  12
ATOM     12  N   UNL     1       5.090   3.464  19.365  0.00  0.00    +0.000 N 
ATOM     13  H   UNL     1       5.304   2.519  19.052  0.00  0.00    +0.000 HD
BRANCH  12  14
ATOM     14  C   UNL     1       3.758   3.558  19.837  0.00  0.00    +0.000 A 
ATOM     15  C   UNL     1       3.212   4.837  20.040  0.00  0.00    +0.000 A 
ATOM     16  C   UNL     1       1.891   5.001  20.455  0.00  0.00    +0.000 A 
ATOM     17  C   UNL     1       1.082   3.885  20.645  0.00  0.00    +0.000 A 
ATOM     18  C   UNL     1       1.593   2.611  20.411  0.00  0.00    +0.000 A 
ATOM     19  C   UNL     1       2.920   2.449  19.996  0.00  0.00    +0.000 A 
ENDBRANCH  12  14
ENDBRANCH   5  12
TORSDOF 4
ENDMDL
MODEL 4
REMARK VINA RESULT:      -7.2      1.634      2.773
REMARK  Name = 
REMARK  6 active torsions:
REMARK  status: ('A' for Active; 'I' for Inactive)
REMARK    1  A    between atoms: C_1  and  C_2
REMARK    2  A    between atoms: C_2  and  C_3
REMARK    3  A    between atoms: C_3  and  C_4
REMARK    4  A    between atoms: C_4  and  C_5
REMARK    5  A    between atoms: N_9  and  N_10
REMARK    6  A    between atoms: N_10  and  C_11
REMARK                            x       y       z     vdW  Elec       q    Type
REMARK                         _______ _______ _______ _____ _____    ______ ____
ROOT
ATOM      1  C   UNL     1       6.233   5.461  16.534  0.00  0.00    +0.000 C 
ATOM      2  C   UNL     1       7.060   6.010  17.710  0.00  0.00    +0.000 C 
ATOM      3  C   UNL     1       6.570   5.263  18.918  0.00  0.00    +0.000 C 
ATOM      4  O   UNL     1       7.162   5.258  19.991  0.00  0.00    +0.000 OA
ATOM      5  N   UNL     1       5.451   4.553  18.560  0.00  0.00    +0.000 N 
ATOM      6  C   UNL     1       5.283   4.469  17.196  0.00  0.00    +0.000 C 
ATOM      7  O   UNL     1       4.582   3.682  16.574  0.00  0.00    +0.000 OA
ENDROOT
BRANCH   1   9
ATOM      8  C   UNL     1       6.671   4.625  14.106  0.00  0.00    +0.000 C 
ATOM      9  C   UNL     1       7.108   4.621  15.563  0.00  0.00    +0.000 C 
ENDBRANCH   1   9
BRANCH   1  10
ATOM     10  C   UNL     1       5.436   6.545  15.773  0.00  0.00    +0.000 C 
ATOM     11  C   UNL     1       4.324   7.235  16.556  0.00  0.00    +0.000 C 
ENDBRANCH   1  10
BRANCH   5  12
ATOM     12  N   UNL     1       5.048   3.487  19.396  0.00  0.00    +0.000 N 
ATOM     13  H   UNL     1       5.392   2.598  19.040  0.00  0.00    +0.000 HD
BRANCH  12  14
ATOM     14  C   UNL     1       3.669   3.415  19.709  0.00  0.00    +0.000 A 
ATOM     15  C   UNL     1       2.968   2.245  19.368  0.00  0.00    +0.000 A 
ATOM     16  C   UNL     1       1.621   2.089  19.693  0.00  0.00    +0.000 A 
ATOM     17  C   UNL     1       0.958   3.091  20.394  0.00  0.00    +0.000 A 
ATOM     18  C   UNL     1       1.645   4.241  20.776  0.00  0.00    +0.000 A 
ATOM     19  C   UNL     1       2.997   4.396  20.447  0.00  0.00    +0.000 A 
ENDBRANCH  12  14
ENDBRANCH   5  12
TORSDOF 4
ENDMDL
MODEL 5
REMARK VINA RESULT:      -7.1      0.869      2.874
REMARK  Name = 
REMARK  6 active torsions:
REMARK  status: ('A' for Active; 'I' for Inactive)
REMARK    1  A    between atoms: C_1  and  C_2
REMARK    2  A    between atoms: C_2  and  C_3
REMARK    3  A    between atoms: C_3  and  C_4
REMARK    4  A    between atoms: C_4  and  C_5
REMARK    5  A    between atoms: N_9  and  N_10
REMARK    6  A    between atoms: N_10  and  C_11
REMARK                            x       y       z     vdW  Elec       q    Type
REMARK                         _______ _______ _______ _____ _____    ______ ____
ROOT
ATOM      1  C   UNL     1       5.998   5.690  16.964  0.00  0.00    +0.000 C 
ATOM      2  C   UNL     1       6.431   4.447  17.761  0.00  0.00    +0.000 C 
ATOM      3  C   UNL     1       5.545   4.430  18.975  0.00  0.00    +0.000 C 
ATOM      4  O   UNL     1       5.434   3.458  19.713  0.00  0.00    +0.000 OA
ATOM      5  N   UNL     1       4.855   5.616  19.020  0.00  0.00    +0.000 N 
ATOM      6  C   UNL     1       4.918   6.319  17.837  0.00  0.00    +0.000 C 
ATOM      7  O   UNL     1       4.190   7.229  17.466  0.00  0.00    +0.000 OA
ENDROOT
BRANCH   1   9
ATOM      8  C   UNL     1       5.937   4.170  14.849  0.00  0.00    +0.000 C 
ATOM      9  C   UNL     1       5.290   5.298  15.637  0.00  0.00    +0.000 C 
ENDBRANCH   1   9
BRANCH   1  10
ATOM     10  C   UNL     1       7.142   6.698  16.710  0.00  0.00    +0.000 C 
ATOM     11  C   UNL     1       7.743   7.356  17.948  0.00  0.00    +0.000 C 
ENDBRANCH   1  10
BRANCH   5  12
ATOM     12  N   UNL     1       3.694   5.677  19.824  0.00  0.00    +0.000 N 
ATOM     13  H   UNL     1       3.940   5.740  20.810  0.00  0.00    +0.000 HD
BRANCH  12  14
ATOM     14  C   UNL     1       2.717   4.676  19.603  0.00  0.00    +0.000 A 
ATOM     15  C   UNL     1       2.159   4.031  20.719  0.00  0.00    +0.000 A 
ATOM     16  C   UNL     1       1.155   3.073  20.574  0.00  0.00    +0.000 A 
ATOM     17  C   UNL     1       0.671   2.765  19.306  0.00  0.00    +0.000 A 
ATOM     18  C   UNL     1       1.185   3.423  18.190  0.00  0.00    +0.000 A 
ATOM     19  C   UNL     1       2.192   4.383  18.339  0.00  0.00    +0.000 A 
ENDBRANCH  12  14
ENDBRANCH   5  12
TORSDOF 4
ENDMDL
MODEL 6
REMARK VINA RESULT:      -7.1      0.925      1.135
REMARK  Name = 
REMARK  6 active torsions:
REMARK  status: ('A' for Active; 'I' for Inactive)
REMARK    1  A    between atoms: C_1  and  C_2
REMARK    2  A    between atoms: C_2  and  C_3
REMARK    3  A    between atoms: C_3  and  C_4
REMARK    4  A    between atoms: C_4  and  C_5
REMARK    5  A    between atoms: N_9  and  N_10
REMARK    6  A    between atoms: N_10  and  C_11
REMARK                            x       y       z     vdW  Elec       q    Type
REMARK                         _______ _______ _______ _____ _____    ______ ____
ROOT
ATOM      1  C   UNL     1       5.892   5.368  16.666  0.00  0.00    +0.000 C 
ATOM      2  C   UNL     1       4.902   6.493  16.319  0.00  0.00    +0.000 C 
ATOM      3  C   UNL     1       4.025   6.634  17.531  0.00  0.00    +0.000 C 
ATOM      4  O   UNL     1       3.282   7.590  17.716  0.00  0.00    +0.000 OA
ATOM      5  N   UNL     1       4.292   5.587  18.378  0.00  0.00    +0.000 N 
ATOM      6  C   UNL     1       5.449   4.915  18.053  0.00  0.00    +0.000 C 
ATOM      7  O   UNL     1       6.100   4.157  18.759  0.00  0.00    +0.000 OA
ENDROOT
BRANCH   1   9
ATOM      8  C   UNL     1       7.455   7.266  17.526  0.00  0.00    +0.000 C 
ATOM      9  C   UNL     1       7.337   5.912  16.843  0.00  0.00    +0.000 C 
ENDBRANCH   1   9
BRANCH   1  10
ATOM     10  C   UNL     1       5.860   4.182  15.675  0.00  0.00    +0.000 C 
ATOM     11  C   UNL     1       6.323   4.482  14.253  0.00  0.00    +0.000 C 
ENDBRANCH   1  10
BRANCH   5  12
ATOM     12  N   UNL     1       3.894   5.710  19.729  0.00  0.00    +0.000 N 
ATOM     13  H   UNL     1       4.705   5.789  20.339  0.00  0.00    +0.000 HD
BRANCH  12  14
ATOM     14  C   UNL     1       2.982   4.740  20.210  0.00  0.00    +0.000 A 
ATOM     15  C   UNL     1       1.656   4.784  19.748  0.00  0.00    +0.000 A 
ATOM     16  C   UNL     1       0.719   3.829  20.143  0.00  0.00    +0.000 A 
ATOM     17  C   UNL     1       1.104   2.791  20.987  0.00  0.00    +0.000 A 
ATOM     18  C   UNL     1       2.424   2.708  21.425  0.00  0.00    +0.000 A 
ATOM     19  C   UNL     1       3.361   3.669  21.028  0.00  0.00    +0.000 A 
ENDBRANCH  12  14
ENDBRANCH   5  12
TORSDOF 4
ENDMDL
MODEL 7
REMARK VINA RESULT:      -7.0      0.902      2.646
REMARK  Name = 
REMARK  6 active torsions:
REMARK  status: ('A' for Active; 'I' for Inactive)
REMARK    1  A    between atoms: C_1  and  C_2
REMARK    2  A    between atoms: C_2  and  C_3
REMARK    3  A    between atoms: C_3  and  C_4
REMARK    4  A    between atoms: C_4  and  C_5
REMARK    5  A    between atoms: N_9  and  N_10
REMARK    6  A    between atoms: N_10  and  C_11
REMARK                            x       y       z     vdW  Elec       q    Type
REMARK                         _______ _______ _______ _____ _____    ______ ____
ROOT
ATOM      1  C   UNL     1       5.958   5.651  17.021  0.00  0.00    +0.000 C 
ATOM      2  C   UNL     1       6.344   4.393  17.818  0.00  0.00    +0.000 C 
ATOM      3  C   UNL     1       5.446   4.399  19.023  0.00  0.00    +0.000 C 
ATOM      4  O   UNL     1       5.299   3.428  19.756  0.00  0.00    +0.000 OA
ATOM      5  N   UNL     1       4.793   5.605  19.066  0.00  0.00    +0.000 N 
ATOM      6  C   UNL     1       4.890   6.310  17.887  0.00  0.00    +0.000 C 
ATOM      7  O   UNL     1       4.193   7.243  17.512  0.00  0.00    +0.000 OA
ENDROOT
BRANCH   1   9
ATOM      8  C   UNL     1       5.905   4.183  14.869  0.00  0.00    +0.000 C 
ATOM      9  C   UNL     1       5.250   5.286  15.686  0.00  0.00    +0.000 C 
ENDBRANCH   1   9
BRANCH   1  10
ATOM     10  C   UNL     1       7.134   6.624  16.782  0.00  0.00    +0.000 C 
ATOM     11  C   UNL     1       7.768   7.230  18.030  0.00  0.00    +0.000 C 
ENDBRANCH   1  10
BRANCH   5  12
ATOM     12  N   UNL     1       3.627   5.698  19.860  0.00  0.00    +0.000 N 
ATOM     13  H   UNL     1       3.866   5.759  20.848  0.00  0.00    +0.000 HD
BRANCH  12  14
ATOM     14  C   UNL     1       2.627   4.722  19.633  0.00  0.00    +0.000 A 
ATOM     15  C   UNL     1       2.243   4.457  18.308  0.00  0.00    +0.000 A 
ATOM     16  C   UNL     1       1.300   3.473  18.011  0.00  0.00    +0.000 A 
ATOM     17  C   UNL     1       0.747   2.714  19.038  0.00  0.00    +0.000 A 
ATOM     18  C   UNL     1       1.143   2.936  20.355  0.00  0.00    +0.000 A 
ATOM     19  C   UNL     1       2.089   3.925  20.649  0.00  0.00    +0.000 A 
ENDBRANCH  12  14
ENDBRANCH   5  12
TORSDOF 4
ENDMDL
MODEL 8
REMARK VINA RESULT:      -6.9      1.974      5.567
REMARK  Name = 
REMARK  6 active torsions:
REMARK  status: ('A' for Active; 'I' for Inactive)
REMARK    1  A    between atoms: C_1  and  C_2
REMARK    2  A    between atoms: C_2  and  C_3
REMARK    3  A    between atoms: C_3  and  C_4
REMARK    4  A    between atoms: C_4  and  C_5
REMARK    5  A    between atoms: N_9  and  N_10
REMARK    6  A    between atoms: N_10  and  C_11
REMARK                            x       y       z     vdW  Elec       q    Type
REMARK                         _______ _______ _______ _____ _____    ______ ____
ROOT
ATOM      1  C   UNL     1       2.503   5.289  19.621  0.00  0.00    +0.000 C 
ATOM      2  C   UNL     1       1.580   4.592  18.606  0.00  0.00    +0.000 C 
ATOM      3  C   UNL     1       2.503   3.836  17.691  0.00  0.00    +0.000 C 
ATOM      4  O   UNL     1       2.117   2.971  16.913  0.00  0.00    +0.000 OA
ATOM      5  N   UNL     1       3.791   4.219  17.968  0.00  0.00    +0.000 N 
ATOM      6  C   UNL     1       3.903   4.908  19.155  0.00  0.00    +0.000 C 
ATOM      7  O   UNL     1       4.916   5.114  19.809  0.00  0.00    +0.000 OA
ENDROOT
BRANCH   1   9
ATOM      8  C   UNL     1       1.522   3.407  21.132  0.00  0.00    +0.000 C 
ATOM      9  C   UNL     1       2.353   4.678  21.042  0.00  0.00    +0.000 C 
ENDBRANCH   1   9
BRANCH   1  10
ATOM     10  C   UNL     1       2.345   6.826  19.655  0.00  0.00    +0.000 C 
ATOM     11  C   UNL     1       2.569   7.553  18.333  0.00  0.00    +0.000 C 
ENDBRANCH   1  10
BRANCH   5  12
ATOM     12  N   UNL     1       4.840   3.379  17.528  0.00  0.00    +0.000 N 
ATOM     13  H   UNL     1       5.420   3.083  18.311  0.00  0.00    +0.000 HD
BRANCH  12  14
ATOM     14  C   UNL     1       5.631   3.862  16.458  0.00  0.00    +0.000 A 
ATOM     15  C   UNL     1       5.137   3.725  15.149  0.00  0.00    +0.000 A 
ATOM     16  C   UNL     1       5.843   4.225  14.055  0.00  0.00    +0.000 A 
ATOM     17  C   UNL     1       7.044   4.899  14.255  0.00  0.00    +0.000 A 
ATOM     18  C   UNL     1       7.531   5.078  15.548  0.00  0.00    +0.000 A 
ATOM     19  C   UNL     1       6.821   4.575  16.644  0.00  0.00    +0.000 A 
ENDBRANCH  12  14
ENDBRANCH   5  12
TORSDOF 4
ENDMDL
MODEL 9
REMARK VINA RESULT:      -6.9      1.712      2.983
REMARK  Name = 
REMARK  6 active torsions:
REMARK  status: ('A' for Active; 'I' for Inactive)
REMARK    1  A    between atoms: C_1  and  C_2
REMARK    2  A    between atoms: C_2  and  C_3
REMARK    3  A    between atoms: C_3  and  C_4
REMARK    4  A    between atoms: C_4  and  C_5
REMARK    5  A    between atoms: N_9  and  N_10
REMARK    6  A    between atoms: N_10  and  C_11
REMARK                            x       y       z     vdW  Elec       q    Type
REMARK                         _______ _______ _______ _____ _____    ______ ____
ROOT
ATOM      1  C   UNL     1       6.081   5.412  16.629  0.00  0.00    +0.000 C 
ATOM      2  C   UNL     1       6.741   5.928  17.919  0.00  0.00    +0.000 C 
ATOM      3  C   UNL     1       6.253   5.011  19.005  0.00  0.00    +0.000 C 
ATOM      4  O   UNL     1       6.757   4.964  20.122  0.00  0.00    +0.000 OA
ATOM      5  N   UNL     1       5.261   4.219  18.485  0.00  0.00    +0.000 N 
ATOM      6  C   UNL     1       5.211   4.256  17.110  0.00  0.00    +0.000 C 
ATOM      7  O   UNL     1       4.662   3.462  16.357  0.00  0.00    +0.000 OA
ENDROOT
BRANCH   1   9
ATOM      8  C   UNL     1       6.773   4.824  14.187  0.00  0.00    +0.000 C 
ATOM      9  C   UNL     1       7.124   4.780  15.666  0.00  0.00    +0.000 C 
ENDBRANCH   1   9
BRANCH   1  10
ATOM     10  C   UNL     1       5.219   6.470  15.903  0.00  0.00    +0.000 C 
ATOM     11  C   UNL     1       4.159   7.167  16.748  0.00  0.00    +0.000 C 
ENDBRANCH   1  10
BRANCH   5  12
ATOM     12  N   UNL     1       4.927   3.034  19.180  0.00  0.00    +0.000 N 
ATOM     13  H   UNL     1       5.187   2.211  18.639  0.00  0.00    +0.000 HD
BRANCH  12  14
ATOM     14  C   UNL     1       3.599   2.934  19.659  0.00  0.00    +0.000 A 
ATOM     15  C   UNL     1       3.378   3.056  21.042  0.00  0.00    +0.000 A 
ATOM     16  C   UNL     1       2.090   3.018  21.575  0.00  0.00    +0.000 A 
ATOM     17  C   UNL     1       0.994   2.887  20.726  0.00  0.00    +0.000 A 
ATOM     18  C   UNL     1       1.190   2.804  19.349  0.00  0.00    +0.000 A 
ATOM     19  C   UNL     1       2.484   2.842  18.818  0.00  0.00    +0.000 A 
ENDBRANCH  12  14
ENDBRANCH   5  12
TORSDOF 4
ENDMDL
