MODEL 1
REMARK VINA RESULT:      -7.5      0.000      0.000
REMARK  Name = 
REMARK  6 active torsions:
REMARK  status: ('A' for Active; 'I' for Inactive)
REMARK    1  A    between atoms: C_1  and  C_2
REMARK    2  A    between atoms: C_2  and  C_3
REMARK    3  A    between atoms: C_6  and  C_7
REMARK    4  A    between atoms: C_13  and  S_14
REMARK    5  A    between atoms: S_14  and  C_15
REMARK    6  A    between atoms: C_15  and  C_16
REMARK                            x       y       z     vdW  Elec       q    Type
REMARK                         _______ _______ _______ _____ _____    ______ ____
ROOT
ATOM      1  C   UNL     1       2.823   6.896  18.485  0.00  0.00    +0.000 A 
ATOM      2  C   UNL     1       3.915   7.522  17.673  0.00  0.00    +0.000 A 
ATOM      3  C   UNL     1       4.675   6.719  16.920  0.00  0.00    +0.000 A 
ATOM      4  C   UNL     1       4.434   5.331  16.938  0.00  0.00    +0.000 A 
ATOM      5  N   UNL     1       5.008   4.331  16.308  0.00  0.00    +0.000 NA
ATOM      6  N   UNL     1       4.392   3.170  16.721  0.00  0.00    +0.000 NA
ATOM      7  C   UNL     1       3.457   3.499  17.586  0.00  0.00    +0.000 A 
ATOM      8  N   UNL     1       3.429   4.864  17.765  0.00  0.00    +0.000 N 
ATOM      9  N   UNL     1       2.598   5.615  18.562  0.00  0.00    +0.000 NA
ENDROOT
BRANCH   1  13
ATOM     10  C   UNL     1       0.396   9.674  20.699  0.00  0.00    +0.000 A 
ATOM     11  C   UNL     1       0.819   8.482  21.296  0.00  0.00    +0.000 A 
ATOM     12  C   UNL     1       1.607   7.575  20.586  0.00  0.00    +0.000 A 
ATOM     13  C   UNL     1       1.970   7.844  19.260  0.00  0.00    +0.000 A 
ATOM     14  C   UNL     1       1.558   9.039  18.660  0.00  0.00    +0.000 A 
ATOM     15  C   UNL     1       0.772   9.946  19.376  0.00  0.00    +0.000 A 
BRANCH  10  17
ATOM     16  C   UNL     1      -0.600  10.198  22.923  0.00  0.00    +0.000 C 
ATOM     17  C   UNL     1      -0.380  10.687  21.500  0.00  0.00    +0.000 C 
ENDBRANCH  10  17
ENDBRANCH   1  13
BRANCH   7  18
ATOM     18  S   UNL     1       2.470   2.358  18.431  0.00  0.00    +0.000 S 
BRANCH  18  19
ATOM     19  C   UNL     1       2.950   2.623  20.157  0.00  0.00    +0.000 C 
BRANCH  19  20
ATOM     20  C   UNL     1       1.818   3.058  21.067  0.00  0.00    +0.000 C 
ATOM     21  N   UNL     1       0.779   3.748  20.509  0.00  0.00    +0.000 N 
ATOM     22  O   UNL     1       1.763   2.725  22.249  0.00  0.00    +0.000 OA
ATOM     23  H   UNL     1       0.912   4.255  19.641  0.00  0.00    +0.000 HD
ATOM     24  H   UNL     1       0.077   4.100  21.145  0.00  0.00    +0.000 HD
ENDBRANCH  19  20
ENDBRANCH  18  19
ENDBRANCH   7  18
TORSDOF 5
ENDMDL
MODEL 2
REMARK VINA RESULT:      -7.5      2.682      3.954
REMARK  Name = 
REMARK  6 active torsions:
REMARK  status: ('A' for Active; 'I' for Inactive)
REMARK    1  A    between atoms: C_1  and  C_2
REMARK    2  A    between atoms: C_2  and  C_3
REMARK    3  A    between atoms: C_6  and  C_7
REMARK    4  A    between atoms: C_13  and  S_14
REMARK    5  A    between atoms: S_14  and  C_15
REMARK    6  A    between atoms: C_15  and  C_16
REMARK                            x       y       z     vdW  Elec       q    Type
REMARK                         _______ _______ _______ _____ _____    ______ ____
ROOT
ATOM      1  C   UNL     1       2.475   6.514  19.588  0.00  0.00    +0.000 A 
ATOM      2  C   UNL     1       1.784   5.636  20.586  0.00  0.00    +0.000 A 
ATOM      3  C   UNL     1       2.274   4.408  20.786  0.00  0.00    +0.000 A 
ATOM      4  C   UNL     1       3.394   3.987  20.043  0.00  0.00    +0.000 A 
ATOM      5  N   UNL     1       4.075   2.863  20.038  0.00  0.00    +0.000 NA
ATOM      6  N   UNL     1       5.065   2.979  19.088  0.00  0.00    +0.000 NA
ATOM      7  C   UNL     1       4.962   4.173  18.547  0.00  0.00    +0.000 A 
ATOM      8  N   UNL     1       3.919   4.869  19.115  0.00  0.00    +0.000 N 
ATOM      9  N   UNL     1       3.485   6.146  18.852  0.00  0.00    +0.000 NA
ENDROOT
BRANCH   1  13
ATOM     10  C   UNL     1       0.831  10.472  19.213  0.00  0.00    +0.000 A 
ATOM     11  C   UNL     1       1.466   9.870  18.121  0.00  0.00    +0.000 A 
ATOM     12  C   UNL     1       2.002   8.586  18.234  0.00  0.00    +0.000 A 
ATOM     13  C   UNL     1       1.922   7.893  19.448  0.00  0.00    +0.000 A 
ATOM     14  C   UNL     1       1.280   8.485  20.541  0.00  0.00    +0.000 A 
ATOM     15  C   UNL     1       0.741   9.770  20.423  0.00  0.00    +0.000 A 
BRANCH  10  17
ATOM     16  C   UNL     1      -1.079  11.915  19.909  0.00  0.00    +0.000 C 
ATOM     17  C   UNL     1       0.178  11.821  19.058  0.00  0.00    +0.000 C 
ENDBRANCH  10  17
ENDBRANCH   1  13
BRANCH   7  18
ATOM     18  S   UNL     1       5.953   4.740  17.247  0.00  0.00    +0.000 S 
BRANCH  18  19
ATOM     19  C   UNL     1       7.613   4.695  17.970  0.00  0.00    +0.000 C 
BRANCH  19  20
ATOM     20  C   UNL     1       7.834   5.678  19.103  0.00  0.00    +0.000 C 
ATOM     21  N   UNL     1       8.195   6.955  18.779  0.00  0.00    +0.000 N 
ATOM     22  O   UNL     1       7.603   5.389  20.276  0.00  0.00    +0.000 OA
ATOM     23  H   UNL     1       8.640   7.148  17.889  0.00  0.00    +0.000 HD
ATOM     24  H   UNL     1       8.418   7.571  19.549  0.00  0.00    +0.000 HD
ENDBRANCH  19  20
ENDBRANCH  18  19
ENDBRANCH   7  18
TORSDOF 5
ENDMDL
MODEL 3
REMARK VINA RESULT:      -7.4      2.691      3.960
REMARK  Name = 
REMARK  6 active torsions:
REMARK  status: ('A' for Active; 'I' for Inactive)
REMARK    1  A    between atoms: C_1  and  C_2
REMARK    2  A    between atoms: C_2  and  C_3
REMARK    3  A    between atoms: C_6  and  C_7
REMARK    4  A    between atoms: C_13  and  S_14
REMARK    5  A    between atoms: S_14  and  C_15
REMARK    6  A    between atoms: C_15  and  C_16
REMARK                            x       y       z     vdW  Elec       q    Type
REMARK                         _______ _______ _______ _____ _____    ______ ____
ROOT
ATOM      1  C   UNL     1       2.456   6.506  19.575  0.00  0.00    +0.000 A 
ATOM      2  C   UNL     1       1.762   5.646  20.587  0.00  0.00    +0.000 A 
ATOM      3  C   UNL     1       2.231   4.409  20.786  0.00  0.00    +0.000 A 
ATOM      4  C   UNL     1       3.332   3.963  20.028  0.00  0.00    +0.000 A 
ATOM      5  N   UNL     1       3.990   2.826  20.018  0.00  0.00    +0.000 NA
ATOM      6  N   UNL     1       4.968   2.918  19.052  0.00  0.00    +0.000 NA
ATOM      7  C   UNL     1       4.880   4.111  18.507  0.00  0.00    +0.000 A 
ATOM      8  N   UNL     1       3.860   4.830  19.088  0.00  0.00    +0.000 N 
ATOM      9  N   UNL     1       3.447   6.115  18.825  0.00  0.00    +0.000 NA
ENDROOT
BRANCH   1  13
ATOM     10  C   UNL     1       0.984  10.526  19.148  0.00  0.00    +0.000 A 
ATOM     11  C   UNL     1       0.807   9.838  20.354  0.00  0.00    +0.000 A 
ATOM     12  C   UNL     1       1.282   8.534  20.501  0.00  0.00    +0.000 A 
ATOM     13  C   UNL     1       1.927   7.895  19.436  0.00  0.00    +0.000 A 
ATOM     14  C   UNL     1       2.115   8.580  18.231  0.00  0.00    +0.000 A 
ATOM     15  C   UNL     1       1.642   9.887  18.088  0.00  0.00    +0.000 A 
BRANCH  10  17
ATOM     16  C   UNL     1       1.643  12.810  18.398  0.00  0.00    +0.000 C 
ATOM     17  C   UNL     1       0.547  11.963  19.027  0.00  0.00    +0.000 C 
ENDBRANCH  10  17
ENDBRANCH   1  13
BRANCH   7  18
ATOM     18  S   UNL     1       5.863   4.653  17.191  0.00  0.00    +0.000 S 
BRANCH  18  19
ATOM     19  C   UNL     1       7.525   4.644  17.910  0.00  0.00    +0.000 C 
BRANCH  19  20
ATOM     20  C   UNL     1       7.753   5.692  18.982  0.00  0.00    +0.000 C 
ATOM     21  N   UNL     1       8.082   6.955  18.580  0.00  0.00    +0.000 N 
ATOM     22  O   UNL     1       7.557   5.463  20.174  0.00  0.00    +0.000 OA
ATOM     23  H   UNL     1       8.501   7.107  17.670  0.00  0.00    +0.000 HD
ATOM     24  H   UNL     1       8.311   7.617  19.310  0.00  0.00    +0.000 HD
ENDBRANCH  19  20
ENDBRANCH  18  19
ENDBRANCH   7  18
TORSDOF 5
ENDMDL
MODEL 4
REMARK VINA RESULT:      -7.4      2.870      4.244
REMARK  Name = 
REMARK  6 active torsions:
REMARK  status: ('A' for Active; 'I' for Inactive)
REMARK    1  A    between atoms: C_1  and  C_2
REMARK    2  A    between atoms: C_2  and  C_3
REMARK    3  A    between atoms: C_6  and  C_7
REMARK    4  A    between atoms: C_13  and  S_14
REMARK    5  A    between atoms: S_14  and  C_15
REMARK    6  A    between atoms: C_15  and  C_16
REMARK                            x       y       z     vdW  Elec       q    Type
REMARK                         _______ _______ _______ _____ _____    ______ ____
ROOT
ATOM      1  C   UNL     1       2.456   6.369  19.698  0.00  0.00    +0.000 A 
ATOM      2  C   UNL     1       1.603   5.459  20.527  0.00  0.00    +0.000 A 
ATOM      3  C   UNL     1       2.051   4.221  20.762  0.00  0.00    +0.000 A 
ATOM      4  C   UNL     1       3.283   3.821  20.208  0.00  0.00    +0.000 A 
ATOM      5  N   UNL     1       3.954   2.693  20.278  0.00  0.00    +0.000 NA
ATOM      6  N   UNL     1       5.094   2.838  19.518  0.00  0.00    +0.000 NA
ATOM      7  C   UNL     1       5.086   4.052  19.013  0.00  0.00    +0.000 A 
ATOM      8  N   UNL     1       3.961   4.733  19.419  0.00  0.00    +0.000 N 
ATOM      9  N   UNL     1       3.578   6.022  19.134  0.00  0.00    +0.000 NA
ENDROOT
BRANCH   1  13
ATOM     10  C   UNL     1       1.006  10.382  19.148  0.00  0.00    +0.000 A 
ATOM     11  C   UNL     1       0.845   9.741  20.381  0.00  0.00    +0.000 A 
ATOM     12  C   UNL     1       1.313   8.439  20.568  0.00  0.00    +0.000 A 
ATOM     13  C   UNL     1       1.936   7.756  19.517  0.00  0.00    +0.000 A 
ATOM     14  C   UNL     1       2.107   8.394  18.284  0.00  0.00    +0.000 A 
ATOM     15  C   UNL     1       1.641   9.699  18.101  0.00  0.00    +0.000 A 
BRANCH  10  17
ATOM     16  C   UNL     1      -0.340  12.243  20.116  0.00  0.00    +0.000 C 
ATOM     17  C   UNL     1       0.577  11.816  18.980  0.00  0.00    +0.000 C 
ENDBRANCH  10  17
ENDBRANCH   1  13
BRANCH   7  18
ATOM     18  S   UNL     1       6.287   4.661  17.927  0.00  0.00    +0.000 S 
BRANCH  18  19
ATOM     19  C   UNL     1       5.612   4.219  16.306  0.00  0.00    +0.000 C 
BRANCH  19  20
ATOM     20  C   UNL     1       6.583   4.383  15.153  0.00  0.00    +0.000 C 
ATOM     21  N   UNL     1       6.368   3.641  14.027  0.00  0.00    +0.000 N 
ATOM     22  O   UNL     1       7.481   5.222  15.168  0.00  0.00    +0.000 OA
ATOM     23  H   UNL     1       5.831   2.783  14.077  0.00  0.00    +0.000 HD
ATOM     24  H   UNL     1       7.071   3.703  13.303  0.00  0.00    +0.000 HD
ENDBRANCH  19  20
ENDBRANCH  18  19
ENDBRANCH   7  18
TORSDOF 5
ENDMDL
MODEL 5
REMARK VINA RESULT:      -7.4      0.308      1.073
REMARK  Name = 
REMARK  6 active torsions:
REMARK  status: ('A' for Active; 'I' for Inactive)
REMARK    1  A    between atoms: C_1  and  C_2
REMARK    2  A    between atoms: C_2  and  C_3
REMARK    3  A    between atoms: C_6  and  C_7
REMARK    4  A    between atoms: C_13  and  S_14
REMARK    5  A    between atoms: S_14  and  C_15
REMARK    6  A    between atoms: C_15  and  C_16
REMARK                            x       y       z     vdW  Elec       q    Type
REMARK                         _______ _______ _______ _____ _____    ______ ____
ROOT
ATOM      1  C   UNL     1       2.894   6.918  18.265  0.00  0.00    +0.000 A 
ATOM      2  C   UNL     1       4.069   7.446  17.499  0.00  0.00    +0.000 A 
ATOM      3  C   UNL     1       4.820   6.571  16.822  0.00  0.00    +0.000 A 
ATOM      4  C   UNL     1       4.494   5.202  16.874  0.00  0.00    +0.000 A 
ATOM      5  N   UNL     1       5.040   4.146  16.315  0.00  0.00    +0.000 NA
ATOM      6  N   UNL     1       4.331   3.040  16.730  0.00  0.00    +0.000 NA
ATOM      7  C   UNL     1       3.369   3.457  17.524  0.00  0.00    +0.000 A 
ATOM      8  N   UNL     1       3.414   4.827  17.653  0.00  0.00    +0.000 N 
ATOM      9  N   UNL     1       2.586   5.657  18.372  0.00  0.00    +0.000 NA
ENDROOT
BRANCH   1  13
ATOM     10  C   UNL     1       0.450   9.832  20.275  0.00  0.00    +0.000 A 
ATOM     11  C   UNL     1       0.768   9.997  18.922  0.00  0.00    +0.000 A 
ATOM     12  C   UNL     1       1.560   9.056  18.262  0.00  0.00    +0.000 A 
ATOM     13  C   UNL     1       2.057   7.944  18.953  0.00  0.00    +0.000 A 
ATOM     14  C   UNL     1       1.735   7.769  20.303  0.00  0.00    +0.000 A 
ATOM     15  C   UNL     1       0.939   8.711  20.960  0.00  0.00    +0.000 A 
BRANCH  10  17
ATOM     16  C   UNL     1      -0.518  10.553  22.456  0.00  0.00    +0.000 C 
ATOM     17  C   UNL     1      -0.477  10.805  20.957  0.00  0.00    +0.000 C 
ENDBRANCH  10  17
ENDBRANCH   1  13
BRANCH   7  18
ATOM     18  S   UNL     1       2.264   2.410  18.346  0.00  0.00    +0.000 S 
BRANCH  18  19
ATOM     19  C   UNL     1       2.811   2.535  20.067  0.00  0.00    +0.000 C 
BRANCH  19  20
ATOM     20  C   UNL     1       1.769   3.084  21.022  0.00  0.00    +0.000 C 
ATOM     21  N   UNL     1       0.781   3.873  20.504  0.00  0.00    +0.000 N 
ATOM     22  O   UNL     1       1.734   2.763  22.208  0.00  0.00    +0.000 OA
ATOM     23  H   UNL     1       0.926   4.360  19.627  0.00  0.00    +0.000 HD
ATOM     24  H   UNL     1       0.146   4.296  21.167  0.00  0.00    +0.000 HD
ENDBRANCH  19  20
ENDBRANCH  18  19
ENDBRANCH   7  18
TORSDOF 5
ENDMDL
MODEL 6
REMARK VINA RESULT:      -7.4      2.836      4.323
REMARK  Name = 
REMARK  6 active torsions:
REMARK  status: ('A' for Active; 'I' for Inactive)
REMARK    1  A    between atoms: C_1  and  C_2
REMARK    2  A    between atoms: C_2  and  C_3
REMARK    3  A    between atoms: C_6  and  C_7
REMARK    4  A    between atoms: C_13  and  S_14
REMARK    5  A    between atoms: S_14  and  C_15
REMARK    6  A    between atoms: C_15  and  C_16
REMARK                            x       y       z     vdW  Elec       q    Type
REMARK                         _______ _______ _______ _____ _____    ______ ____
ROOT
ATOM      1  C   UNL     1       2.436   6.386  19.690  0.00  0.00    +0.000 A 
ATOM      2  C   UNL     1       1.531   5.480  20.467  0.00  0.00    +0.000 A 
ATOM      3  C   UNL     1       1.945   4.231  20.702  0.00  0.00    +0.000 A 
ATOM      4  C   UNL     1       3.193   3.815  20.195  0.00  0.00    +0.000 A 
ATOM      5  N   UNL     1       3.839   2.674  20.277  0.00  0.00    +0.000 NA
ATOM      6  N   UNL     1       5.013   2.808  19.569  0.00  0.00    +0.000 NA
ATOM      7  C   UNL     1       5.049   4.030  19.084  0.00  0.00    +0.000 A 
ATOM      8  N   UNL     1       3.920   4.726  19.451  0.00  0.00    +0.000 N 
ATOM      9  N   UNL     1       3.574   6.027  19.170  0.00  0.00    +0.000 NA
ENDROOT
BRANCH   1  13
ATOM     10  C   UNL     1       0.983  10.405  19.195  0.00  0.00    +0.000 A 
ATOM     11  C   UNL     1       1.625   9.756  18.135  0.00  0.00    +0.000 A 
ATOM     12  C   UNL     1       2.098   8.452  18.287  0.00  0.00    +0.000 A 
ATOM     13  C   UNL     1       1.949   7.786  19.509  0.00  0.00    +0.000 A 
ATOM     14  C   UNL     1       1.301   8.426  20.570  0.00  0.00    +0.000 A 
ATOM     15  C   UNL     1       0.824   9.730  20.413  0.00  0.00    +0.000 A 
BRANCH  10  17
ATOM     16  C   UNL     1       0.563  12.626  20.249  0.00  0.00    +0.000 C 
ATOM     17  C   UNL     1       0.396  11.779  18.996  0.00  0.00    +0.000 C 
ENDBRANCH  10  17
ENDBRANCH   1  13
BRANCH   7  18
ATOM     18  S   UNL     1       6.308   4.632  18.060  0.00  0.00    +0.000 S 
BRANCH  18  19
ATOM     19  C   UNL     1       5.547   4.562  16.418  0.00  0.00    +0.000 C 
BRANCH  19  20
ATOM     20  C   UNL     1       6.533   4.526  15.267  0.00  0.00    +0.000 C 
ATOM     21  N   UNL     1       6.333   3.602  14.282  0.00  0.00    +0.000 N 
ATOM     22  O   UNL     1       7.432   5.357  15.150  0.00  0.00    +0.000 OA
ATOM     23  H   UNL     1       5.794   2.764  14.472  0.00  0.00    +0.000 HD
ATOM     24  H   UNL     1       7.046   3.539  13.569  0.00  0.00    +0.000 HD
ENDBRANCH  19  20
ENDBRANCH  18  19
ENDBRANCH   7  18
TORSDOF 5
ENDMDL
MODEL 7
REMARK VINA RESULT:      -7.3      3.018      4.410
REMARK  Name = 
REMARK  6 active torsions:
REMARK  status: ('A' for Active; 'I' for Inactive)
REMARK    1  A    between atoms: C_1  and  C_2
REMARK    2  A    between atoms: C_2  and  C_3
REMARK    3  A    between atoms: C_6  and  C_7
REMARK    4  A    between atoms: C_13  and  S_14
REMARK    5  A    between atoms: S_14  and  C_15
REMARK    6  A    between atoms: C_15  and  C_16
REMARK                            x       y       z     vdW  Elec       q    Type
REMARK                         _______ _______ _______ _____ _____    ______ ____
ROOT
ATOM      1  C   UNL     1       2.444   6.388  19.675  0.00  0.00    +0.000 A 
ATOM      2  C   UNL     1       1.603   5.559  20.597  0.00  0.00    +0.000 A 
ATOM      3  C   UNL     1       2.010   4.314  20.867  0.00  0.00    +0.000 A 
ATOM      4  C   UNL     1       3.187   3.830  20.263  0.00  0.00    +0.000 A 
ATOM      5  N   UNL     1       3.811   2.677  20.349  0.00  0.00    +0.000 NA
ATOM      6  N   UNL     1       4.907   2.732  19.517  0.00  0.00    +0.000 NA
ATOM      7  C   UNL     1       4.922   3.920  18.954  0.00  0.00    +0.000 A 
ATOM      8  N   UNL     1       3.855   4.672  19.390  0.00  0.00    +0.000 N 
ATOM      9  N   UNL     1       3.513   5.963  19.064  0.00  0.00    +0.000 NA
ENDROOT
BRANCH   1  13
ATOM     10  C   UNL     1       1.040  10.409  19.069  0.00  0.00    +0.000 A 
ATOM     11  C   UNL     1       1.718   9.741  18.043  0.00  0.00    +0.000 A 
ATOM     12  C   UNL     1       2.176   8.436  18.231  0.00  0.00    +0.000 A 
ATOM     13  C   UNL     1       1.975   7.788  19.456  0.00  0.00    +0.000 A 
ATOM     14  C   UNL     1       1.290   8.447  20.482  0.00  0.00    +0.000 A 
ATOM     15  C   UNL     1       0.829   9.752  20.289  0.00  0.00    +0.000 A 
BRANCH  10  17
ATOM     16  C   UNL     1       1.581  12.785  18.540  0.00  0.00    +0.000 C 
ATOM     17  C   UNL     1       0.472  11.784  18.828  0.00  0.00    +0.000 C 
ENDBRANCH  10  17
ENDBRANCH   1  13
BRANCH   7  18
ATOM     18  S   UNL     1       6.080   4.420  17.770  0.00  0.00    +0.000 S 
BRANCH  18  19
ATOM     19  C   UNL     1       7.199   5.469  18.733  0.00  0.00    +0.000 C 
BRANCH  19  20
ATOM     20  C   UNL     1       7.708   6.692  17.994  0.00  0.00    +0.000 C 
ATOM     21  N   UNL     1       8.409   7.622  18.707  0.00  0.00    +0.000 N 
ATOM     22  O   UNL     1       7.596   6.815  16.776  0.00  0.00    +0.000 OA
ATOM     23  H   UNL     1       8.291   7.689  19.712  0.00  0.00    +0.000 HD
ATOM     24  H   UNL     1       8.667   8.467  18.216  0.00  0.00    +0.000 HD
ENDBRANCH  19  20
ENDBRANCH  18  19
ENDBRANCH   7  18
TORSDOF 5
ENDMDL
MODEL 8
REMARK VINA RESULT:      -7.3      0.868      1.053
REMARK  Name = 
REMARK  6 active torsions:
REMARK  status: ('A' for Active; 'I' for Inactive)
REMARK    1  A    between atoms: C_1  and  C_2
REMARK    2  A    between atoms: C_2  and  C_3
REMARK    3  A    between atoms: C_6  and  C_7
REMARK    4  A    between atoms: C_13  and  S_14
REMARK    5  A    between atoms: S_14  and  C_15
REMARK    6  A    between atoms: C_15  and  C_16
REMARK                            x       y       z     vdW  Elec       q    Type
REMARK                         _______ _______ _______ _____ _____    ______ ____
ROOT
ATOM      1  C   UNL     1       2.880   6.978  18.184  0.00  0.00    +0.000 A 
ATOM      2  C   UNL     1       4.024   7.459  17.345  0.00  0.00    +0.000 A 
ATOM      3  C   UNL     1       4.790   6.542  16.745  0.00  0.00    +0.000 A 
ATOM      4  C   UNL     1       4.508   5.176  16.943  0.00  0.00    +0.000 A 
ATOM      5  N   UNL     1       5.077   4.084  16.483  0.00  0.00    +0.000 NA
ATOM      6  N   UNL     1       4.409   3.007  17.023  0.00  0.00    +0.000 NA
ATOM      7  C   UNL     1       3.449   3.475  17.790  0.00  0.00    +0.000 A 
ATOM      8  N   UNL     1       3.454   4.851  17.778  0.00  0.00    +0.000 N 
ATOM      9  N   UNL     1       2.613   5.726  18.425  0.00  0.00    +0.000 NA
ENDROOT
BRANCH   1  13
ATOM     10  C   UNL     1       0.441  10.093  19.875  0.00  0.00    +0.000 A 
ATOM     11  C   UNL     1       0.919   9.057  20.687  0.00  0.00    +0.000 A 
ATOM     12  C   UNL     1       1.711   8.044  20.146  0.00  0.00    +0.000 A 
ATOM     13  C   UNL     1       2.023   8.044  18.781  0.00  0.00    +0.000 A 
ATOM     14  C   UNL     1       1.557   9.081  17.967  0.00  0.00    +0.000 A 
ATOM     15  C   UNL     1       0.767  10.097  18.512  0.00  0.00    +0.000 A 
BRANCH  10  17
ATOM     16  C   UNL     1      -1.455  11.678  19.551  0.00  0.00    +0.000 C 
ATOM     17  C   UNL     1      -0.339  11.230  20.482  0.00  0.00    +0.000 C 
ENDBRANCH  10  17
ENDBRANCH   1  13
BRANCH   7  18
ATOM     18  S   UNL     1       2.393   2.486  18.737  0.00  0.00    +0.000 S 
BRANCH  18  19
ATOM     19  C   UNL     1       3.149   2.562  20.380  0.00  0.00    +0.000 C 
BRANCH  19  20
ATOM     20  C   UNL     1       2.342   3.328  21.411  0.00  0.00    +0.000 C 
ATOM     21  N   UNL     1       2.320   4.690  21.321  0.00  0.00    +0.000 N 
ATOM     22  O   UNL     1       1.641   2.760  22.246  0.00  0.00    +0.000 OA
ATOM     23  H   UNL     1       3.066   5.182  20.842  0.00  0.00    +0.000 HD
ATOM     24  H   UNL     1       1.846   5.185  22.064  0.00  0.00    +0.000 HD
ENDBRANCH  19  20
ENDBRANCH  18  19
ENDBRANCH   7  18
TORSDOF 5
ENDMDL
MODEL 9
REMARK VINA RESULT:      -7.3      2.514      4.195
REMARK  Name = 
REMARK  6 active torsions:
REMARK  status: ('A' for Active; 'I' for Inactive)
REMARK    1  A    between atoms: C_1  and  C_2
REMARK    2  A    between atoms: C_2  and  C_3
REMARK    3  A    between atoms: C_6  and  C_7
REMARK    4  A    between atoms: C_13  and  S_14
REMARK    5  A    between atoms: S_14  and  C_15
REMARK    6  A    between atoms: C_15  and  C_16
REMARK                            x       y       z     vdW  Elec       q    Type
REMARK                         _______ _______ _______ _____ _____    ______ ____
ROOT
ATOM      1  C   UNL     1       2.260   6.392  19.576  0.00  0.00    +0.000 A 
ATOM      2  C   UNL     1       1.769   5.756  20.840  0.00  0.00    +0.000 A 
ATOM      3  C   UNL     1       2.121   4.488  21.081  0.00  0.00    +0.000 A 
ATOM      4  C   UNL     1       2.912   3.804  20.137  0.00  0.00    +0.000 A 
ATOM      5  N   UNL     1       3.400   2.584  20.117  0.00  0.00    +0.000 NA
ATOM      6  N   UNL     1       4.083   2.427  18.931  0.00  0.00    +0.000 NA
ATOM      7  C   UNL     1       3.996   3.559  18.267  0.00  0.00    +0.000 A 
ATOM      8  N   UNL     1       3.266   4.481  18.983  0.00  0.00    +0.000 N 
ATOM      9  N   UNL     1       2.956   5.781  18.660  0.00  0.00    +0.000 NA
ENDROOT
BRANCH   1  13
ATOM     10  C   UNL     1       1.132  10.512  19.057  0.00  0.00    +0.000 A 
ATOM     11  C   UNL     1       1.716   9.806  18.000  0.00  0.00    +0.000 A 
ATOM     12  C   UNL     1       2.085   8.469  18.159  0.00  0.00    +0.000 A 
ATOM     13  C   UNL     1       1.887   7.825  19.386  0.00  0.00    +0.000 A 
ATOM     14  C   UNL     1       1.295   8.522  20.445  0.00  0.00    +0.000 A 
ATOM     15  C   UNL     1       0.923   9.859  20.281  0.00  0.00    +0.000 A 
BRANCH  10  17
ATOM     16  C   UNL     1      -0.831  11.957  18.536  0.00  0.00    +0.000 C 
ATOM     17  C   UNL     1       0.657  11.926  18.851  0.00  0.00    +0.000 C 
ENDBRANCH  10  17
ENDBRANCH   1  13
BRANCH   7  18
ATOM     18  S   UNL     1       4.642   3.808  16.682  0.00  0.00    +0.000 S 
BRANCH  18  19
ATOM     19  C   UNL     1       5.871   5.109  16.959  0.00  0.00    +0.000 C 
BRANCH  19  20
ATOM     20  C   UNL     1       7.252   4.798  16.415  0.00  0.00    +0.000 C 
ATOM     21  N   UNL     1       7.576   5.282  15.179  0.00  0.00    +0.000 N 
ATOM     22  O   UNL     1       8.105   4.220  17.086  0.00  0.00    +0.000 OA
ATOM     23  H   UNL     1       6.846   5.514  14.516  0.00  0.00    +0.000 HD
ATOM     24  H   UNL     1       8.468   4.994  14.801  0.00  0.00    +0.000 HD
ENDBRANCH  19  20
ENDBRANCH  18  19
ENDBRANCH   7  18
TORSDOF 5
ENDMDL
