MODEL 1
REMARK VINA RESULT:      -6.7      0.000      0.000
REMARK  Name = 
REMARK  6 active torsions:
REMARK  status: ('A' for Active; 'I' for Inactive)
REMARK    1  A    between atoms: C_1  and  C_2
REMARK    2  A    between atoms: C_2  and  O_3
REMARK    3  A    between atoms: O_3  and  C_4
REMARK    4  A    between atoms: C_4  and  C_6
REMARK    5  A    between atoms: N_14  and  C_15
REMARK    6  A    between atoms: C_22  and  C_23
REMARK                            x       y       z     vdW  Elec       q    Type
REMARK                         _______ _______ _______ _____ _____    ______ ____
ROOT
ATOM      1  C   UNL     1      -4.818  13.161  22.480  0.00  0.00    +0.000 A 
ATOM      2  C   UNL     1      -6.051  12.570  22.904  0.00  0.00    +0.000 A 
ATOM      3  N   UNL     1      -6.713  11.950  21.912  0.00  0.00    +0.000 NA
ATOM      4  N   UNL     1      -5.900  12.159  20.883  0.00  0.00    +0.000 N 
ATOM      5  C   UNL     1      -4.717  12.748  21.175  0.00  0.00    +0.000 A 
ATOM      6  N   UNL     1      -3.889  12.719  20.063  0.00  0.00    +0.000 N 
ATOM      7  C   UNL     1      -2.545  13.022  20.200  0.00  0.00    +0.000 C 
ATOM      8  O   UNL     1      -2.032  13.136  21.313  0.00  0.00    +0.000 OA
ATOM      9  N   UNL     1      -1.825  13.141  19.031  0.00  0.00    +0.000 N 
ATOM     10  C   UNL     1      -4.734  12.326  18.881  0.00  0.00    +0.000 C 
ATOM     11  C   UNL     1      -6.006  11.679  19.514  0.00  0.00    +0.000 C 
ATOM     12  H   UNL     1      -2.344  13.178  18.168  0.00  0.00    +0.000 HD
ENDROOT
BRANCH   9  13
ATOM     13  C   UNL     1      -0.433  13.378  18.932  0.00  0.00    +0.000 A 
ATOM     14  C   UNL     1       0.141  14.656  18.943  0.00  0.00    +0.000 A 
ATOM     15  C   UNL     1       1.516  14.832  18.764  0.00  0.00    +0.000 A 
ATOM     16  C   UNL     1       2.326  13.722  18.593  0.00  0.00    +0.000 A 
ATOM     17  F   UNL     1       3.639  13.890  18.394  0.00  0.00    +0.000 F 
ATOM     18  C   UNL     1       1.792  12.442  18.629  0.00  0.00    +0.000 A 
ATOM     19  C   UNL     1       0.414  12.267  18.810  0.00  0.00    +0.000 A 
ENDBRANCH   9  13
BRANCH  10  20
ATOM     20  C   UNL     1      -4.076  11.435  17.859  0.00  0.00    +0.000 A 
ATOM     21  C   UNL     1      -3.198  10.408  18.237  0.00  0.00    +0.000 A 
ATOM     22  C   UNL     1      -2.583   9.616  17.268  0.00  0.00    +0.000 A 
ATOM     23  C   UNL     1      -2.829   9.846  15.915  0.00  0.00    +0.000 A 
ATOM     24  C   UNL     1      -3.699  10.861  15.527  0.00  0.00    +0.000 A 
ATOM     25  C   UNL     1      -4.326  11.646  16.492  0.00  0.00    +0.000 A 
ENDBRANCH  10  20
BRANCH   1  26
ATOM     26  C   UNL     1      -3.970  14.033  23.254  0.00  0.00    +0.000 C 
ATOM     27  O   UNL     1      -3.343  13.658  24.239  0.00  0.00    +0.000 OA
BRANCH  26  28
ATOM     28  O   UNL     1      -4.094  15.337  22.863  0.00  0.00    +0.000 OA
BRANCH  28  30
ATOM     29  C   UNL     1      -5.140  16.674  24.566  0.00  0.00    +0.000 C 
ATOM     30  C   UNL     1      -3.840  16.326  23.866  0.00  0.00    +0.000 C 
ENDBRANCH  28  30
ENDBRANCH  26  28
ENDBRANCH   1  26
TORSDOF 5
ENDMDL
MODEL 2
REMARK VINA RESULT:      -6.6      8.041     11.232
REMARK  Name = 
REMARK  6 active torsions:
REMARK  status: ('A' for Active; 'I' for Inactive)
REMARK    1  A    between atoms: C_1  and  C_2
REMARK    2  A    between atoms: C_2  and  O_3
REMARK    3  A    between atoms: O_3  and  C_4
REMARK    4  A    between atoms: C_4  and  C_6
REMARK    5  A    between atoms: N_14  and  C_15
REMARK    6  A    between atoms: C_22  and  C_23
REMARK                            x       y       z     vdW  Elec       q    Type
REMARK                         _______ _______ _______ _____ _____    ______ ____
ROOT
ATOM      1  C   UNL     1       6.925   6.296  17.675  0.00  0.00    +0.000 A 
ATOM      2  C   UNL     1       7.813   5.250  17.268  0.00  0.00    +0.000 A 
ATOM      3  N   UNL     1       7.443   4.036  17.710  0.00  0.00    +0.000 NA
ATOM      4  N   UNL     1       6.340   4.329  18.388  0.00  0.00    +0.000 N 
ATOM      5  C   UNL     1       5.915   5.611  18.300  0.00  0.00    +0.000 A 
ATOM      6  N   UNL     1       4.658   5.731  18.876  0.00  0.00    +0.000 N 
ATOM      7  C   UNL     1       3.916   6.880  18.668  0.00  0.00    +0.000 C 
ATOM      8  O   UNL     1       4.265   7.718  17.837  0.00  0.00    +0.000 OA
ATOM      9  N   UNL     1       2.759   7.000  19.408  0.00  0.00    +0.000 N 
ATOM     10  C   UNL     1       4.392   4.466  19.647  0.00  0.00    +0.000 C 
ATOM     11  C   UNL     1       5.410   3.437  19.062  0.00  0.00    +0.000 C 
ATOM     12  H   UNL     1       2.622   6.349  20.163  0.00  0.00    +0.000 HD
ENDROOT
BRANCH   9  13
ATOM     13  C   UNL     1       1.817   8.052  19.312  0.00  0.00    +0.000 A 
ATOM     14  C   UNL     1       1.480   8.688  18.109  0.00  0.00    +0.000 A 
ATOM     15  C   UNL     1       0.601   9.774  18.088  0.00  0.00    +0.000 A 
ATOM     16  C   UNL     1       0.036  10.214  19.273  0.00  0.00    +0.000 A 
ATOM     17  F   UNL     1      -0.786  11.271  19.257  0.00  0.00    +0.000 F 
ATOM     18  C   UNL     1       0.311   9.571  20.472  0.00  0.00    +0.000 A 
ATOM     19  C   UNL     1       1.192   8.483  20.492  0.00  0.00    +0.000 A 
ENDBRANCH   9  13
BRANCH  10  20
ATOM     20  C   UNL     1       2.972   3.958  19.622  0.00  0.00    +0.000 A 
ATOM     21  C   UNL     1       2.225   3.810  20.800  0.00  0.00    +0.000 A 
ATOM     22  C   UNL     1       0.923   3.314  20.749  0.00  0.00    +0.000 A 
ATOM     23  C   UNL     1       0.359   2.950  19.527  0.00  0.00    +0.000 A 
ATOM     24  C   UNL     1       1.089   3.093  18.351  0.00  0.00    +0.000 A 
ATOM     25  C   UNL     1       2.386   3.602  18.396  0.00  0.00    +0.000 A 
ENDBRANCH  10  20
BRANCH   1  26
ATOM     26  C   UNL     1       7.132   7.714  17.512  0.00  0.00    +0.000 C 
ATOM     27  O   UNL     1       6.549   8.384  16.666  0.00  0.00    +0.000 OA
BRANCH  26  28
ATOM     28  O   UNL     1       8.167   8.167  18.282  0.00  0.00    +0.000 OA
BRANCH  28  30
ATOM     29  C   UNL     1       9.209  10.033  19.383  0.00  0.00    +0.000 C 
ATOM     30  C   UNL     1       8.522   9.544  18.122  0.00  0.00    +0.000 C 
ENDBRANCH  28  30
ENDBRANCH  26  28
ENDBRANCH   1  26
TORSDOF 5
ENDMDL
MODEL 3
REMARK VINA RESULT:      -6.6      1.342      1.580
REMARK  Name = 
REMARK  6 active torsions:
REMARK  status: ('A' for Active; 'I' for Inactive)
REMARK    1  A    between atoms: C_1  and  C_2
REMARK    2  A    between atoms: C_2  and  O_3
REMARK    3  A    between atoms: O_3  and  C_4
REMARK    4  A    between atoms: C_4  and  C_6
REMARK    5  A    between atoms: N_14  and  C_15
REMARK    6  A    between atoms: C_22  and  C_23
REMARK                            x       y       z     vdW  Elec       q    Type
REMARK                         _______ _______ _______ _____ _____    ______ ____
ROOT
ATOM      1  C   UNL     1      -6.017  12.526  21.594  0.00  0.00    +0.000 A 
ATOM      2  C   UNL     1      -7.299  11.899  21.711  0.00  0.00    +0.000 A 
ATOM      3  N   UNL     1      -7.723  11.337  20.566  0.00  0.00    +0.000 NA
ATOM      4  N   UNL     1      -6.717  11.618  19.747  0.00  0.00    +0.000 N 
ATOM      5  C   UNL     1      -5.635  12.198  20.317  0.00  0.00    +0.000 A 
ATOM      6  N   UNL     1      -4.591  12.247  19.405  0.00  0.00    +0.000 N 
ATOM      7  C   UNL     1      -3.314  12.552  19.841  0.00  0.00    +0.000 C 
ATOM      8  O   UNL     1      -3.048  12.600  21.042  0.00  0.00    +0.000 OA
ATOM      9  N   UNL     1      -2.367  12.752  18.859  0.00  0.00    +0.000 N 
ATOM     10  C   UNL     1      -5.161  11.923  18.049  0.00  0.00    +0.000 C 
ATOM     11  C   UNL     1      -6.522  11.226  18.360  0.00  0.00    +0.000 C 
ATOM     12  H   UNL     1      -2.693  12.839  17.911  0.00  0.00    +0.000 HD
ENDROOT
BRANCH   9  13
ATOM     13  C   UNL     1      -0.991  13.007  19.072  0.00  0.00    +0.000 A 
ATOM     14  C   UNL     1      -0.461  14.285  19.294  0.00  0.00    +0.000 A 
ATOM     15  C   UNL     1       0.916  14.485  19.419  0.00  0.00    +0.000 A 
ATOM     16  C   UNL     1       1.770  13.398  19.343  0.00  0.00    +0.000 A 
ATOM     17  F   UNL     1       3.091  13.591  19.435  0.00  0.00    +0.000 F 
ATOM     18  C   UNL     1       1.270  12.114  19.174  0.00  0.00    +0.000 A 
ATOM     19  C   UNL     1      -0.110  11.915  19.050  0.00  0.00    +0.000 A 
ENDBRANCH   9  13
BRANCH  10  20
ATOM     20  C   UNL     1      -4.282  11.104  17.138  0.00  0.00    +0.000 A 
ATOM     21  C   UNL     1      -3.524  10.027  17.621  0.00  0.00    +0.000 A 
ATOM     22  C   UNL     1      -2.701   9.304  16.759  0.00  0.00    +0.000 A 
ATOM     23  C   UNL     1      -2.618   9.653  15.411  0.00  0.00    +0.000 A 
ATOM     24  C   UNL     1      -3.366  10.719  14.919  0.00  0.00    +0.000 A 
ATOM     25  C   UNL     1      -4.201  11.436  15.774  0.00  0.00    +0.000 A 
ENDBRANCH  10  20
BRANCH   1  26
ATOM     26  C   UNL     1      -5.370  13.354  22.580  0.00  0.00    +0.000 C 
ATOM     27  O   UNL     1      -5.318  14.577  22.499  0.00  0.00    +0.000 OA
BRANCH  26  28
ATOM     28  O   UNL     1      -4.684  12.607  23.497  0.00  0.00    +0.000 OA
BRANCH  28  30
ATOM     29  C   UNL     1      -2.667  13.698  24.221  0.00  0.00    +0.000 C 
ATOM     30  C   UNL     1      -4.093  13.325  24.585  0.00  0.00    +0.000 C 
ENDBRANCH  28  30
ENDBRANCH  26  28
ENDBRANCH   1  26
TORSDOF 5
ENDMDL
MODEL 4
REMARK VINA RESULT:      -6.5      1.120      1.185
REMARK  Name = 
REMARK  6 active torsions:
REMARK  status: ('A' for Active; 'I' for Inactive)
REMARK    1  A    between atoms: C_1  and  C_2
REMARK    2  A    between atoms: C_2  and  O_3
REMARK    3  A    between atoms: O_3  and  C_4
REMARK    4  A    between atoms: C_4  and  C_6
REMARK    5  A    between atoms: N_14  and  C_15
REMARK    6  A    between atoms: C_22  and  C_23
REMARK                            x       y       z     vdW  Elec       q    Type
REMARK                         _______ _______ _______ _____ _____    ______ ____
ROOT
ATOM      1  C   UNL     1      -6.078  12.589  21.850  0.00  0.00    +0.000 A 
ATOM      2  C   UNL     1      -7.361  11.966  21.957  0.00  0.00    +0.000 A 
ATOM      3  N   UNL     1      -7.784  11.415  20.806  0.00  0.00    +0.000 NA
ATOM      4  N   UNL     1      -6.774  11.700  19.993  0.00  0.00    +0.000 N 
ATOM      5  C   UNL     1      -5.692  12.271  20.572  0.00  0.00    +0.000 A 
ATOM      6  N   UNL     1      -4.645  12.324  19.664  0.00  0.00    +0.000 N 
ATOM      7  C   UNL     1      -3.367  12.621  20.107  0.00  0.00    +0.000 C 
ATOM      8  O   UNL     1      -3.106  12.657  21.309  0.00  0.00    +0.000 OA
ATOM      9  N   UNL     1      -2.416  12.826  19.130  0.00  0.00    +0.000 N 
ATOM     10  C   UNL     1      -5.210  12.014  18.304  0.00  0.00    +0.000 C 
ATOM     11  C   UNL     1      -6.575  11.319  18.603  0.00  0.00    +0.000 C 
ATOM     12  H   UNL     1      -2.739  12.922  18.182  0.00  0.00    +0.000 HD
ENDROOT
BRANCH   9  13
ATOM     13  C   UNL     1      -1.040  13.074  19.350  0.00  0.00    +0.000 A 
ATOM     14  C   UNL     1      -0.467  14.353  19.327  0.00  0.00    +0.000 A 
ATOM     15  C   UNL     1       0.911  14.529  19.472  0.00  0.00    +0.000 A 
ATOM     16  C   UNL     1       1.721  13.422  19.664  0.00  0.00    +0.000 A 
ATOM     17  F   UNL     1       3.045  13.588  19.776  0.00  0.00    +0.000 F 
ATOM     18  C   UNL     1       1.175  12.149  19.742  0.00  0.00    +0.000 A 
ATOM     19  C   UNL     1      -0.206  11.974  19.597  0.00  0.00    +0.000 A 
ENDBRANCH   9  13
BRANCH  10  20
ATOM     20  C   UNL     1      -4.331  11.200  17.388  0.00  0.00    +0.000 A 
ATOM     21  C   UNL     1      -3.641  10.069  17.848  0.00  0.00    +0.000 A 
ATOM     22  C   UNL     1      -2.815   9.350  16.984  0.00  0.00    +0.000 A 
ATOM     23  C   UNL     1      -2.661   9.758  15.659  0.00  0.00    +0.000 A 
ATOM     24  C   UNL     1      -3.342  10.878  15.191  0.00  0.00    +0.000 A 
ATOM     25  C   UNL     1      -4.179  11.591  16.047  0.00  0.00    +0.000 A 
ENDBRANCH  10  20
BRANCH   1  26
ATOM     26  C   UNL     1      -5.431  13.407  22.846  0.00  0.00    +0.000 C 
ATOM     27  O   UNL     1      -4.880  12.944  23.840  0.00  0.00    +0.000 OA
BRANCH  26  28
ATOM     28  O   UNL     1      -5.662  14.738  22.636  0.00  0.00    +0.000 OA
BRANCH  28  30
ATOM     29  C   UNL     1      -4.609  16.783  23.337  0.00  0.00    +0.000 C 
ATOM     30  C   UNL     1      -4.506  15.560  22.445  0.00  0.00    +0.000 C 
ENDBRANCH  28  30
ENDBRANCH  26  28
ENDBRANCH   1  26
TORSDOF 5
ENDMDL
MODEL 5
REMARK VINA RESULT:      -6.5      8.316     11.422
REMARK  Name = 
REMARK  6 active torsions:
REMARK  status: ('A' for Active; 'I' for Inactive)
REMARK    1  A    between atoms: C_1  and  C_2
REMARK    2  A    between atoms: C_2  and  O_3
REMARK    3  A    between atoms: O_3  and  C_4
REMARK    4  A    between atoms: C_4  and  C_6
REMARK    5  A    between atoms: N_14  and  C_15
REMARK    6  A    between atoms: C_22  and  C_23
REMARK                            x       y       z     vdW  Elec       q    Type
REMARK                         _______ _______ _______ _____ _____    ______ ____
ROOT
ATOM      1  C   UNL     1       5.262   5.529  15.988  0.00  0.00    +0.000 A 
ATOM      2  C   UNL     1       5.772   4.416  15.246  0.00  0.00    +0.000 A 
ATOM      3  N   UNL     1       5.684   3.249  15.908  0.00  0.00    +0.000 NA
ATOM      4  N   UNL     1       5.130   3.638  17.051  0.00  0.00    +0.000 N 
ATOM      5  C   UNL     1       4.744   4.933  17.110  0.00  0.00    +0.000 A 
ATOM      6  N   UNL     1       4.003   5.151  18.262  0.00  0.00    +0.000 N 
ATOM      7  C   UNL     1       3.283   6.325  18.403  0.00  0.00    +0.000 C 
ATOM      8  O   UNL     1       3.137   7.096  17.455  0.00  0.00    +0.000 OA
ATOM      9  N   UNL     1       2.716   6.547  19.640  0.00  0.00    +0.000 N 
ATOM     10  C   UNL     1       4.181   3.947  19.148  0.00  0.00    +0.000 C 
ATOM     11  C   UNL     1       4.703   2.835  18.186  0.00  0.00    +0.000 C 
ATOM     12  H   UNL     1       3.002   5.947  20.396  0.00  0.00    +0.000 HD
ENDROOT
BRANCH   9  13
ATOM     13  C   UNL     1       1.887   7.640  19.989  0.00  0.00    +0.000 A 
ATOM     14  C   UNL     1       1.667   8.747  19.159  0.00  0.00    +0.000 A 
ATOM     15  C   UNL     1       0.901   9.833  19.590  0.00  0.00    +0.000 A 
ATOM     16  C   UNL     1       0.332   9.805  20.853  0.00  0.00    +0.000 A 
ATOM     17  F   UNL     1      -0.379  10.856  21.277  0.00  0.00    +0.000 F 
ATOM     18  C   UNL     1       0.492   8.700  21.677  0.00  0.00    +0.000 A 
ATOM     19  C   UNL     1       1.258   7.612  21.243  0.00  0.00    +0.000 A 
ENDBRANCH   9  13
BRANCH  10  20
ATOM     20  C   UNL     1       2.968   3.514  19.934  0.00  0.00    +0.000 A 
ATOM     21  C   UNL     1       3.024   3.321  21.322  0.00  0.00    +0.000 A 
ATOM     22  C   UNL     1       1.893   2.895  22.018  0.00  0.00    +0.000 A 
ATOM     23  C   UNL     1       0.701   2.649  21.337  0.00  0.00    +0.000 A 
ATOM     24  C   UNL     1       0.633   2.839  19.960  0.00  0.00    +0.000 A 
ATOM     25  C   UNL     1       1.757   3.277  19.262  0.00  0.00    +0.000 A 
ENDBRANCH  10  20
BRANCH   1  26
ATOM     26  C   UNL     1       5.367   6.922  15.633  0.00  0.00    +0.000 C 
ATOM     27  O   UNL     1       4.956   7.376  14.569  0.00  0.00    +0.000 OA
BRANCH  26  28
ATOM     28  O   UNL     1       6.125   7.619  16.532  0.00  0.00    +0.000 OA
BRANCH  28  30
ATOM     29  C   UNL     1       8.029   7.882  17.976  0.00  0.00    +0.000 C 
ATOM     30  C   UNL     1       7.318   6.975  16.990  0.00  0.00    +0.000 C 
ENDBRANCH  28  30
ENDBRANCH  26  28
ENDBRANCH   1  26
TORSDOF 5
ENDMDL
MODEL 6
REMARK VINA RESULT:      -6.5      0.568      1.180
REMARK  Name = 
REMARK  6 active torsions:
REMARK  status: ('A' for Active; 'I' for Inactive)
REMARK    1  A    between atoms: C_1  and  C_2
REMARK    2  A    between atoms: C_2  and  O_3
REMARK    3  A    between atoms: O_3  and  C_4
REMARK    4  A    between atoms: C_4  and  C_6
REMARK    5  A    between atoms: N_14  and  C_15
REMARK    6  A    between atoms: C_22  and  C_23
REMARK                            x       y       z     vdW  Elec       q    Type
REMARK                         _______ _______ _______ _____ _____    ______ ____
ROOT
ATOM      1  C   UNL     1      -4.980  13.027  22.373  0.00  0.00    +0.000 A 
ATOM      2  C   UNL     1      -6.220  12.424  22.757  0.00  0.00    +0.000 A 
ATOM      3  N   UNL     1      -6.857  11.821  21.738  0.00  0.00    +0.000 NA
ATOM      4  N   UNL     1      -6.022  12.054  20.733  0.00  0.00    +0.000 N 
ATOM      5  C   UNL     1      -4.848  12.642  21.063  0.00  0.00    +0.000 A 
ATOM      6  N   UNL     1      -3.995  12.638  19.969  0.00  0.00    +0.000 N 
ATOM      7  C   UNL     1      -2.656  12.942  20.143  0.00  0.00    +0.000 C 
ATOM      8  O   UNL     1      -2.168  13.035  21.268  0.00  0.00    +0.000 OA
ATOM      9  N   UNL     1      -1.910  13.088  18.992  0.00  0.00    +0.000 N 
ATOM     10  C   UNL     1      -4.812  12.266  18.760  0.00  0.00    +0.000 C 
ATOM     11  C   UNL     1      -6.095  11.602  19.352  0.00  0.00    +0.000 C 
ATOM     12  H   UNL     1      -2.410  13.140  18.119  0.00  0.00    +0.000 HD
ENDROOT
BRANCH   9  13
ATOM     13  C   UNL     1      -0.518  13.331  18.930  0.00  0.00    +0.000 A 
ATOM     14  C   UNL     1       0.050  14.612  18.955  0.00  0.00    +0.000 A 
ATOM     15  C   UNL     1       1.428  14.795  18.811  0.00  0.00    +0.000 A 
ATOM     16  C   UNL     1       2.248  13.688  18.662  0.00  0.00    +0.000 A 
ATOM     17  F   UNL     1       3.565  13.863  18.497  0.00  0.00    +0.000 F 
ATOM     18  C   UNL     1       1.719  12.406  18.684  0.00  0.00    +0.000 A 
ATOM     19  C   UNL     1       0.338  12.224  18.829  0.00  0.00    +0.000 A 
ENDBRANCH   9  13
BRANCH  10  20
ATOM     20  C   UNL     1      -4.127  11.398  17.736  0.00  0.00    +0.000 A 
ATOM     21  C   UNL     1      -4.286  11.622  16.360  0.00  0.00    +0.000 A 
ATOM     22  C   UNL     1      -3.660  10.786  15.435  0.00  0.00    +0.000 A 
ATOM     23  C   UNL     1      -2.882   9.715  15.872  0.00  0.00    +0.000 A 
ATOM     24  C   UNL     1      -2.716   9.483  17.234  0.00  0.00    +0.000 A 
ATOM     25  C   UNL     1      -3.328  10.324  18.163  0.00  0.00    +0.000 A 
ENDBRANCH  10  20
BRANCH   1  26
ATOM     26  C   UNL     1      -4.152  13.886  23.183  0.00  0.00    +0.000 C 
ATOM     27  O   UNL     1      -3.389  13.464  24.046  0.00  0.00    +0.000 OA
BRANCH  26  28
ATOM     28  O   UNL     1      -4.454  15.206  22.993  0.00  0.00    +0.000 OA
BRANCH  28  30
ATOM     29  C   UNL     1      -3.126  16.313  21.322  0.00  0.00    +0.000 C 
ATOM     30  C   UNL     1      -3.345  16.090  22.807  0.00  0.00    +0.000 C 
ENDBRANCH  28  30
ENDBRANCH  26  28
ENDBRANCH   1  26
TORSDOF 5
ENDMDL
MODEL 7
REMARK VINA RESULT:      -6.5      8.337     11.489
REMARK  Name = 
REMARK  6 active torsions:
REMARK  status: ('A' for Active; 'I' for Inactive)
REMARK    1  A    between atoms: C_1  and  C_2
REMARK    2  A    between atoms: C_2  and  O_3
REMARK    3  A    between atoms: O_3  and  C_4
REMARK    4  A    between atoms: C_4  and  C_6
REMARK    5  A    between atoms: N_14  and  C_15
REMARK    6  A    between atoms: C_22  and  C_23
REMARK                            x       y       z     vdW  Elec       q    Type
REMARK                         _______ _______ _______ _____ _____    ______ ____
ROOT
ATOM      1  C   UNL     1       5.229   5.544  15.909  0.00  0.00    +0.000 A 
ATOM      2  C   UNL     1       5.726   4.451  15.130  0.00  0.00    +0.000 A 
ATOM      3  N   UNL     1       5.647   3.267  15.762  0.00  0.00    +0.000 NA
ATOM      4  N   UNL     1       5.112   3.625  16.923  0.00  0.00    +0.000 N 
ATOM      5  C   UNL     1       4.728   4.919  17.023  0.00  0.00    +0.000 A 
ATOM      6  N   UNL     1       4.005   5.106  18.192  0.00  0.00    +0.000 N 
ATOM      7  C   UNL     1       3.289   6.277  18.375  0.00  0.00    +0.000 C 
ATOM      8  O   UNL     1       3.129   7.073  17.451  0.00  0.00    +0.000 OA
ATOM      9  N   UNL     1       2.742   6.466  19.627  0.00  0.00    +0.000 N 
ATOM     10  C   UNL     1       4.195   3.879  19.043  0.00  0.00    +0.000 C 
ATOM     11  C   UNL     1       4.701   2.792  18.043  0.00  0.00    +0.000 C 
ATOM     12  H   UNL     1       3.039   5.845  20.362  0.00  0.00    +0.000 HD
ENDROOT
BRANCH   9  13
ATOM     13  C   UNL     1       1.920   7.550  20.019  0.00  0.00    +0.000 A 
ATOM     14  C   UNL     1       1.227   7.600  21.236  0.00  0.00    +0.000 A 
ATOM     15  C   UNL     1       0.368   8.661  21.534  0.00  0.00    +0.000 A 
ATOM     16  C   UNL     1       0.217   9.691  20.620  0.00  0.00    +0.000 A 
ATOM     17  F   UNL     1      -0.626  10.694  20.894  0.00  0.00    +0.000 F 
ATOM     18  C   UNL     1       0.929   9.692  19.430  0.00  0.00    +0.000 A 
ATOM     19  C   UNL     1       1.790   8.629  19.132  0.00  0.00    +0.000 A 
ENDBRANCH   9  13
BRANCH  10  20
ATOM     20  C   UNL     1       2.995   3.426  19.835  0.00  0.00    +0.000 A 
ATOM     21  C   UNL     1       1.751   3.211  19.224  0.00  0.00    +0.000 A 
ATOM     22  C   UNL     1       0.652   2.818  19.988  0.00  0.00    +0.000 A 
ATOM     23  C   UNL     1       0.781   2.645  21.365  0.00  0.00    +0.000 A 
ATOM     24  C   UNL     1       2.010   2.854  21.983  0.00  0.00    +0.000 A 
ATOM     25  C   UNL     1       3.115   3.234  21.222  0.00  0.00    +0.000 A 
ENDBRANCH  10  20
BRANCH   1  26
ATOM     26  C   UNL     1       5.331   6.946  15.590  0.00  0.00    +0.000 C 
ATOM     27  O   UNL     1       4.945   7.421  14.527  0.00  0.00    +0.000 OA
BRANCH  26  28
ATOM     28  O   UNL     1       6.057   7.628  16.526  0.00  0.00    +0.000 OA
BRANCH  28  30
ATOM     29  C   UNL     1       8.014   7.950  17.885  0.00  0.00    +0.000 C 
ATOM     30  C   UNL     1       7.254   6.993  16.986  0.00  0.00    +0.000 C 
ENDBRANCH  28  30
ENDBRANCH  26  28
ENDBRANCH   1  26
TORSDOF 5
ENDMDL
MODEL 8
REMARK VINA RESULT:      -6.3      0.408      1.331
REMARK  Name = 
REMARK  6 active torsions:
REMARK  status: ('A' for Active; 'I' for Inactive)
REMARK    1  A    between atoms: C_1  and  C_2
REMARK    2  A    between atoms: C_2  and  O_3
REMARK    3  A    between atoms: O_3  and  C_4
REMARK    4  A    between atoms: C_4  and  C_6
REMARK    5  A    between atoms: N_14  and  C_15
REMARK    6  A    between atoms: C_22  and  C_23
REMARK                            x       y       z     vdW  Elec       q    Type
REMARK                         _______ _______ _______ _____ _____    ______ ____
ROOT
ATOM      1  C   UNL     1      -4.820  13.132  22.521  0.00  0.00    +0.000 A 
ATOM      2  C   UNL     1      -6.043  12.531  22.957  0.00  0.00    +0.000 A 
ATOM      3  N   UNL     1      -6.718  11.919  21.968  0.00  0.00    +0.000 NA
ATOM      4  N   UNL     1      -5.922  12.144  20.930  0.00  0.00    +0.000 N 
ATOM      5  C   UNL     1      -4.738  12.736  21.210  0.00  0.00    +0.000 A 
ATOM      6  N   UNL     1      -3.927  12.725  20.084  0.00  0.00    +0.000 N 
ATOM      7  C   UNL     1      -2.583  13.032  20.204  0.00  0.00    +0.000 C 
ATOM      8  O   UNL     1      -2.053  13.136  21.309  0.00  0.00    +0.000 OA
ATOM      9  N   UNL     1      -1.883  13.170  19.024  0.00  0.00    +0.000 N 
ATOM     10  C   UNL     1      -4.790  12.342  18.911  0.00  0.00    +0.000 C 
ATOM     11  C   UNL     1      -6.048  11.681  19.557  0.00  0.00    +0.000 C 
ATOM     12  H   UNL     1      -2.415  13.214  18.171  0.00  0.00    +0.000 HD
ENDROOT
BRANCH   9  13
ATOM     13  C   UNL     1      -0.494  13.415  18.906  0.00  0.00    +0.000 A 
ATOM     14  C   UNL     1       0.473  12.402  18.847  0.00  0.00    +0.000 A 
ATOM     15  C   UNL     1       1.836  12.705  18.810  0.00  0.00    +0.000 A 
ATOM     16  C   UNL     1       2.237  14.031  18.810  0.00  0.00    +0.000 A 
ATOM     17  F   UNL     1       3.544  14.323  18.802  0.00  0.00    +0.000 F 
ATOM     18  C   UNL     1       1.301  15.055  18.817  0.00  0.00    +0.000 A 
ATOM     19  C   UNL     1      -0.065  14.749  18.853  0.00  0.00    +0.000 A 
ENDBRANCH   9  13
BRANCH  10  20
ATOM     20  C   UNL     1      -4.143  11.466  17.868  0.00  0.00    +0.000 A 
ATOM     21  C   UNL     1      -4.352  11.681  16.497  0.00  0.00    +0.000 A 
ATOM     22  C   UNL     1      -3.761  10.838  15.556  0.00  0.00    +0.000 A 
ATOM     23  C   UNL     1      -2.967   9.770  15.971  0.00  0.00    +0.000 A 
ATOM     24  C   UNL     1      -2.752   9.547  17.328  0.00  0.00    +0.000 A 
ATOM     25  C   UNL     1      -3.329  10.395  18.272  0.00  0.00    +0.000 A 
ENDBRANCH  10  20
BRANCH   1  26
ATOM     26  C   UNL     1      -3.963  13.999  23.291  0.00  0.00    +0.000 C 
ATOM     27  O   UNL     1      -3.325  13.617  24.267  0.00  0.00    +0.000 OA
BRANCH  26  28
ATOM     28  O   UNL     1      -4.093  15.306  22.912  0.00  0.00    +0.000 OA
BRANCH  28  30
ATOM     29  C   UNL     1      -5.174  17.449  23.053  0.00  0.00    +0.000 C 
ATOM     30  C   UNL     1      -4.892  16.137  23.760  0.00  0.00    +0.000 C 
ENDBRANCH  28  30
ENDBRANCH  26  28
ENDBRANCH   1  26
TORSDOF 5
ENDMDL
MODEL 9
REMARK VINA RESULT:      -6.3     11.536     13.897
REMARK  Name = 
REMARK  6 active torsions:
REMARK  status: ('A' for Active; 'I' for Inactive)
REMARK    1  A    between atoms: C_1  and  C_2
REMARK    2  A    between atoms: C_2  and  O_3
REMARK    3  A    between atoms: O_3  and  C_4
REMARK    4  A    between atoms: C_4  and  C_6
REMARK    5  A    between atoms: N_14  and  C_15
REMARK    6  A    between atoms: C_22  and  C_23
REMARK                            x       y       z     vdW  Elec       q    Type
REMARK                         _______ _______ _______ _____ _____    ______ ____
ROOT
ATOM      1  C   UNL     1      11.122  13.537  18.059  0.00  0.00    +0.000 A 
ATOM      2  C   UNL     1      11.737  14.270  16.994  0.00  0.00    +0.000 A 
ATOM      3  N   UNL     1      11.170  15.469  16.775  0.00  0.00    +0.000 NA
ATOM      4  N   UNL     1      10.210  15.476  17.693  0.00  0.00    +0.000 N 
ATOM      5  C   UNL     1      10.211  14.434  18.557  0.00  0.00    +0.000 A 
ATOM      6  N   UNL     1       9.300  14.667  19.577  0.00  0.00    +0.000 N 
ATOM      7  C   UNL     1       9.319  13.870  20.708  0.00  0.00    +0.000 C 
ATOM      8  O   UNL     1      10.240  13.080  20.911  0.00  0.00    +0.000 OA
ATOM      9  N   UNL     1       8.279  14.049  21.596  0.00  0.00    +0.000 N 
ATOM     10  C   UNL     1       8.446  15.836  19.161  0.00  0.00    +0.000 C 
ATOM     11  C   UNL     1       9.269  16.532  18.032  0.00  0.00    +0.000 C 
ATOM     12  H   UNL     1       7.497  14.604  21.289  0.00  0.00    +0.000 HD
ENDROOT
BRANCH   9  13
ATOM     13  C   UNL     1       8.130  13.396  22.843  0.00  0.00    +0.000 A 
ATOM     14  C   UNL     1       7.622  12.097  22.985  0.00  0.00    +0.000 A 
ATOM     15  C   UNL     1       7.424  11.534  24.248  0.00  0.00    +0.000 A 
ATOM     16  C   UNL     1       7.756  12.263  25.378  0.00  0.00    +0.000 A 
ATOM     17  F   UNL     1       7.541  11.735  26.589  0.00  0.00    +0.000 F 
ATOM     18  C   UNL     1       8.308  13.532  25.265  0.00  0.00    +0.000 A 
ATOM     19  C   UNL     1       8.506  14.095  23.999  0.00  0.00    +0.000 A 
ENDBRANCH   9  13
BRANCH  10  20
ATOM     20  C   UNL     1       8.043  16.788  20.259  0.00  0.00    +0.000 A 
ATOM     21  C   UNL     1       8.997  17.510  20.991  0.00  0.00    +0.000 A 
ATOM     22  C   UNL     1       8.596  18.364  22.018  0.00  0.00    +0.000 A 
ATOM     23  C   UNL     1       7.243  18.499  22.330  0.00  0.00    +0.000 A 
ATOM     24  C   UNL     1       6.287  17.789  21.610  0.00  0.00    +0.000 A 
ATOM     25  C   UNL     1       6.682  16.944  20.574  0.00  0.00    +0.000 A 
ENDBRANCH  10  20
BRANCH   1  26
ATOM     26  C   UNL     1      11.381  12.167  18.424  0.00  0.00    +0.000 C 
ATOM     27  O   UNL     1      12.301  11.832  19.163  0.00  0.00    +0.000 OA
BRANCH  26  28
ATOM     28  O   UNL     1      10.601  11.298  17.714  0.00  0.00    +0.000 OA
BRANCH  28  30
ATOM     29  C   UNL     1       9.237  10.079  19.275  0.00  0.00    +0.000 C 
ATOM     30  C   UNL     1       9.258  11.127  18.178  0.00  0.00    +0.000 C 
ENDBRANCH  28  30
ENDBRANCH  26  28
ENDBRANCH   1  26
TORSDOF 5
ENDMDL
