MODEL 1
REMARK VINA RESULT:      -8.3      0.000      0.000
REMARK  Name = 
REMARK  8 active torsions:
REMARK  status: ('A' for Active; 'I' for Inactive)
REMARK    1  A    between atoms: C_1  and  C_2
REMARK    2  A    between atoms: C_2  and  O_3
REMARK    3  A    between atoms: O_3  and  C_4
REMARK    4  A    between atoms: C_4  and  C_6
REMARK    5  A    between atoms: C_8  and  N_9
REMARK    6  A    between atoms: C_10  and  C_12
REMARK    7  A    between atoms: C_14  and  C_15
REMARK    8  A    between atoms: C_30  and  C_31
REMARK                            x       y       z     vdW  Elec       q    Type
REMARK                         _______ _______ _______ _____ _____    ______ ____
ROOT
ATOM      1  C   UNL     1       2.776   5.978  18.707  0.00  0.00    +0.000 A 
ATOM      2  C   UNL     1       3.765   6.043  17.722  0.00  0.00    +0.000 A 
ATOM      3  C   UNL     1       4.194   4.882  17.107  0.00  0.00    +0.000 A 
ATOM      4  N   UNL     1       3.688   3.679  17.458  0.00  0.00    +0.000 NA
ATOM      5  C   UNL     1       2.776   3.593  18.441  0.00  0.00    +0.000 A 
ATOM      6  C   UNL     1       2.325   2.326  18.788  0.00  0.00    +0.000 A 
ATOM      7  C   UNL     1       1.379   2.126  19.794  0.00  0.00    +0.000 A 
ATOM      8  C   UNL     1       0.864   3.219  20.473  0.00  0.00    +0.000 A 
ATOM      9  C   UNL     1       1.297   4.502  20.137  0.00  0.00    +0.000 A 
ATOM     10  C   UNL     1       2.266   4.720  19.121  0.00  0.00    +0.000 A 
ENDROOT
BRANCH   3  11
ATOM     11  C   UNL     1       5.198   4.878  16.022  0.00  0.00    +0.000 A 
ATOM     12  C   UNL     1       5.059   4.068  14.876  0.00  0.00    +0.000 A 
ATOM     13  C   UNL     1       6.024   4.069  13.864  0.00  0.00    +0.000 A 
ATOM     14  C   UNL     1       7.137   4.886  13.980  0.00  0.00    +0.000 A 
ATOM     15  F   UNL     1       8.055   4.895  13.005  0.00  0.00    +0.000 F 
ATOM     16  C   UNL     1       7.309   5.698  15.092  0.00  0.00    +0.000 A 
ATOM     17  C   UNL     1       6.345   5.692  16.105  0.00  0.00    +0.000 A 
ENDBRANCH   3  11
BRANCH   1  19
ATOM     18  N   UNL     1       1.981   8.253  18.381  0.00  0.00    +0.000 N 
ATOM     19  C   UNL     1       2.317   7.272  19.309  0.00  0.00    +0.000 C 
ATOM     20  O   UNL     1       2.298   7.371  20.528  0.00  0.00    +0.000 OA
ATOM     21  H   UNL     1       2.033   8.030  17.398  0.00  0.00    +0.000 HD
BRANCH  18  24
ATOM     22  C   UNL     1       0.294  11.540  19.382  0.00  0.00    +0.000 A 
ATOM     23  S   UNL     1       0.183   9.842  19.602  0.00  0.00    +0.000 S 
ATOM     24  C   UNL     1       1.546   9.536  18.658  0.00  0.00    +0.000 A 
ATOM     25  C   UNL     1       2.124  10.701  18.207  0.00  0.00    +0.000 A 
ATOM     26  C   UNL     1       1.414  11.881  18.626  0.00  0.00    +0.000 A 
ATOM     27  C   UNL     1       1.839  13.267  18.249  0.00  0.00    +0.000 C 
BRANCH  22  28
ATOM     28  C   UNL     1      -0.779  12.345  19.946  0.00  0.00    +0.000 C 
ATOM     29  O   UNL     1      -1.684  12.888  19.322  0.00  0.00    +0.000 OA
BRANCH  28  30
ATOM     30  O   UNL     1      -0.587  12.507  21.286  0.00  0.00    +0.000 OA
BRANCH  30  32
ATOM     31  C   UNL     1      -1.153  10.975  23.025  0.00  0.00    +0.000 C 
ATOM     32  C   UNL     1      -1.672  12.073  22.115  0.00  0.00    +0.000 C 
ENDBRANCH  30  32
ENDBRANCH  28  30
ENDBRANCH  22  28
ENDBRANCH  18  24
ENDBRANCH   1  19
TORSDOF 6
ENDMDL
MODEL 2
REMARK VINA RESULT:      -8.3      0.819      1.621
REMARK  Name = 
REMARK  8 active torsions:
REMARK  status: ('A' for Active; 'I' for Inactive)
REMARK    1  A    between atoms: C_1  and  C_2
REMARK    2  A    between atoms: C_2  and  O_3
REMARK    3  A    between atoms: O_3  and  C_4
REMARK    4  A    between atoms: C_4  and  C_6
REMARK    5  A    between atoms: C_8  and  N_9
REMARK    6  A    between atoms: C_10  and  C_12
REMARK    7  A    between atoms: C_14  and  C_15
REMARK    8  A    between atoms: C_30  and  C_31
REMARK                            x       y       z     vdW  Elec       q    Type
REMARK                         _______ _______ _______ _____ _____    ______ ____
ROOT
ATOM      1  C   UNL     1       2.870   5.848  18.415  0.00  0.00    +0.000 A 
ATOM      2  C   UNL     1       3.874   5.923  17.446  0.00  0.00    +0.000 A 
ATOM      3  C   UNL     1       4.275   4.774  16.789  0.00  0.00    +0.000 A 
ATOM      4  N   UNL     1       3.728   3.575  17.085  0.00  0.00    +0.000 NA
ATOM      5  C   UNL     1       2.800   3.477  18.053  0.00  0.00    +0.000 A 
ATOM      6  C   UNL     1       2.306   2.212  18.342  0.00  0.00    +0.000 A 
ATOM      7  C   UNL     1       1.341   2.001  19.326  0.00  0.00    +0.000 A 
ATOM      8  C   UNL     1       0.849   3.081  20.042  0.00  0.00    +0.000 A 
ATOM      9  C   UNL     1       1.326   4.363  19.764  0.00  0.00    +0.000 A 
ATOM     10  C   UNL     1       2.315   4.592  18.770  0.00  0.00    +0.000 A 
ENDROOT
BRANCH   3  11
ATOM     11  C   UNL     1       5.294   4.782  15.719  0.00  0.00    +0.000 A 
ATOM     12  C   UNL     1       6.507   5.491  15.843  0.00  0.00    +0.000 A 
ATOM     13  C   UNL     1       7.455   5.497  14.816  0.00  0.00    +0.000 A 
ATOM     14  C   UNL     1       7.207   4.787  13.652  0.00  0.00    +0.000 A 
ATOM     15  F   UNL     1       8.121   4.782  12.674  0.00  0.00    +0.000 F 
ATOM     16  C   UNL     1       6.027   4.075  13.492  0.00  0.00    +0.000 A 
ATOM     17  C   UNL     1       5.078   4.075  14.518  0.00  0.00    +0.000 A 
ENDBRANCH   3  11
BRANCH   1  19
ATOM     18  N   UNL     1       2.084   8.137  18.171  0.00  0.00    +0.000 N 
ATOM     19  C   UNL     1       2.441   7.130  19.063  0.00  0.00    +0.000 C 
ATOM     20  O   UNL     1       2.463   7.200  20.284  0.00  0.00    +0.000 OA
ATOM     21  H   UNL     1       2.101   7.938  17.181  0.00  0.00    +0.000 HD
BRANCH  18  24
ATOM     22  C   UNL     1       0.460  11.411  19.308  0.00  0.00    +0.000 A 
ATOM     23  S   UNL     1       0.345   9.710  19.493  0.00  0.00    +0.000 S 
ATOM     24  C   UNL     1       1.669   9.417  18.493  0.00  0.00    +0.000 A 
ATOM     25  C   UNL     1       2.239  10.587  18.047  0.00  0.00    +0.000 A 
ATOM     26  C   UNL     1       1.553  11.762  18.519  0.00  0.00    +0.000 A 
ATOM     27  C   UNL     1       1.975  13.153  18.158  0.00  0.00    +0.000 C 
BRANCH  22  28
ATOM     28  C   UNL     1      -0.585  12.210  19.931  0.00  0.00    +0.000 C 
ATOM     29  O   UNL     1      -0.750  12.378  21.134  0.00  0.00    +0.000 OA
BRANCH  28  30
ATOM     30  O   UNL     1      -1.443  12.681  18.981  0.00  0.00    +0.000 OA
BRANCH  30  32
ATOM     31  C   UNL     1      -2.631  11.255  17.483  0.00  0.00    +0.000 C 
ATOM     32  C   UNL     1      -2.660  11.939  18.838  0.00  0.00    +0.000 C 
ENDBRANCH  30  32
ENDBRANCH  28  30
ENDBRANCH  22  28
ENDBRANCH  18  24
ENDBRANCH   1  19
TORSDOF 6
ENDMDL
MODEL 3
REMARK VINA RESULT:      -8.3      3.795      9.225
REMARK  Name = 
REMARK  8 active torsions:
REMARK  status: ('A' for Active; 'I' for Inactive)
REMARK    1  A    between atoms: C_1  and  C_2
REMARK    2  A    between atoms: C_2  and  O_3
REMARK    3  A    between atoms: O_3  and  C_4
REMARK    4  A    between atoms: C_4  and  C_6
REMARK    5  A    between atoms: C_8  and  N_9
REMARK    6  A    between atoms: C_10  and  C_12
REMARK    7  A    between atoms: C_14  and  C_15
REMARK    8  A    between atoms: C_30  and  C_31
REMARK                            x       y       z     vdW  Elec       q    Type
REMARK                         _______ _______ _______ _____ _____    ______ ____
ROOT
ATOM      1  C   UNL     1       1.058  10.491  19.389  0.00  0.00    +0.000 A 
ATOM      2  C   UNL     1       1.201  11.771  18.846  0.00  0.00    +0.000 A 
ATOM      3  C   UNL     1       0.766  12.870  19.564  0.00  0.00    +0.000 A 
ATOM      4  N   UNL     1       0.185  12.726  20.775  0.00  0.00    +0.000 NA
ATOM      5  C   UNL     1      -0.009  11.499  21.287  0.00  0.00    +0.000 A 
ATOM      6  C   UNL     1      -0.651  11.412  22.516  0.00  0.00    +0.000 A 
ATOM      7  C   UNL     1      -0.901  10.187  23.136  0.00  0.00    +0.000 A 
ATOM      8  C   UNL     1      -0.497   9.015  22.518  0.00  0.00    +0.000 A 
ATOM      9  C   UNL     1       0.155   9.078  21.286  0.00  0.00    +0.000 A 
ATOM     10  C   UNL     1       0.409  10.317  20.639  0.00  0.00    +0.000 A 
ENDROOT
BRANCH   3  11
ATOM     11  C   UNL     1       0.930  14.255  19.077  0.00  0.00    +0.000 A 
ATOM     12  C   UNL     1       2.184  14.770  18.687  0.00  0.00    +0.000 A 
ATOM     13  C   UNL     1       2.322  16.086  18.239  0.00  0.00    +0.000 A 
ATOM     14  C   UNL     1       1.207  16.906  18.166  0.00  0.00    +0.000 A 
ATOM     15  F   UNL     1       1.339  18.163  17.724  0.00  0.00    +0.000 F 
ATOM     16  C   UNL     1      -0.044  16.436  18.538  0.00  0.00    +0.000 A 
ATOM     17  C   UNL     1      -0.180  15.121  18.991  0.00  0.00    +0.000 A 
ENDBRANCH   3  11
BRANCH   1  19
ATOM     18  N   UNL     1       2.213   8.352  19.342  0.00  0.00    +0.000 N 
ATOM     19  C   UNL     1       1.586   9.339  18.588  0.00  0.00    +0.000 C 
ATOM     20  O   UNL     1       1.453   9.367  17.372  0.00  0.00    +0.000 OA
ATOM     21  H   UNL     1       2.241   8.452  20.347  0.00  0.00    +0.000 HD
BRANCH  18  24
ATOM     22  C   UNL     1       3.698   4.915  18.544  0.00  0.00    +0.000 A 
ATOM     23  S   UNL     1       2.709   5.728  19.686  0.00  0.00    +0.000 S 
ATOM     24  C   UNL     1       2.801   7.195  18.862  0.00  0.00    +0.000 A 
ATOM     25  C   UNL     1       3.533   7.082  17.702  0.00  0.00    +0.000 A 
ATOM     26  C   UNL     1       4.056   5.757  17.494  0.00  0.00    +0.000 A 
ATOM     27  C   UNL     1       4.897   5.389  16.310  0.00  0.00    +0.000 C 
BRANCH  22  28
ATOM     28  C   UNL     1       4.050   3.536  18.847  0.00  0.00    +0.000 C 
ATOM     29  O   UNL     1       4.985   3.163  19.546  0.00  0.00    +0.000 OA
BRANCH  28  30
ATOM     30  O   UNL     1       3.243   2.684  18.152  0.00  0.00    +0.000 OA
BRANCH  30  32
ATOM     31  C   UNL     1       0.930   2.494  18.704  0.00  0.00    +0.000 C 
ATOM     32  C   UNL     1       2.319   1.933  18.950  0.00  0.00    +0.000 C 
ENDBRANCH  30  32
ENDBRANCH  28  30
ENDBRANCH  22  28
ENDBRANCH  18  24
ENDBRANCH   1  19
TORSDOF 6
ENDMDL
MODEL 4
REMARK VINA RESULT:      -8.2      1.561      2.382
REMARK  Name = 
REMARK  8 active torsions:
REMARK  status: ('A' for Active; 'I' for Inactive)
REMARK    1  A    between atoms: C_1  and  C_2
REMARK    2  A    between atoms: C_2  and  O_3
REMARK    3  A    between atoms: O_3  and  C_4
REMARK    4  A    between atoms: C_4  and  C_6
REMARK    5  A    between atoms: C_8  and  N_9
REMARK    6  A    between atoms: C_10  and  C_12
REMARK    7  A    between atoms: C_14  and  C_15
REMARK    8  A    between atoms: C_30  and  C_31
REMARK                            x       y       z     vdW  Elec       q    Type
REMARK                         _______ _______ _______ _____ _____    ______ ____
ROOT
ATOM      1  C   UNL     1       2.929   6.207  18.573  0.00  0.00    +0.000 A 
ATOM      2  C   UNL     1       3.770   6.158  17.458  0.00  0.00    +0.000 A 
ATOM      3  C   UNL     1       4.450   4.990  17.166  0.00  0.00    +0.000 A 
ATOM      4  N   UNL     1       4.333   3.900  17.955  0.00  0.00    +0.000 NA
ATOM      5  C   UNL     1       3.572   3.947  19.062  0.00  0.00    +0.000 A 
ATOM      6  C   UNL     1       3.525   2.810  19.857  0.00  0.00    +0.000 A 
ATOM      7  C   UNL     1       2.765   2.753  21.025  0.00  0.00    +0.000 A 
ATOM      8  C   UNL     1       2.026   3.860  21.413  0.00  0.00    +0.000 A 
ATOM      9  C   UNL     1       2.053   5.012  20.626  0.00  0.00    +0.000 A 
ATOM     10  C   UNL     1       2.829   5.087  19.438  0.00  0.00    +0.000 A 
ENDROOT
BRANCH   3  11
ATOM     11  C   UNL     1       5.316   4.848  15.977  0.00  0.00    +0.000 A 
ATOM     12  C   UNL     1       6.601   5.425  15.912  0.00  0.00    +0.000 A 
ATOM     13  C   UNL     1       7.403   5.289  14.775  0.00  0.00    +0.000 A 
ATOM     14  C   UNL     1       6.935   4.566  13.690  0.00  0.00    +0.000 A 
ATOM     15  F   UNL     1       7.708   4.425  12.606  0.00  0.00    +0.000 F 
ATOM     16  C   UNL     1       5.676   3.981  13.715  0.00  0.00    +0.000 A 
ATOM     17  C   UNL     1       4.874   4.123  14.851  0.00  0.00    +0.000 A 
ENDBRANCH   3  11
BRANCH   1  19
ATOM     18  N   UNL     1       1.912   7.746  20.156  0.00  0.00    +0.000 N 
ATOM     19  C   UNL     1       2.182   7.483  18.817  0.00  0.00    +0.000 C 
ATOM     20  O   UNL     1       1.854   8.159  17.851  0.00  0.00    +0.000 OA
ATOM     21  H   UNL     1       2.253   7.104  20.857  0.00  0.00    +0.000 HD
BRANCH  18  24
ATOM     22  C   UNL     1       0.335  11.086  21.163  0.00  0.00    +0.000 A 
ATOM     23  S   UNL     1       1.325  10.367  19.962  0.00  0.00    +0.000 S 
ATOM     24  C   UNL     1       1.227   8.837  20.662  0.00  0.00    +0.000 A 
ATOM     25  C   UNL     1       0.417   8.838  21.775  0.00  0.00    +0.000 A 
ATOM     26  C   UNL     1      -0.120  10.139  22.078  0.00  0.00    +0.000 A 
ATOM     27  C   UNL     1      -1.017  10.399  23.249  0.00  0.00    +0.000 C 
BRANCH  22  28
ATOM     28  C   UNL     1       0.161  12.529  21.091  0.00  0.00    +0.000 C 
ATOM     29  O   UNL     1       0.530  13.347  21.926  0.00  0.00    +0.000 OA
BRANCH  28  30
ATOM     30  O   UNL     1      -0.576  12.857  19.992  0.00  0.00    +0.000 OA
BRANCH  30  32
ATOM     31  C   UNL     1      -2.478  11.891  18.923  0.00  0.00    +0.000 C 
ATOM     32  C   UNL     1      -1.991  12.674  20.129  0.00  0.00    +0.000 C 
ENDBRANCH  30  32
ENDBRANCH  28  30
ENDBRANCH  22  28
ENDBRANCH  18  24
ENDBRANCH   1  19
TORSDOF 6
ENDMDL
MODEL 5
REMARK VINA RESULT:      -8.1      0.992      1.228
REMARK  Name = 
REMARK  8 active torsions:
REMARK  status: ('A' for Active; 'I' for Inactive)
REMARK    1  A    between atoms: C_1  and  C_2
REMARK    2  A    between atoms: C_2  and  O_3
REMARK    3  A    between atoms: O_3  and  C_4
REMARK    4  A    between atoms: C_4  and  C_6
REMARK    5  A    between atoms: C_8  and  N_9
REMARK    6  A    between atoms: C_10  and  C_12
REMARK    7  A    between atoms: C_14  and  C_15
REMARK    8  A    between atoms: C_30  and  C_31
REMARK                            x       y       z     vdW  Elec       q    Type
REMARK                         _______ _______ _______ _____ _____    ______ ____
ROOT
ATOM      1  C   UNL     1       2.743   6.104  18.753  0.00  0.00    +0.000 A 
ATOM      2  C   UNL     1       3.707   6.145  17.742  0.00  0.00    +0.000 A 
ATOM      3  C   UNL     1       4.172   4.964  17.195  0.00  0.00    +0.000 A 
ATOM      4  N   UNL     1       3.727   3.767  17.637  0.00  0.00    +0.000 NA
ATOM      5  C   UNL     1       2.840   3.709  18.646  0.00  0.00    +0.000 A 
ATOM      6  C   UNL     1       2.452   2.451  19.086  0.00  0.00    +0.000 A 
ATOM      7  C   UNL     1       1.538   2.279  20.126  0.00  0.00    +0.000 A 
ATOM      8  C   UNL     1       0.990   3.392  20.743  0.00  0.00    +0.000 A 
ATOM      9  C   UNL     1       1.360   4.667  20.313  0.00  0.00    +0.000 A 
ATOM     10  C   UNL     1       2.297   4.857  19.261  0.00  0.00    +0.000 A 
ENDROOT
BRANCH   3  11
ATOM     11  C   UNL     1       5.152   4.929  16.089  0.00  0.00    +0.000 A 
ATOM     12  C   UNL     1       4.946   4.154  14.929  0.00  0.00    +0.000 A 
ATOM     13  C   UNL     1       5.887   4.125  13.897  0.00  0.00    +0.000 A 
ATOM     14  C   UNL     1       7.046   4.877  14.006  0.00  0.00    +0.000 A 
ATOM     15  F   UNL     1       7.943   4.858  13.011  0.00  0.00    +0.000 F 
ATOM     16  C   UNL     1       7.285   5.653  15.131  0.00  0.00    +0.000 A 
ATOM     17  C   UNL     1       6.344   5.678  16.164  0.00  0.00    +0.000 A 
ENDBRANCH   3  11
BRANCH   1  19
ATOM     18  N   UNL     1       1.966   8.363  18.299  0.00  0.00    +0.000 N 
ATOM     19  C   UNL     1       2.241   7.415  19.280  0.00  0.00    +0.000 C 
ATOM     20  O   UNL     1       2.140   7.555  20.491  0.00  0.00    +0.000 OA
ATOM     21  H   UNL     1       2.083   8.108  17.329  0.00  0.00    +0.000 HD
BRANCH  18  24
ATOM     22  C   UNL     1       0.183  11.675  19.010  0.00  0.00    +0.000 A 
ATOM     23  S   UNL     1       0.009   9.979  19.199  0.00  0.00    +0.000 S 
ATOM     24  C   UNL     1       1.509   9.653  18.503  0.00  0.00    +0.000 A 
ATOM     25  C   UNL     1       2.175  10.809  18.164  0.00  0.00    +0.000 A 
ATOM     26  C   UNL     1       1.422  12.000  18.461  0.00  0.00    +0.000 A 
ATOM     27  C   UNL     1       1.927  13.379  18.169  0.00  0.00    +0.000 C 
BRANCH  22  28
ATOM     28  C   UNL     1      -0.958  12.496  19.385  0.00  0.00    +0.000 C 
ATOM     29  O   UNL     1      -0.918  13.652  19.793  0.00  0.00    +0.000 OA
BRANCH  28  30
ATOM     30  O   UNL     1      -2.105  11.762  19.317  0.00  0.00    +0.000 OA
BRANCH  30  32
ATOM     31  C   UNL     1      -4.448  11.971  18.918  0.00  0.00    +0.000 C 
ATOM     32  C   UNL     1      -3.285  12.432  19.779  0.00  0.00    +0.000 C 
ENDBRANCH  30  32
ENDBRANCH  28  30
ENDBRANCH  22  28
ENDBRANCH  18  24
ENDBRANCH   1  19
TORSDOF 6
ENDMDL
MODEL 6
REMARK VINA RESULT:      -8.1      1.315      2.553
REMARK  Name = 
REMARK  8 active torsions:
REMARK  status: ('A' for Active; 'I' for Inactive)
REMARK    1  A    between atoms: C_1  and  C_2
REMARK    2  A    between atoms: C_2  and  O_3
REMARK    3  A    between atoms: O_3  and  C_4
REMARK    4  A    between atoms: C_4  and  C_6
REMARK    5  A    between atoms: C_8  and  N_9
REMARK    6  A    between atoms: C_10  and  C_12
REMARK    7  A    between atoms: C_14  and  C_15
REMARK    8  A    between atoms: C_30  and  C_31
REMARK                            x       y       z     vdW  Elec       q    Type
REMARK                         _______ _______ _______ _____ _____    ______ ____
ROOT
ATOM      1  C   UNL     1       2.732   6.132  18.732  0.00  0.00    +0.000 A 
ATOM      2  C   UNL     1       3.716   6.182  17.741  0.00  0.00    +0.000 A 
ATOM      3  C   UNL     1       4.222   5.005  17.222  0.00  0.00    +0.000 A 
ATOM      4  N   UNL     1       3.798   3.804  17.674  0.00  0.00    +0.000 NA
ATOM      5  C   UNL     1       2.893   3.739  18.665  0.00  0.00    +0.000 A 
ATOM      6  C   UNL     1       2.528   2.478  19.118  0.00  0.00    +0.000 A 
ATOM      7  C   UNL     1       1.596   2.299  20.141  0.00  0.00    +0.000 A 
ATOM      8  C   UNL     1       1.007   3.407  20.729  0.00  0.00    +0.000 A 
ATOM      9  C   UNL     1       1.354   4.684  20.286  0.00  0.00    +0.000 A 
ATOM     10  C   UNL     1       2.307   4.882  19.251  0.00  0.00    +0.000 A 
ENDROOT
BRANCH   3  11
ATOM     11  C   UNL     1       5.226   4.978  16.138  0.00  0.00    +0.000 A 
ATOM     12  C   UNL     1       6.421   5.724  16.203  0.00  0.00    +0.000 A 
ATOM     13  C   UNL     1       7.354   5.696  15.164  0.00  0.00    +0.000 A 
ATOM     14  C   UNL     1       7.111   4.914  14.046  0.00  0.00    +0.000 A 
ATOM     15  F   UNL     1       8.011   4.877  13.056  0.00  0.00    +0.000 F 
ATOM     16  C   UNL     1       5.947   4.164  13.944  0.00  0.00    +0.000 A 
ATOM     17  C   UNL     1       5.013   4.198  14.983  0.00  0.00    +0.000 A 
ENDBRANCH   3  11
BRANCH   1  19
ATOM     18  N   UNL     1       1.798   8.318  18.223  0.00  0.00    +0.000 N 
ATOM     19  C   UNL     1       2.186   7.438  19.228  0.00  0.00    +0.000 C 
ATOM     20  O   UNL     1       2.149   7.632  20.435  0.00  0.00    +0.000 OA
ATOM     21  H   UNL     1       1.873   8.022  17.260  0.00  0.00    +0.000 HD
BRANCH  18  24
ATOM     22  C   UNL     1       0.923  12.025  18.607  0.00  0.00    +0.000 A 
ATOM     23  S   UNL     1       2.184  10.980  18.100  0.00  0.00    +0.000 S 
ATOM     24  C   UNL     1       1.279   9.590  18.394  0.00  0.00    +0.000 A 
ATOM     25  C   UNL     1       0.009   9.892  18.831  0.00  0.00    +0.000 A 
ATOM     26  C   UNL     1      -0.221  11.309  18.953  0.00  0.00    +0.000 A 
ATOM     27  C   UNL     1      -1.520  11.886  19.424  0.00  0.00    +0.000 C 
BRANCH  22  28
ATOM     28  C   UNL     1       1.228  13.447  18.652  0.00  0.00    +0.000 C 
ATOM     29  O   UNL     1       0.423  14.366  18.550  0.00  0.00    +0.000 OA
BRANCH  28  30
ATOM     30  O   UNL     1       2.577  13.634  18.726  0.00  0.00    +0.000 OA
BRANCH  30  32
ATOM     31  C   UNL     1       3.999  15.295  17.772  0.00  0.00    +0.000 C 
ATOM     32  C   UNL     1       2.997  14.996  18.873  0.00  0.00    +0.000 C 
ENDBRANCH  30  32
ENDBRANCH  28  30
ENDBRANCH  22  28
ENDBRANCH  18  24
ENDBRANCH   1  19
TORSDOF 6
ENDMDL
MODEL 7
REMARK VINA RESULT:      -8.1      1.489      2.371
REMARK  Name = 
REMARK  8 active torsions:
REMARK  status: ('A' for Active; 'I' for Inactive)
REMARK    1  A    between atoms: C_1  and  C_2
REMARK    2  A    between atoms: C_2  and  O_3
REMARK    3  A    between atoms: O_3  and  C_4
REMARK    4  A    between atoms: C_4  and  C_6
REMARK    5  A    between atoms: C_8  and  N_9
REMARK    6  A    between atoms: C_10  and  C_12
REMARK    7  A    between atoms: C_14  and  C_15
REMARK    8  A    between atoms: C_30  and  C_31
REMARK                            x       y       z     vdW  Elec       q    Type
REMARK                         _______ _______ _______ _____ _____    ______ ____
ROOT
ATOM      1  C   UNL     1       2.940   6.166  18.618  0.00  0.00    +0.000 A 
ATOM      2  C   UNL     1       3.771   6.129  17.495  0.00  0.00    +0.000 A 
ATOM      3  C   UNL     1       4.474   4.975  17.203  0.00  0.00    +0.000 A 
ATOM      4  N   UNL     1       4.388   3.886  17.999  0.00  0.00    +0.000 NA
ATOM      5  C   UNL     1       3.636   3.923  19.112  0.00  0.00    +0.000 A 
ATOM      6  C   UNL     1       3.621   2.789  19.914  0.00  0.00    +0.000 A 
ATOM      7  C   UNL     1       2.873   2.723  21.090  0.00  0.00    +0.000 A 
ATOM      8  C   UNL     1       2.115   3.816  21.478  0.00  0.00    +0.000 A 
ATOM      9  C   UNL     1       2.109   4.964  20.685  0.00  0.00    +0.000 A 
ATOM     10  C   UNL     1       2.872   5.049  19.490  0.00  0.00    +0.000 A 
ENDROOT
BRANCH   3  11
ATOM     11  C   UNL     1       5.331   4.844  16.006  0.00  0.00    +0.000 A 
ATOM     12  C   UNL     1       4.918   4.129  14.863  0.00  0.00    +0.000 A 
ATOM     13  C   UNL     1       5.746   4.006  13.744  0.00  0.00    +0.000 A 
ATOM     14  C   UNL     1       6.996   4.605  13.748  0.00  0.00    +0.000 A 
ATOM     15  F   UNL     1       7.784   4.497  12.670  0.00  0.00    +0.000 F 
ATOM     16  C   UNL     1       7.438   5.318  14.853  0.00  0.00    +0.000 A 
ATOM     17  C   UNL     1       6.610   5.435  15.973  0.00  0.00    +0.000 A 
ENDBRANCH   3  11
BRANCH   1  19
ATOM     18  N   UNL     1       1.943   7.714  20.206  0.00  0.00    +0.000 N 
ATOM     19  C   UNL     1       2.168   7.427  18.863  0.00  0.00    +0.000 C 
ATOM     20  O   UNL     1       1.785   8.072  17.896  0.00  0.00    +0.000 OA
ATOM     21  H   UNL     1       2.329   7.098  20.906  0.00  0.00    +0.000 HD
BRANCH  18  24
ATOM     22  C   UNL     1       0.335  11.038  21.216  0.00  0.00    +0.000 A 
ATOM     23  S   UNL     1       1.328  10.328  20.011  0.00  0.00    +0.000 S 
ATOM     24  C   UNL     1       1.249   8.798  20.713  0.00  0.00    +0.000 A 
ATOM     25  C   UNL     1       0.444   8.792  21.830  0.00  0.00    +0.000 A 
ATOM     26  C   UNL     1      -0.106  10.087  22.134  0.00  0.00    +0.000 A 
ATOM     27  C   UNL     1      -1.000  10.338  23.309  0.00  0.00    +0.000 C 
BRANCH  22  28
ATOM     28  C   UNL     1       0.145  12.479  21.143  0.00  0.00    +0.000 C 
ATOM     29  O   UNL     1       0.774  13.326  21.768  0.00  0.00    +0.000 OA
BRANCH  28  30
ATOM     30  O   UNL     1      -0.921  12.770  20.344  0.00  0.00    +0.000 OA
BRANCH  30  32
ATOM     31  C   UNL     1      -0.311  13.621  18.201  0.00  0.00    +0.000 C 
ATOM     32  C   UNL     1      -0.805  13.983  19.591  0.00  0.00    +0.000 C 
ENDBRANCH  30  32
ENDBRANCH  28  30
ENDBRANCH  22  28
ENDBRANCH  18  24
ENDBRANCH   1  19
TORSDOF 6
ENDMDL
MODEL 8
REMARK VINA RESULT:      -8.1      1.178      1.484
REMARK  Name = 
REMARK  8 active torsions:
REMARK  status: ('A' for Active; 'I' for Inactive)
REMARK    1  A    between atoms: C_1  and  C_2
REMARK    2  A    between atoms: C_2  and  O_3
REMARK    3  A    between atoms: O_3  and  C_4
REMARK    4  A    between atoms: C_4  and  C_6
REMARK    5  A    between atoms: C_8  and  N_9
REMARK    6  A    between atoms: C_10  and  C_12
REMARK    7  A    between atoms: C_14  and  C_15
REMARK    8  A    between atoms: C_30  and  C_31
REMARK                            x       y       z     vdW  Elec       q    Type
REMARK                         _______ _______ _______ _____ _____    ______ ____
ROOT
ATOM      1  C   UNL     1       2.655   6.216  18.736  0.00  0.00    +0.000 A 
ATOM      2  C   UNL     1       3.631   6.256  17.737  0.00  0.00    +0.000 A 
ATOM      3  C   UNL     1       4.178   5.075  17.270  0.00  0.00    +0.000 A 
ATOM      4  N   UNL     1       3.800   3.882  17.779  0.00  0.00    +0.000 NA
ATOM      5  C   UNL     1       2.902   3.830  18.778  0.00  0.00    +0.000 A 
ATOM      6  C   UNL     1       2.585   2.579  19.291  0.00  0.00    +0.000 A 
ATOM      7  C   UNL     1       1.666   2.414  20.327  0.00  0.00    +0.000 A 
ATOM      8  C   UNL     1       1.040   3.526  20.867  0.00  0.00    +0.000 A 
ATOM      9  C   UNL     1       1.337   4.793  20.363  0.00  0.00    +0.000 A 
ATOM     10  C   UNL     1       2.278   4.977  19.314  0.00  0.00    +0.000 A 
ENDROOT
BRANCH   3  11
ATOM     11  C   UNL     1       5.176   5.034  16.181  0.00  0.00    +0.000 A 
ATOM     12  C   UNL     1       4.982   4.268  15.014  0.00  0.00    +0.000 A 
ATOM     13  C   UNL     1       5.941   4.233  13.999  0.00  0.00    +0.000 A 
ATOM     14  C   UNL     1       7.107   4.971  14.132  0.00  0.00    +0.000 A 
ATOM     15  F   UNL     1       8.021   4.946  13.153  0.00  0.00    +0.000 F 
ATOM     16  C   UNL     1       7.335   5.739  15.265  0.00  0.00    +0.000 A 
ATOM     17  C   UNL     1       6.376   5.769  16.281  0.00  0.00    +0.000 A 
ENDBRANCH   3  11
BRANCH   1  19
ATOM     18  N   UNL     1       1.606   8.326  18.133  0.00  0.00    +0.000 N 
ATOM     19  C   UNL     1       2.063   7.523  19.174  0.00  0.00    +0.000 C 
ATOM     20  O   UNL     1       2.052   7.785  20.368  0.00  0.00    +0.000 OA
ATOM     21  H   UNL     1       1.667   7.978  17.187  0.00  0.00    +0.000 HD
BRANCH  18  24
ATOM     22  C   UNL     1       0.566  11.976  18.637  0.00  0.00    +0.000 A 
ATOM     23  S   UNL     1       1.948  10.961  18.567  0.00  0.00    +0.000 S 
ATOM     24  C   UNL     1       1.035   9.581  18.249  0.00  0.00    +0.000 A 
ATOM     25  C   UNL     1      -0.307   9.870  18.147  0.00  0.00    +0.000 A 
ATOM     26  C   UNL     1      -0.600  11.264  18.361  0.00  0.00    +0.000 A 
ATOM     27  C   UNL     1      -1.988  11.822  18.316  0.00  0.00    +0.000 C 
BRANCH  22  28
ATOM     28  C   UNL     1       0.791  13.364  19.010  0.00  0.00    +0.000 C 
ATOM     29  O   UNL     1       1.590  14.135  18.489  0.00  0.00    +0.000 OA
BRANCH  28  30
ATOM     30  O   UNL     1       0.050  13.679  20.110  0.00  0.00    +0.000 OA
BRANCH  30  32
ATOM     31  C   UNL     1      -0.668  12.666  22.148  0.00  0.00    +0.000 C 
ATOM     32  C   UNL     1       0.533  13.137  21.346  0.00  0.00    +0.000 C 
ENDBRANCH  30  32
ENDBRANCH  28  30
ENDBRANCH  22  28
ENDBRANCH  18  24
ENDBRANCH   1  19
TORSDOF 6
ENDMDL
MODEL 9
REMARK VINA RESULT:      -8.1      1.551      2.262
REMARK  Name = 
REMARK  8 active torsions:
REMARK  status: ('A' for Active; 'I' for Inactive)
REMARK    1  A    between atoms: C_1  and  C_2
REMARK    2  A    between atoms: C_2  and  O_3
REMARK    3  A    between atoms: O_3  and  C_4
REMARK    4  A    between atoms: C_4  and  C_6
REMARK    5  A    between atoms: C_8  and  N_9
REMARK    6  A    between atoms: C_10  and  C_12
REMARK    7  A    between atoms: C_14  and  C_15
REMARK    8  A    between atoms: C_30  and  C_31
REMARK                            x       y       z     vdW  Elec       q    Type
REMARK                         _______ _______ _______ _____ _____    ______ ____
ROOT
ATOM      1  C   UNL     1       2.876   6.155  18.623  0.00  0.00    +0.000 A 
ATOM      2  C   UNL     1       3.755   6.149  17.537  0.00  0.00    +0.000 A 
ATOM      3  C   UNL     1       4.507   5.019  17.275  0.00  0.00    +0.000 A 
ATOM      4  N   UNL     1       4.422   3.926  18.064  0.00  0.00    +0.000 NA
ATOM      5  C   UNL     1       3.622   3.935  19.144  0.00  0.00    +0.000 A 
ATOM      6  C   UNL     1       3.609   2.799  19.943  0.00  0.00    +0.000 A 
ATOM      7  C   UNL     1       2.814   2.705  21.085  0.00  0.00    +0.000 A 
ATOM      8  C   UNL     1       2.004   3.772  21.442  0.00  0.00    +0.000 A 
ATOM      9  C   UNL     1       1.995   4.921  20.651  0.00  0.00    +0.000 A 
ATOM     10  C   UNL     1       2.806   5.034  19.490  0.00  0.00    +0.000 A 
ENDROOT
BRANCH   3  11
ATOM     11  C   UNL     1       5.420   4.919  16.116  0.00  0.00    +0.000 A 
ATOM     12  C   UNL     1       6.700   5.510  16.118  0.00  0.00    +0.000 A 
ATOM     13  C   UNL     1       7.546   5.415  15.010  0.00  0.00    +0.000 A 
ATOM     14  C   UNL     1       7.128   4.721  13.886  0.00  0.00    +0.000 A 
ATOM     15  F   UNL     1       7.944   4.620  12.829  0.00  0.00    +0.000 F 
ATOM     16  C   UNL     1       5.875   4.124  13.846  0.00  0.00    +0.000 A 
ATOM     17  C   UNL     1       5.029   4.224  14.954  0.00  0.00    +0.000 A 
ENDBRANCH   3  11
BRANCH   1  19
ATOM     18  N   UNL     1       1.915   7.769  20.167  0.00  0.00    +0.000 N 
ATOM     19  C   UNL     1       2.053   7.390  18.835  0.00  0.00    +0.000 C 
ATOM     20  O   UNL     1       1.561   7.937  17.858  0.00  0.00    +0.000 OA
ATOM     21  H   UNL     1       2.388   7.230  20.878  0.00  0.00    +0.000 HD
BRANCH  18  24
ATOM     22  C   UNL     1       0.221  11.080  21.076  0.00  0.00    +0.000 A 
ATOM     23  S   UNL     1       1.194  10.346  19.868  0.00  0.00    +0.000 S 
ATOM     24  C   UNL     1       1.200   8.852  20.648  0.00  0.00    +0.000 A 
ATOM     25  C   UNL     1       0.438   8.873  21.794  0.00  0.00    +0.000 A 
ATOM     26  C   UNL     1      -0.149  10.162  22.056  0.00  0.00    +0.000 A 
ATOM     27  C   UNL     1      -1.007  10.440  23.252  0.00  0.00    +0.000 C 
BRANCH  22  28
ATOM     28  C   UNL     1      -0.026  12.507  20.939  0.00  0.00    +0.000 C 
ATOM     29  O   UNL     1      -0.468  13.075  19.947  0.00  0.00    +0.000 OA
BRANCH  28  30
ATOM     30  O   UNL     1       0.403  13.165  22.054  0.00  0.00    +0.000 OA
BRANCH  30  32
ATOM     31  C   UNL     1      -1.154  14.189  23.544  0.00  0.00    +0.000 C 
ATOM     32  C   UNL     1      -0.268  14.401  22.329  0.00  0.00    +0.000 C 
ENDBRANCH  30  32
ENDBRANCH  28  30
ENDBRANCH  22  28
ENDBRANCH  18  24
ENDBRANCH   1  19
TORSDOF 6
ENDMDL
