MODEL 1
REMARK VINA RESULT:      -8.1      0.000      0.000
REMARK  Name = 
REMARK  8 active torsions:
REMARK  status: ('A' for Active; 'I' for Inactive)
REMARK    1  A    between atoms: C_1  and  C_2
REMARK    2  A    between atoms: C_2  and  C_3
REMARK    3  A    between atoms: C_2  and  C_4
REMARK    4  A    between atoms: C_6  and  C_7
REMARK    5  A    between atoms: C_7  and  C_8
REMARK    6  A    between atoms: C_8  and  N_9
REMARK    7  A    between atoms: N_9  and  C_10
REMARK    8  A    between atoms: C_11  and  C_13
REMARK                            x       y       z     vdW  Elec       q    Type
REMARK                         _______ _______ _______ _____ _____    ______ ____
ROOT
ATOM      1  N   UNL     1       6.626   6.544  18.037  0.00  0.00    +0.000 N 
ATOM      2  C   UNL     1       5.623   6.920  17.040  0.00  0.00    +0.000 C 
ATOM      3  C   UNL     1       6.324   5.586  19.034  0.00  0.00    +0.000 C 
ATOM      4  O   UNL     1       7.160   5.352  19.925  0.00  0.00    +0.000 OA
ENDROOT
BRANCH   3   5
ATOM      5  C   UNL     1       5.023   4.897  18.978  0.00  0.00    +0.000 A 
ATOM      6  N   UNL     1       3.997   5.198  19.760  0.00  0.00    +0.000 NA
ATOM      7  C   UNL     1       2.953   4.339  19.524  0.00  0.00    +0.000 A 
ATOM      8  C   UNL     1       3.176   3.386  18.554  0.00  0.00    +0.000 A 
ATOM      9  S   UNL     1       4.732   3.593  17.883  0.00  0.00    +0.000 S 
ATOM     10  C   UNL     1       2.207   2.306  18.186  0.00  0.00    +0.000 C 
ATOM     11  C   UNL     1       0.805   2.624  18.756  0.00  0.00    +0.000 C 
ATOM     12  C   UNL     1       0.873   3.147  20.201  0.00  0.00    +0.000 C 
ATOM     13  C   UNL     1       1.672   4.458  20.275  0.00  0.00    +0.000 C 
ENDBRANCH   3   5
BRANCH   1  14
ATOM     14  C   UNL     1       7.910   7.280  18.087  0.00  0.00    +0.000 C 
BRANCH  14  15
ATOM     15  C   UNL     1       7.829   8.750  17.634  0.00  0.00    +0.000 C 
BRANCH  15  18
ATOM     16  C   UNL     1      10.056  11.239  18.773  0.00  0.00    +0.000 A 
ATOM     17  N   UNL     1       9.352  10.745  17.780  0.00  0.00    +0.000 NA
ATOM     18  C   UNL     1       8.725   9.682  18.371  0.00  0.00    +0.000 A 
ATOM     19  N   UNL     1       9.012   9.515  19.673  0.00  0.00    +0.000 NA
ATOM     20  O   UNL     1       9.896  10.559  19.946  0.00  0.00    +0.000 OA
BRANCH  16  22
ATOM     21  C   UNL     1      12.213  12.075  19.645  0.00  0.00    +0.000 C 
ATOM     22  C   UNL     1      10.998  12.389  18.771  0.00  0.00    +0.000 C 
ATOM     23  C   UNL     1      11.442  12.697  17.342  0.00  0.00    +0.000 C 
ENDBRANCH  16  22
ENDBRANCH  15  18
ENDBRANCH  14  15
ENDBRANCH   1  14
TORSDOF 5
ENDMDL
MODEL 2
REMARK VINA RESULT:      -8.0      0.944      1.365
REMARK  Name = 
REMARK  8 active torsions:
REMARK  status: ('A' for Active; 'I' for Inactive)
REMARK    1  A    between atoms: C_1  and  C_2
REMARK    2  A    between atoms: C_2  and  C_3
REMARK    3  A    between atoms: C_2  and  C_4
REMARK    4  A    between atoms: C_6  and  C_7
REMARK    5  A    between atoms: C_7  and  C_8
REMARK    6  A    between atoms: C_8  and  N_9
REMARK    7  A    between atoms: N_9  and  C_10
REMARK    8  A    between atoms: C_11  and  C_13
REMARK                            x       y       z     vdW  Elec       q    Type
REMARK                         _______ _______ _______ _____ _____    ______ ____
ROOT
ATOM      1  N   UNL     1       6.609   6.569  18.125  0.00  0.00    +0.000 N 
ATOM      2  C   UNL     1       5.607   6.933  17.123  0.00  0.00    +0.000 C 
ATOM      3  C   UNL     1       6.314   5.605  19.118  0.00  0.00    +0.000 C 
ATOM      4  O   UNL     1       7.149   5.380  20.014  0.00  0.00    +0.000 OA
ENDROOT
BRANCH   3   5
ATOM      5  C   UNL     1       5.022   4.900  19.054  0.00  0.00    +0.000 A 
ATOM      6  N   UNL     1       3.985   5.193  19.823  0.00  0.00    +0.000 NA
ATOM      7  C   UNL     1       2.954   4.320  19.584  0.00  0.00    +0.000 A 
ATOM      8  C   UNL     1       3.199   3.363  18.623  0.00  0.00    +0.000 A 
ATOM      9  S   UNL     1       4.759   3.584  17.966  0.00  0.00    +0.000 S 
ATOM     10  C   UNL     1       2.247   2.268  18.253  0.00  0.00    +0.000 C 
ATOM     11  C   UNL     1       0.836   2.572  18.806  0.00  0.00    +0.000 C 
ATOM     12  C   UNL     1       0.882   3.108  20.248  0.00  0.00    +0.000 C 
ATOM     13  C   UNL     1       1.664   4.429  20.320  0.00  0.00    +0.000 C 
ENDBRANCH   3   5
BRANCH   1  14
ATOM     14  C   UNL     1       7.884   7.322  18.183  0.00  0.00    +0.000 C 
BRANCH  14  15
ATOM     15  C   UNL     1       7.887   8.646  17.397  0.00  0.00    +0.000 C 
BRANCH  15  18
ATOM     16  C   UNL     1       9.517  10.909  19.560  0.00  0.00    +0.000 A 
ATOM     17  N   UNL     1       9.206   9.663  19.280  0.00  0.00    +0.000 NA
ATOM     18  C   UNL     1       8.509   9.795  18.111  0.00  0.00    +0.000 A 
ATOM     19  N   UNL     1       8.389  11.058  17.669  0.00  0.00    +0.000 NA
ATOM     20  O   UNL     1       9.069  11.804  18.632  0.00  0.00    +0.000 OA
BRANCH  16  22
ATOM     21  C   UNL     1      11.566  12.083  20.292  0.00  0.00    +0.000 C 
ATOM     22  C   UNL     1      10.246  11.450  20.737  0.00  0.00    +0.000 C 
ATOM     23  C   UNL     1       9.382  12.485  21.455  0.00  0.00    +0.000 C 
ENDBRANCH  16  22
ENDBRANCH  15  18
ENDBRANCH  14  15
ENDBRANCH   1  14
TORSDOF 5
ENDMDL
MODEL 3
REMARK VINA RESULT:      -7.5      1.193      1.782
REMARK  Name = 
REMARK  8 active torsions:
REMARK  status: ('A' for Active; 'I' for Inactive)
REMARK    1  A    between atoms: C_1  and  C_2
REMARK    2  A    between atoms: C_2  and  C_3
REMARK    3  A    between atoms: C_2  and  C_4
REMARK    4  A    between atoms: C_6  and  C_7
REMARK    5  A    between atoms: C_7  and  C_8
REMARK    6  A    between atoms: C_8  and  N_9
REMARK    7  A    between atoms: N_9  and  C_10
REMARK    8  A    between atoms: C_11  and  C_13
REMARK                            x       y       z     vdW  Elec       q    Type
REMARK                         _______ _______ _______ _____ _____    ______ ____
ROOT
ATOM      1  N   UNL     1       6.805   6.521  18.171  0.00  0.00    +0.000 N 
ATOM      2  C   UNL     1       5.804   6.795  17.141  0.00  0.00    +0.000 C 
ATOM      3  C   UNL     1       6.529   5.610  19.218  0.00  0.00    +0.000 C 
ATOM      4  O   UNL     1       7.360   5.464  20.133  0.00  0.00    +0.000 OA
ENDROOT
BRANCH   3   5
ATOM      5  C   UNL     1       5.259   4.863  19.185  0.00  0.00    +0.000 A 
ATOM      6  N   UNL     1       5.167   3.582  18.862  0.00  0.00    +0.000 NA
ATOM      7  C   UNL     1       3.852   3.190  18.850  0.00  0.00    +0.000 A 
ATOM      8  C   UNL     1       2.937   4.168  19.173  0.00  0.00    +0.000 A 
ATOM      9  S   UNL     1       3.750   5.623  19.544  0.00  0.00    +0.000 S 
ATOM     10  C   UNL     1       1.452   3.983  19.153  0.00  0.00    +0.000 C 
ATOM     11  C   UNL     1       1.098   2.479  19.092  0.00  0.00    +0.000 C 
ATOM     12  C   UNL     1       1.990   1.714  18.099  0.00  0.00    +0.000 C 
ATOM     13  C   UNL     1       3.468   1.790  18.516  0.00  0.00    +0.000 C 
ENDBRANCH   3   5
BRANCH   1  14
ATOM     14  C   UNL     1       8.056   7.315  18.196  0.00  0.00    +0.000 C 
BRANCH  14  15
ATOM     15  C   UNL     1       7.953   8.701  17.533  0.00  0.00    +0.000 C 
BRANCH  15  18
ATOM     16  C   UNL     1       9.392  11.684  18.753  0.00  0.00    +0.000 A 
ATOM     17  N   UNL     1       8.689  11.088  17.815  0.00  0.00    +0.000 NA
ATOM     18  C   UNL     1       8.620   9.803  18.279  0.00  0.00    +0.000 A 
ATOM     19  N   UNL     1       9.240   9.596  19.453  0.00  0.00    +0.000 NA
ATOM     20  O   UNL     1       9.751  10.854  19.776  0.00  0.00    +0.000 OA
BRANCH  16  22
ATOM     21  C   UNL     1       8.698  14.043  18.501  0.00  0.00    +0.000 C 
ATOM     22  C   UNL     1       9.854  13.094  18.822  0.00  0.00    +0.000 C 
ATOM     23  C   UNL     1      10.409  13.394  20.213  0.00  0.00    +0.000 C 
ENDBRANCH  16  22
ENDBRANCH  15  18
ENDBRANCH  14  15
ENDBRANCH   1  14
TORSDOF 5
ENDMDL
MODEL 4
REMARK VINA RESULT:      -7.3      1.189      1.387
REMARK  Name = 
REMARK  8 active torsions:
REMARK  status: ('A' for Active; 'I' for Inactive)
REMARK    1  A    between atoms: C_1  and  C_2
REMARK    2  A    between atoms: C_2  and  C_3
REMARK    3  A    between atoms: C_2  and  C_4
REMARK    4  A    between atoms: C_6  and  C_7
REMARK    5  A    between atoms: C_7  and  C_8
REMARK    6  A    between atoms: C_8  and  N_9
REMARK    7  A    between atoms: N_9  and  C_10
REMARK    8  A    between atoms: C_11  and  C_13
REMARK                            x       y       z     vdW  Elec       q    Type
REMARK                         _______ _______ _______ _____ _____    ______ ____
ROOT
ATOM      1  N   UNL     1       6.703   6.479  17.985  0.00  0.00    +0.000 N 
ATOM      2  C   UNL     1       6.831   5.664  19.193  0.00  0.00    +0.000 C 
ATOM      3  C   UNL     1       5.596   6.312  17.119  0.00  0.00    +0.000 C 
ATOM      4  O   UNL     1       5.557   6.950  16.052  0.00  0.00    +0.000 OA
ENDROOT
BRANCH   3   5
ATOM      5  C   UNL     1       4.525   5.382  17.518  0.00  0.00    +0.000 A 
ATOM      6  N   UNL     1       3.568   5.687  18.381  0.00  0.00    +0.000 NA
ATOM      7  C   UNL     1       2.764   4.598  18.604  0.00  0.00    +0.000 A 
ATOM      8  C   UNL     1       3.099   3.460  17.903  0.00  0.00    +0.000 A 
ATOM      9  S   UNL     1       4.444   3.771  16.898  0.00  0.00    +0.000 S 
ATOM     10  C   UNL     1       2.407   2.140  18.044  0.00  0.00    +0.000 C 
ATOM     11  C   UNL     1       1.059   2.316  18.780  0.00  0.00    +0.000 C 
ATOM     12  C   UNL     1       1.176   3.265  19.985  0.00  0.00    +0.000 C 
ATOM     13  C   UNL     1       1.607   4.671  19.538  0.00  0.00    +0.000 C 
ENDBRANCH   3   5
BRANCH   1  14
ATOM     14  C   UNL     1       7.815   7.377  17.595  0.00  0.00    +0.000 C 
BRANCH  14  15
ATOM     15  C   UNL     1       7.460   8.876  17.589  0.00  0.00    +0.000 C 
BRANCH  15  18
ATOM     16  C   UNL     1       9.725  11.374  18.631  0.00  0.00    +0.000 A 
ATOM     17  N   UNL     1       8.797  10.997  17.781  0.00  0.00    +0.000 NA
ATOM     18  C   UNL     1       8.460   9.757  18.253  0.00  0.00    +0.000 A 
ATOM     19  N   UNL     1       9.135   9.372  19.348  0.00  0.00    +0.000 NA
ATOM     20  O   UNL     1       9.976  10.454  19.608  0.00  0.00    +0.000 OA
BRANCH  16  22
ATOM     21  C   UNL     1      11.213  12.795  20.001  0.00  0.00    +0.000 C 
ATOM     22  C   UNL     1      10.530  12.623  18.643  0.00  0.00    +0.000 C 
ATOM     23  C   UNL     1      11.576  12.581  17.530  0.00  0.00    +0.000 C 
ENDBRANCH  16  22
ENDBRANCH  15  18
ENDBRANCH  14  15
ENDBRANCH   1  14
TORSDOF 5
ENDMDL
MODEL 5
REMARK VINA RESULT:      -7.3      5.065      7.224
REMARK  Name = 
REMARK  8 active torsions:
REMARK  status: ('A' for Active; 'I' for Inactive)
REMARK    1  A    between atoms: C_1  and  C_2
REMARK    2  A    between atoms: C_2  and  C_3
REMARK    3  A    between atoms: C_2  and  C_4
REMARK    4  A    between atoms: C_6  and  C_7
REMARK    5  A    between atoms: C_7  and  C_8
REMARK    6  A    between atoms: C_8  and  N_9
REMARK    7  A    between atoms: N_9  and  C_10
REMARK    8  A    between atoms: C_11  and  C_13
REMARK                            x       y       z     vdW  Elec       q    Type
REMARK                         _______ _______ _______ _____ _____    ______ ____
ROOT
ATOM      1  N   UNL     1       4.737   5.235  17.858  0.00  0.00    +0.000 N 
ATOM      2  C   UNL     1       5.501   6.296  18.514  0.00  0.00    +0.000 C 
ATOM      3  C   UNL     1       3.322   5.244  17.887  0.00  0.00    +0.000 C 
ATOM      4  O   UNL     1       2.698   4.283  17.403  0.00  0.00    +0.000 OA
ENDROOT
BRANCH   3   5
ATOM      5  C   UNL     1       2.638   6.399  18.495  0.00  0.00    +0.000 A 
ATOM      6  N   UNL     1       2.335   7.506  17.835  0.00  0.00    +0.000 NA
ATOM      7  C   UNL     1       1.771   8.425  18.683  0.00  0.00    +0.000 A 
ATOM      8  C   UNL     1       1.634   8.019  19.992  0.00  0.00    +0.000 A 
ATOM      9  S   UNL     1       2.193   6.415  20.164  0.00  0.00    +0.000 S 
ATOM     10  C   UNL     1       1.113   8.881  21.099  0.00  0.00    +0.000 C 
ATOM     11  C   UNL     1       0.410  10.131  20.522  0.00  0.00    +0.000 C 
ATOM     12  C   UNL     1       1.200  10.754  19.358  0.00  0.00    +0.000 C 
ATOM     13  C   UNL     1       1.336   9.762  18.192  0.00  0.00    +0.000 C 
ENDBRANCH   3   5
BRANCH   1  14
ATOM     14  C   UNL     1       5.455   4.070  17.288  0.00  0.00    +0.000 C 
BRANCH  14  15
ATOM     15  C   UNL     1       6.845   4.390  16.710  0.00  0.00    +0.000 C 
BRANCH  15  18
ATOM     16  C   UNL     1       6.570   4.125  13.201  0.00  0.00    +0.000 A 
ATOM     17  N   UNL     1       6.193   3.692  14.384  0.00  0.00    +0.000 NA
ATOM     18  C   UNL     1       6.893   4.513  15.227  0.00  0.00    +0.000 A 
ATOM     19  N   UNL     1       7.668   5.421  14.611  0.00  0.00    +0.000 NA
ATOM     20  O   UNL     1       7.447   5.169  13.256  0.00  0.00    +0.000 OA
BRANCH  16  22
ATOM     21  C   UNL     1       7.028   2.380  11.511  0.00  0.00    +0.000 C 
ATOM     22  C   UNL     1       6.195   3.616  11.856  0.00  0.00    +0.000 C 
ATOM     23  C   UNL     1       4.707   3.273  11.824  0.00  0.00    +0.000 C 
ENDBRANCH  16  22
ENDBRANCH  15  18
ENDBRANCH  14  15
ENDBRANCH   1  14
TORSDOF 5
ENDMDL
MODEL 6
REMARK VINA RESULT:      -7.3      1.510      1.915
REMARK  Name = 
REMARK  8 active torsions:
REMARK  status: ('A' for Active; 'I' for Inactive)
REMARK    1  A    between atoms: C_1  and  C_2
REMARK    2  A    between atoms: C_2  and  C_3
REMARK    3  A    between atoms: C_2  and  C_4
REMARK    4  A    between atoms: C_6  and  C_7
REMARK    5  A    between atoms: C_7  and  C_8
REMARK    6  A    between atoms: C_8  and  N_9
REMARK    7  A    between atoms: N_9  and  C_10
REMARK    8  A    between atoms: C_11  and  C_13
REMARK                            x       y       z     vdW  Elec       q    Type
REMARK                         _______ _______ _______ _____ _____    ______ ____
ROOT
ATOM      1  N   UNL     1       6.400   6.417  17.912  0.00  0.00    +0.000 N 
ATOM      2  C   UNL     1       6.658   5.501  19.023  0.00  0.00    +0.000 C 
ATOM      3  C   UNL     1       5.183   6.350  17.193  0.00  0.00    +0.000 C 
ATOM      4  O   UNL     1       5.027   7.076  16.194  0.00  0.00    +0.000 OA
ENDROOT
BRANCH   3   5
ATOM      5  C   UNL     1       4.142   5.417  17.657  0.00  0.00    +0.000 A 
ATOM      6  N   UNL     1       3.297   5.686  18.640  0.00  0.00    +0.000 NA
ATOM      7  C   UNL     1       2.497   4.600  18.890  0.00  0.00    +0.000 A 
ATOM      8  C   UNL     1       2.723   3.501  18.091  0.00  0.00    +0.000 A 
ATOM      9  S   UNL     1       3.953   3.848  16.958  0.00  0.00    +0.000 S 
ATOM     10  C   UNL     1       2.020   2.187  18.234  0.00  0.00    +0.000 C 
ATOM     11  C   UNL     1       0.767   2.342  19.128  0.00  0.00    +0.000 C 
ATOM     12  C   UNL     1       1.044   3.215  20.365  0.00  0.00    +0.000 C 
ATOM     13  C   UNL     1       1.455   4.638  19.953  0.00  0.00    +0.000 C 
ENDBRANCH   3   5
BRANCH   1  14
ATOM     14  C   UNL     1       7.482   7.317  17.448  0.00  0.00    +0.000 C 
BRANCH  14  15
ATOM     15  C   UNL     1       8.371   7.886  18.569  0.00  0.00    +0.000 C 
BRANCH  15  18
ATOM     16  C   UNL     1       9.382  11.252  18.899  0.00  0.00    +0.000 A 
ATOM     17  N   UNL     1       9.489  10.010  19.318  0.00  0.00    +0.000 NA
ATOM     18  C   UNL     1       8.643   9.347  18.471  0.00  0.00    +0.000 A 
ATOM     19  N   UNL     1       8.037  10.125  17.560  0.00  0.00    +0.000 NA
ATOM     20  O   UNL     1       8.535  11.398  17.839  0.00  0.00    +0.000 OA
BRANCH  16  22
ATOM     21  C   UNL     1       8.976  13.367  20.112  0.00  0.00    +0.000 C 
ATOM     22  C   UNL     1      10.024  12.479  19.438  0.00  0.00    +0.000 C 
ATOM     23  C   UNL     1      11.115  12.101  20.438  0.00  0.00    +0.000 C 
ENDBRANCH  16  22
ENDBRANCH  15  18
ENDBRANCH  14  15
ENDBRANCH   1  14
TORSDOF 5
ENDMDL
MODEL 7
REMARK VINA RESULT:      -7.1      1.374      1.825
REMARK  Name = 
REMARK  8 active torsions:
REMARK  status: ('A' for Active; 'I' for Inactive)
REMARK    1  A    between atoms: C_1  and  C_2
REMARK    2  A    between atoms: C_2  and  C_3
REMARK    3  A    between atoms: C_2  and  C_4
REMARK    4  A    between atoms: C_6  and  C_7
REMARK    5  A    between atoms: C_7  and  C_8
REMARK    6  A    between atoms: C_8  and  N_9
REMARK    7  A    between atoms: N_9  and  C_10
REMARK    8  A    between atoms: C_11  and  C_13
REMARK                            x       y       z     vdW  Elec       q    Type
REMARK                         _______ _______ _______ _____ _____    ______ ____
ROOT
ATOM      1  N   UNL     1       6.900   6.510  18.207  0.00  0.00    +0.000 N 
ATOM      2  C   UNL     1       6.993   5.647  19.383  0.00  0.00    +0.000 C 
ATOM      3  C   UNL     1       5.821   6.378  17.301  0.00  0.00    +0.000 C 
ATOM      4  O   UNL     1       5.813   7.060  16.260  0.00  0.00    +0.000 OA
ENDROOT
BRANCH   3   5
ATOM      5  C   UNL     1       4.740   5.432  17.628  0.00  0.00    +0.000 A 
ATOM      6  N   UNL     1       3.772   5.690  18.494  0.00  0.00    +0.000 NA
ATOM      7  C   UNL     1       2.960   4.594  18.639  0.00  0.00    +0.000 A 
ATOM      8  C   UNL     1       3.301   3.498  17.877  0.00  0.00    +0.000 A 
ATOM      9  S   UNL     1       4.662   3.861  16.913  0.00  0.00    +0.000 S 
ATOM     10  C   UNL     1       2.602   2.175  17.930  0.00  0.00    +0.000 C 
ATOM     11  C   UNL     1       1.243   2.314  18.655  0.00  0.00    +0.000 C 
ATOM     12  C   UNL     1       1.346   3.189  19.916  0.00  0.00    +0.000 C 
ATOM     13  C   UNL     1       1.789   4.617  19.559  0.00  0.00    +0.000 C 
ENDBRANCH   3   5
BRANCH   1  14
ATOM     14  C   UNL     1       8.021   7.426  17.888  0.00  0.00    +0.000 C 
BRANCH  14  15
ATOM     15  C   UNL     1       7.648   8.919  17.865  0.00  0.00    +0.000 C 
BRANCH  15  18
ATOM     16  C   UNL     1      10.037  10.956  19.475  0.00  0.00    +0.000 A 
ATOM     17  N   UNL     1       9.092  10.051  19.584  0.00  0.00    +0.000 NA
ATOM     18  C   UNL     1       8.739   9.844  18.278  0.00  0.00    +0.000 A 
ATOM     19  N   UNL     1       9.429  10.576  17.388  0.00  0.00    +0.000 NA
ATOM     20  O   UNL     1      10.303  11.315  18.185  0.00  0.00    +0.000 OA
BRANCH  16  22
ATOM     21  C   UNL     1      11.946  12.458  19.938  0.00  0.00    +0.000 C 
ATOM     22  C   UNL     1      10.807  11.639  20.548  0.00  0.00    +0.000 C 
ATOM     23  C   UNL     1       9.882  12.545  21.359  0.00  0.00    +0.000 C 
ENDBRANCH  16  22
ENDBRANCH  15  18
ENDBRANCH  14  15
ENDBRANCH   1  14
TORSDOF 5
ENDMDL
MODEL 8
REMARK VINA RESULT:      -7.1      1.307      1.828
REMARK  Name = 
REMARK  8 active torsions:
REMARK  status: ('A' for Active; 'I' for Inactive)
REMARK    1  A    between atoms: C_1  and  C_2
REMARK    2  A    between atoms: C_2  and  C_3
REMARK    3  A    between atoms: C_2  and  C_4
REMARK    4  A    between atoms: C_6  and  C_7
REMARK    5  A    between atoms: C_7  and  C_8
REMARK    6  A    between atoms: C_8  and  N_9
REMARK    7  A    between atoms: N_9  and  C_10
REMARK    8  A    between atoms: C_11  and  C_13
REMARK                            x       y       z     vdW  Elec       q    Type
REMARK                         _______ _______ _______ _____ _____    ______ ____
ROOT
ATOM      1  N   UNL     1       6.730   6.473  18.088  0.00  0.00    +0.000 N 
ATOM      2  C   UNL     1       6.986   5.719  19.314  0.00  0.00    +0.000 C 
ATOM      3  C   UNL     1       5.501   6.332  17.400  0.00  0.00    +0.000 C 
ATOM      4  O   UNL     1       5.344   6.913  16.311  0.00  0.00    +0.000 OA
ENDROOT
BRANCH   3   5
ATOM      5  C   UNL     1       4.448   5.496  18.004  0.00  0.00    +0.000 A 
ATOM      6  N   UNL     1       4.199   4.248  17.639  0.00  0.00    +0.000 NA
ATOM      7  C   UNL     1       3.119   3.758  18.328  0.00  0.00    +0.000 A 
ATOM      8  C   UNL     1       2.545   4.629  19.229  0.00  0.00    +0.000 A 
ATOM      9  S   UNL     1       3.410   6.101  19.246  0.00  0.00    +0.000 S 
ATOM     10  C   UNL     1       1.318   4.333  20.033  0.00  0.00    +0.000 C 
ATOM     11  C   UNL     1       1.007   2.819  20.003  0.00  0.00    +0.000 C 
ATOM     12  C   UNL     1       1.177   2.221  18.595  0.00  0.00    +0.000 C 
ATOM     13  C   UNL     1       2.626   2.371  18.104  0.00  0.00    +0.000 C 
ENDBRANCH   3   5
BRANCH   1  14
ATOM     14  C   UNL     1       7.822   7.276  17.489  0.00  0.00    +0.000 C 
BRANCH  14  15
ATOM     15  C   UNL     1       7.563   8.793  17.456  0.00  0.00    +0.000 C 
BRANCH  15  18
ATOM     16  C   UNL     1       9.901  11.109  18.732  0.00  0.00    +0.000 A 
ATOM     17  N   UNL     1       9.085  10.772  17.758  0.00  0.00    +0.000 NA
ATOM     18  C   UNL     1       8.537   9.611  18.231  0.00  0.00    +0.000 A 
ATOM     19  N   UNL     1       8.977   9.235  19.444  0.00  0.00    +0.000 NA
ATOM     20  O   UNL     1       9.884  10.240  19.784  0.00  0.00    +0.000 OA
BRANCH  16  22
ATOM     21  C   UNL     1      12.071  11.886  19.627  0.00  0.00    +0.000 C 
ATOM     22  C   UNL     1      10.831  12.265  18.814  0.00  0.00    +0.000 C 
ATOM     23  C   UNL     1      11.237  12.709  17.410  0.00  0.00    +0.000 C 
ENDBRANCH  16  22
ENDBRANCH  15  18
ENDBRANCH  14  15
ENDBRANCH   1  14
TORSDOF 5
ENDMDL
MODEL 9
REMARK VINA RESULT:      -7.1      5.065      7.089
REMARK  Name = 
REMARK  8 active torsions:
REMARK  status: ('A' for Active; 'I' for Inactive)
REMARK    1  A    between atoms: C_1  and  C_2
REMARK    2  A    between atoms: C_2  and  C_3
REMARK    3  A    between atoms: C_2  and  C_4
REMARK    4  A    between atoms: C_6  and  C_7
REMARK    5  A    between atoms: C_7  and  C_8
REMARK    6  A    between atoms: C_8  and  N_9
REMARK    7  A    between atoms: N_9  and  C_10
REMARK    8  A    between atoms: C_11  and  C_13
REMARK                            x       y       z     vdW  Elec       q    Type
REMARK                         _______ _______ _______ _____ _____    ______ ____
ROOT
ATOM      1  N   UNL     1       4.178   5.582  18.137  0.00  0.00    +0.000 N 
ATOM      2  C   UNL     1       5.110   6.626  18.562  0.00  0.00    +0.000 C 
ATOM      3  C   UNL     1       2.788   5.725  18.359  0.00  0.00    +0.000 C 
ATOM      4  O   UNL     1       2.026   4.784  18.073  0.00  0.00    +0.000 OA
ENDROOT
BRANCH   3   5
ATOM      5  C   UNL     1       2.293   6.992  18.926  0.00  0.00    +0.000 A 
ATOM      6  N   UNL     1       1.988   7.157  20.204  0.00  0.00    +0.000 NA
ATOM      7  C   UNL     1       1.487   8.417  20.414  0.00  0.00    +0.000 A 
ATOM      8  C   UNL     1       1.416   9.221  19.297  0.00  0.00    +0.000 A 
ATOM      9  S   UNL     1       2.035   8.388  17.941  0.00  0.00    +0.000 S 
ATOM     10  C   UNL     1       0.838  10.601  19.279  0.00  0.00    +0.000 C 
ATOM     11  C   UNL     1       0.682  11.138  20.720  0.00  0.00    +0.000 C 
ATOM     12  C   UNL     1       0.120  10.073  21.677  0.00  0.00    +0.000 C 
ATOM     13  C   UNL     1       1.064   8.863  21.770  0.00  0.00    +0.000 C 
ENDBRANCH   3   5
BRANCH   1  14
ATOM     14  C   UNL     1       4.712   4.307  17.603  0.00  0.00    +0.000 C 
BRANCH  14  15
ATOM     15  C   UNL     1       6.223   4.313  17.309  0.00  0.00    +0.000 C 
BRANCH  15  18
ATOM     16  C   UNL     1       6.709   4.137  13.817  0.00  0.00    +0.000 A 
ATOM     17  N   UNL     1       6.106   3.660  14.884  0.00  0.00    +0.000 NA
ATOM     18  C   UNL     1       6.580   4.479  15.873  0.00  0.00    +0.000 A 
ATOM     19  N   UNL     1       7.433   5.428  15.455  0.00  0.00    +0.000 NA
ATOM     20  O   UNL     1       7.515   5.207  14.079  0.00  0.00    +0.000 OA
BRANCH  16  22
ATOM     21  C   UNL     1       5.192   3.431  11.997  0.00  0.00    +0.000 C 
ATOM     22  C   UNL     1       6.647   3.654  12.413  0.00  0.00    +0.000 C 
ATOM     23  C   UNL     1       7.311   4.668  11.483  0.00  0.00    +0.000 C 
ENDBRANCH  16  22
ENDBRANCH  15  18
ENDBRANCH  14  15
ENDBRANCH   1  14
TORSDOF 5
ENDMDL
