MODEL 1
REMARK VINA RESULT:      -6.6      0.000      0.000
REMARK  Name = 
REMARK  7 active torsions:
REMARK  status: ('A' for Active; 'I' for Inactive)
REMARK    1  A    between atoms: C_2  and  C_3
REMARK    2  A    between atoms: C_3  and  O_4
REMARK    3  A    between atoms: O_4  and  C_5
REMARK    4  A    between atoms: C_9  and  O_10
REMARK    5  A    between atoms: O_10  and  C_11
REMARK    6  A    between atoms: C_19  and  O_20
REMARK    7  A    between atoms: O_20  and  C_21
REMARK                            x       y       z     vdW  Elec       q    Type
REMARK                         _______ _______ _______ _____ _____    ______ ____
ROOT
ATOM      1  C   UNL     1       1.707   7.160  20.191  0.00  0.00    +0.000 A 
ATOM      2  C   UNL     1       1.790   5.843  20.648  0.00  0.00    +0.000 A 
ATOM      3  C   UNL     1       2.596   4.887  20.031  0.00  0.00    +0.000 A 
ATOM      4  C   UNL     1       3.345   5.164  18.868  0.00  0.00    +0.000 A 
ATOM      5  C   UNL     1       4.173   4.222  18.153  0.00  0.00    +0.000 A 
ATOM      6  C   UNL     1       4.831   4.698  17.006  0.00  0.00    +0.000 A 
ATOM      7  C   UNL     1       5.705   4.151  16.021  0.00  0.00    +0.000 A 
ATOM      8  C   UNL     1       5.988   5.172  15.145  0.00  0.00    +0.000 A 
ATOM      9  O   UNL     1       5.354   6.312  15.520  0.00  0.00    +0.000 OA
ATOM     10  C   UNL     1       4.650   6.022  16.650  0.00  0.00    +0.000 A 
ATOM     11  N   UNL     1       3.904   6.918  17.290  0.00  0.00    +0.000 NA
ATOM     12  C   UNL     1       3.252   6.506  18.382  0.00  0.00    +0.000 A 
ATOM     13  C   UNL     1       2.456   7.494  19.048  0.00  0.00    +0.000 A 
ENDROOT
BRANCH   5  14
ATOM     14  O   UNL     1       4.436   2.909  18.386  0.00  0.00    +0.000 OA
ATOM     15  C   UNL     1       3.511   1.872  18.159  0.00  0.00    +0.000 C 
ENDBRANCH   5  14
BRANCH  13  16
ATOM     16  O   UNL     1       2.642   8.715  18.443  0.00  0.00    +0.000 OA
ATOM     17  C   UNL     1       1.647   9.593  17.982  0.00  0.00    +0.000 C 
ENDBRANCH  13  16
BRANCH   1  18
ATOM     18  O   UNL     1       0.872   7.874  21.015  0.00  0.00    +0.000 OA
BRANCH  18  19
ATOM     19  C   UNL     1       1.408   8.944  21.761  0.00  0.00    +0.000 C 
BRANCH  19  21
ATOM     20  C   UNL     1      -0.451   9.762  23.188  0.00  0.00    +0.000 C 
ATOM     21  C   UNL     1       0.376   9.960  22.147  0.00  0.00    +0.000 C 
ENDBRANCH  19  21
ENDBRANCH  18  19
ENDBRANCH   1  18
TORSDOF 5
ENDMDL
MODEL 2
REMARK VINA RESULT:      -6.5      3.937      5.259
REMARK  Name = 
REMARK  7 active torsions:
REMARK  status: ('A' for Active; 'I' for Inactive)
REMARK    1  A    between atoms: C_2  and  C_3
REMARK    2  A    between atoms: C_3  and  O_4
REMARK    3  A    between atoms: O_4  and  C_5
REMARK    4  A    between atoms: C_9  and  O_10
REMARK    5  A    between atoms: O_10  and  C_11
REMARK    6  A    between atoms: C_19  and  O_20
REMARK    7  A    between atoms: O_20  and  C_21
REMARK                            x       y       z     vdW  Elec       q    Type
REMARK                         _______ _______ _______ _____ _____    ______ ____
ROOT
ATOM      1  C   UNL     1       3.084   2.532  18.557  0.00  0.00    +0.000 A 
ATOM      2  C   UNL     1       2.795   3.032  17.286  0.00  0.00    +0.000 A 
ATOM      3  C   UNL     1       3.575   4.012  16.673  0.00  0.00    +0.000 A 
ATOM      4  C   UNL     1       4.681   4.610  17.313  0.00  0.00    +0.000 A 
ATOM      5  C   UNL     1       5.514   5.651  16.761  0.00  0.00    +0.000 A 
ATOM      6  C   UNL     1       6.565   6.120  17.569  0.00  0.00    +0.000 A 
ATOM      7  C   UNL     1       7.591   7.102  17.452  0.00  0.00    +0.000 A 
ATOM      8  C   UNL     1       8.300   7.061  18.630  0.00  0.00    +0.000 A 
ATOM      9  O   UNL     1       7.788   6.122  19.464  0.00  0.00    +0.000 OA
ATOM     10  C   UNL     1       6.732   5.552  18.819  0.00  0.00    +0.000 A 
ATOM     11  N   UNL     1       5.990   4.586  19.354  0.00  0.00    +0.000 NA
ATOM     12  C   UNL     1       4.974   4.117  18.623  0.00  0.00    +0.000 A 
ATOM     13  C   UNL     1       4.193   3.078  19.228  0.00  0.00    +0.000 A 
ENDROOT
BRANCH   5  14
ATOM     14  O   UNL     1       5.464   6.294  15.565  0.00  0.00    +0.000 OA
ATOM     15  C   UNL     1       5.788   5.689  14.335  0.00  0.00    +0.000 C 
ENDBRANCH   5  14
BRANCH  13  16
ATOM     16  O   UNL     1       4.763   2.717  20.426  0.00  0.00    +0.000 OA
ATOM     17  C   UNL     1       5.037   1.414  20.875  0.00  0.00    +0.000 C 
ENDBRANCH  13  16
BRANCH   1  18
ATOM     18  O   UNL     1       2.171   1.557  18.879  0.00  0.00    +0.000 OA
BRANCH  18  19
ATOM     19  C   UNL     1       0.914   1.945  19.386  0.00  0.00    +0.000 C 
BRANCH  19  21
ATOM     20  C   UNL     1       1.381   2.683  21.709  0.00  0.00    +0.000 C 
ATOM     21  C   UNL     1       1.014   2.992  20.453  0.00  0.00    +0.000 C 
ENDBRANCH  19  21
ENDBRANCH  18  19
ENDBRANCH   1  18
TORSDOF 5
ENDMDL
MODEL 3
REMARK VINA RESULT:      -6.4      2.781      4.397
REMARK  Name = 
REMARK  7 active torsions:
REMARK  status: ('A' for Active; 'I' for Inactive)
REMARK    1  A    between atoms: C_2  and  C_3
REMARK    2  A    between atoms: C_3  and  O_4
REMARK    3  A    between atoms: O_4  and  C_5
REMARK    4  A    between atoms: C_9  and  O_10
REMARK    5  A    between atoms: O_10  and  C_11
REMARK    6  A    between atoms: C_19  and  O_20
REMARK    7  A    between atoms: O_20  and  C_21
REMARK                            x       y       z     vdW  Elec       q    Type
REMARK                         _______ _______ _______ _____ _____    ______ ____
ROOT
ATOM      1  C   UNL     1       2.255   5.043  19.063  0.00  0.00    +0.000 A 
ATOM      2  C   UNL     1       2.928   6.231  19.358  0.00  0.00    +0.000 A 
ATOM      3  C   UNL     1       4.014   6.681  18.606  0.00  0.00    +0.000 A 
ATOM      4  C   UNL     1       4.546   5.945  17.528  0.00  0.00    +0.000 A 
ATOM      5  C   UNL     1       5.685   6.325  16.727  0.00  0.00    +0.000 A 
ATOM      6  C   UNL     1       6.063   5.441  15.700  0.00  0.00    +0.000 A 
ATOM      7  C   UNL     1       7.086   5.398  14.708  0.00  0.00    +0.000 A 
ATOM      8  C   UNL     1       6.894   4.229  14.008  0.00  0.00    +0.000 A 
ATOM      9  O   UNL     1       5.826   3.550  14.496  0.00  0.00    +0.000 OA
ATOM     10  C   UNL     1       5.322   4.287  15.525  0.00  0.00    +0.000 A 
ATOM     11  N   UNL     1       4.264   3.911  16.238  0.00  0.00    +0.000 NA
ATOM     12  C   UNL     1       3.875   4.717  17.230  0.00  0.00    +0.000 A 
ATOM     13  C   UNL     1       2.732   4.284  17.979  0.00  0.00    +0.000 A 
ENDROOT
BRANCH   5  14
ATOM     14  O   UNL     1       6.496   7.413  16.788  0.00  0.00    +0.000 OA
ATOM     15  C   UNL     1       7.618   7.508  17.634  0.00  0.00    +0.000 C 
ENDBRANCH   5  14
BRANCH  13  16
ATOM     16  O   UNL     1       2.216   3.144  17.408  0.00  0.00    +0.000 OA
ATOM     17  C   UNL     1       2.390   1.822  17.850  0.00  0.00    +0.000 C 
ENDBRANCH  13  16
BRANCH   1  18
ATOM     18  O   UNL     1       1.213   4.882  19.944  0.00  0.00    +0.000 OA
BRANCH  18  19
ATOM     19  C   UNL     1       0.854   3.576  20.338  0.00  0.00    +0.000 C 
BRANCH  19  21
ATOM     20  C   UNL     1       2.772   2.525  21.509  0.00  0.00    +0.000 C 
ATOM     21  C   UNL     1       1.570   3.123  21.574  0.00  0.00    +0.000 C 
ENDBRANCH  19  21
ENDBRANCH  18  19
ENDBRANCH   1  18
TORSDOF 5
ENDMDL
MODEL 4
REMARK VINA RESULT:      -6.3      2.146      4.120
REMARK  Name = 
REMARK  7 active torsions:
REMARK  status: ('A' for Active; 'I' for Inactive)
REMARK    1  A    between atoms: C_2  and  C_3
REMARK    2  A    between atoms: C_3  and  O_4
REMARK    3  A    between atoms: O_4  and  C_5
REMARK    4  A    between atoms: C_9  and  O_10
REMARK    5  A    between atoms: O_10  and  C_11
REMARK    6  A    between atoms: C_19  and  O_20
REMARK    7  A    between atoms: O_20  and  C_21
REMARK                            x       y       z     vdW  Elec       q    Type
REMARK                         _______ _______ _______ _____ _____    ______ ____
ROOT
ATOM      1  C   UNL     1       1.298   9.630  19.300  0.00  0.00    +0.000 A 
ATOM      2  C   UNL     1       1.952   9.429  18.082  0.00  0.00    +0.000 A 
ATOM      3  C   UNL     1       2.508   8.201  17.727  0.00  0.00    +0.000 A 
ATOM      4  C   UNL     1       2.500   7.086  18.591  0.00  0.00    +0.000 A 
ATOM      5  C   UNL     1       3.083   5.796  18.311  0.00  0.00    +0.000 A 
ATOM      6  C   UNL     1       2.974   4.818  19.315  0.00  0.00    +0.000 A 
ATOM      7  C   UNL     1       3.390   3.464  19.480  0.00  0.00    +0.000 A 
ATOM      8  C   UNL     1       2.959   3.078  20.728  0.00  0.00    +0.000 A 
ATOM      9  O   UNL     1       2.305   4.094  21.344  0.00  0.00    +0.000 OA
ATOM     10  C   UNL     1       2.315   5.152  20.485  0.00  0.00    +0.000 A 
ATOM     11  N   UNL     1       1.759   6.326  20.771  0.00  0.00    +0.000 NA
ATOM     12  C   UNL     1       1.848   7.288  19.848  0.00  0.00    +0.000 A 
ATOM     13  C   UNL     1       1.239   8.541  20.188  0.00  0.00    +0.000 A 
ENDROOT
BRANCH   5  14
ATOM     14  O   UNL     1       3.751   5.337  17.221  0.00  0.00    +0.000 OA
ATOM     15  C   UNL     1       5.094   5.650  16.934  0.00  0.00    +0.000 C 
ENDBRANCH   5  14
BRANCH  13  16
ATOM     16  O   UNL     1       0.586   8.421  21.392  0.00  0.00    +0.000 OA
ATOM     17  C   UNL     1       0.680   9.283  22.497  0.00  0.00    +0.000 C 
ENDBRANCH  13  16
BRANCH   1  18
ATOM     18  O   UNL     1       0.824  10.919  19.352  0.00  0.00    +0.000 OA
BRANCH  18  19
ATOM     19  C   UNL     1      -0.561  11.126  19.514  0.00  0.00    +0.000 C 
BRANCH  19  21
ATOM     20  C   UNL     1      -1.790  10.165  17.583  0.00  0.00    +0.000 C 
ATOM     21  C   UNL     1      -1.288  11.244  18.209  0.00  0.00    +0.000 C 
ENDBRANCH  19  21
ENDBRANCH  18  19
ENDBRANCH   1  18
TORSDOF 5
ENDMDL
MODEL 5
REMARK VINA RESULT:      -6.2      2.994      5.129
REMARK  Name = 
REMARK  7 active torsions:
REMARK  status: ('A' for Active; 'I' for Inactive)
REMARK    1  A    between atoms: C_2  and  C_3
REMARK    2  A    between atoms: C_3  and  O_4
REMARK    3  A    between atoms: O_4  and  C_5
REMARK    4  A    between atoms: C_9  and  O_10
REMARK    5  A    between atoms: O_10  and  C_11
REMARK    6  A    between atoms: C_19  and  O_20
REMARK    7  A    between atoms: O_20  and  C_21
REMARK                            x       y       z     vdW  Elec       q    Type
REMARK                         _______ _______ _______ _____ _____    ______ ____
ROOT
ATOM      1  C   UNL     1       6.071   6.721  17.572  0.00  0.00    +0.000 A 
ATOM      2  C   UNL     1       6.869   5.695  18.084  0.00  0.00    +0.000 A 
ATOM      3  C   UNL     1       6.337   4.479  18.514  0.00  0.00    +0.000 A 
ATOM      4  C   UNL     1       4.952   4.215  18.514  0.00  0.00    +0.000 A 
ATOM      5  C   UNL     1       4.324   3.000  18.974  0.00  0.00    +0.000 A 
ATOM      6  C   UNL     1       2.921   2.942  18.898  0.00  0.00    +0.000 A 
ATOM      7  C   UNL     1       1.913   1.991  19.232  0.00  0.00    +0.000 A 
ATOM      8  C   UNL     1       0.710   2.571  18.905  0.00  0.00    +0.000 A 
ATOM      9  O   UNL     1       0.903   3.812  18.389  0.00  0.00    +0.000 OA
ATOM     10  C   UNL     1       2.247   4.036  18.387  0.00  0.00    +0.000 A 
ATOM     11  N   UNL     1       2.795   5.166  17.947  0.00  0.00    +0.000 NA
ATOM     12  C   UNL     1       4.125   5.268  18.009  0.00  0.00    +0.000 A 
ATOM     13  C   UNL     1       4.683   6.498  17.527  0.00  0.00    +0.000 A 
ENDROOT
BRANCH   5  14
ATOM     14  O   UNL     1       4.855   1.863  19.494  0.00  0.00    +0.000 OA
ATOM     15  C   UNL     1       5.051   1.648  20.872  0.00  0.00    +0.000 C 
ENDBRANCH   5  14
BRANCH  13  16
ATOM     16  O   UNL     1       3.683   7.275  16.992  0.00  0.00    +0.000 OA
ATOM     17  C   UNL     1       2.961   8.291  17.641  0.00  0.00    +0.000 C 
ENDBRANCH  13  16
BRANCH   1  18
ATOM     18  O   UNL     1       6.872   7.773  17.198  0.00  0.00    +0.000 OA
BRANCH  18  19
ATOM     19  C   UNL     1       8.047   8.027  17.934  0.00  0.00    +0.000 C 
BRANCH  19  21
ATOM     20  C   UNL     1       9.140   9.958  19.046  0.00  0.00    +0.000 C 
ATOM     21  C   UNL     1       8.347   9.489  18.066  0.00  0.00    +0.000 C 
ENDBRANCH  19  21
ENDBRANCH  18  19
ENDBRANCH   1  18
TORSDOF 5
ENDMDL
MODEL 6
REMARK VINA RESULT:      -6.2      2.244      7.324
REMARK  Name = 
REMARK  7 active torsions:
REMARK  status: ('A' for Active; 'I' for Inactive)
REMARK    1  A    between atoms: C_2  and  C_3
REMARK    2  A    between atoms: C_3  and  O_4
REMARK    3  A    between atoms: O_4  and  C_5
REMARK    4  A    between atoms: C_9  and  O_10
REMARK    5  A    between atoms: O_10  and  C_11
REMARK    6  A    between atoms: C_19  and  O_20
REMARK    7  A    between atoms: O_20  and  C_21
REMARK                            x       y       z     vdW  Elec       q    Type
REMARK                         _______ _______ _______ _____ _____    ______ ____
ROOT
ATOM      1  C   UNL     1       2.791   7.009  18.375  0.00  0.00    +0.000 A 
ATOM      2  C   UNL     1       2.629   8.136  17.567  0.00  0.00    +0.000 A 
ATOM      3  C   UNL     1       1.960   9.279  18.005  0.00  0.00    +0.000 A 
ATOM      4  C   UNL     1       1.353   9.362  19.275  0.00  0.00    +0.000 A 
ATOM      5  C   UNL     1       0.616  10.493  19.786  0.00  0.00    +0.000 A 
ATOM      6  C   UNL     1       0.078  10.369  21.079  0.00  0.00    +0.000 A 
ATOM      7  C   UNL     1      -0.698  11.187  21.952  0.00  0.00    +0.000 A 
ATOM      8  C   UNL     1      -0.895  10.451  23.097  0.00  0.00    +0.000 A 
ATOM      9  O   UNL     1      -0.294   9.239  22.995  0.00  0.00    +0.000 OA
ATOM     10  C   UNL     1       0.296   9.190  21.768  0.00  0.00    +0.000 A 
ATOM     11  N   UNL     1       0.977   8.134  21.331  0.00  0.00    +0.000 NA
ATOM     12  C   UNL     1       1.498   8.205  20.103  0.00  0.00    +0.000 A 
ATOM     13  C   UNL     1       2.225   7.050  19.662  0.00  0.00    +0.000 A 
ENDROOT
BRANCH   5  14
ATOM     14  O   UNL     1       0.326  11.697  19.226  0.00  0.00    +0.000 OA
ATOM     15  C   UNL     1       1.245  12.760  19.132  0.00  0.00    +0.000 C 
ENDBRANCH   5  14
BRANCH  13  16
ATOM     16  O   UNL     1       2.311   6.143  20.692  0.00  0.00    +0.000 OA
ATOM     17  C   UNL     1       2.037   4.766  20.633  0.00  0.00    +0.000 C 
ENDBRANCH  13  16
BRANCH   1  18
ATOM     18  O   UNL     1       3.519   6.063  17.693  0.00  0.00    +0.000 OA
BRANCH  18  19
ATOM     19  C   UNL     1       4.874   5.875  18.034  0.00  0.00    +0.000 C 
BRANCH  19  21
ATOM     20  C   UNL     1       7.060   6.881  17.426  0.00  0.00    +0.000 C 
ATOM     21  C   UNL     1       5.814   6.528  17.066  0.00  0.00    +0.000 C 
ENDBRANCH  19  21
ENDBRANCH  18  19
ENDBRANCH   1  18
TORSDOF 5
ENDMDL
MODEL 7
REMARK VINA RESULT:      -6.1      1.839      6.432
REMARK  Name = 
REMARK  7 active torsions:
REMARK  status: ('A' for Active; 'I' for Inactive)
REMARK    1  A    between atoms: C_2  and  C_3
REMARK    2  A    between atoms: C_3  and  O_4
REMARK    3  A    between atoms: O_4  and  C_5
REMARK    4  A    between atoms: C_9  and  O_10
REMARK    5  A    between atoms: O_10  and  C_11
REMARK    6  A    between atoms: C_19  and  O_20
REMARK    7  A    between atoms: O_20  and  C_21
REMARK                            x       y       z     vdW  Elec       q    Type
REMARK                         _______ _______ _______ _____ _____    ______ ____
ROOT
ATOM      1  C   UNL     1       5.049   4.037  16.606  0.00  0.00    +0.000 A 
ATOM      2  C   UNL     1       4.312   2.945  17.071  0.00  0.00    +0.000 A 
ATOM      3  C   UNL     1       3.281   3.082  18.001  0.00  0.00    +0.000 A 
ATOM      4  C   UNL     1       2.942   4.321  18.581  0.00  0.00    +0.000 A 
ATOM      5  C   UNL     1       1.916   4.537  19.572  0.00  0.00    +0.000 A 
ATOM      6  C   UNL     1       1.743   5.855  20.032  0.00  0.00    +0.000 A 
ATOM      7  C   UNL     1       0.897   6.512  20.972  0.00  0.00    +0.000 A 
ATOM      8  C   UNL     1       1.252   7.840  20.948  0.00  0.00    +0.000 A 
ATOM      9  O   UNL     1       2.254   8.051  20.058  0.00  0.00    +0.000 OA
ATOM     10  C   UNL     1       2.553   6.843  19.503  0.00  0.00    +0.000 A 
ATOM     11  N   UNL     1       3.500   6.681  18.583  0.00  0.00    +0.000 NA
ATOM     12  C   UNL     1       3.705   5.442  18.125  0.00  0.00    +0.000 A 
ATOM     13  C   UNL     1       4.733   5.301  17.136  0.00  0.00    +0.000 A 
ENDROOT
BRANCH   5  14
ATOM     14  O   UNL     1       1.059   3.670  20.174  0.00  0.00    +0.000 OA
ATOM     15  C   UNL     1       1.412   2.847  21.261  0.00  0.00    +0.000 C 
ENDBRANCH   5  14
BRANCH  13  16
ATOM     16  O   UNL     1       5.216   6.543  16.798  0.00  0.00    +0.000 OA
ATOM     17  C   UNL     1       6.475   7.078  17.115  0.00  0.00    +0.000 C 
ENDBRANCH  13  16
BRANCH   1  18
ATOM     18  O   UNL     1       5.963   3.604  15.676  0.00  0.00    +0.000 OA
BRANCH  18  19
ATOM     19  C   UNL     1       6.162   4.374  14.512  0.00  0.00    +0.000 C 
BRANCH  19  21
ATOM     20  C   UNL     1       6.235   3.384  12.237  0.00  0.00    +0.000 C 
ATOM     21  C   UNL     1       5.512   3.776  13.300  0.00  0.00    +0.000 C 
ENDBRANCH  19  21
ENDBRANCH  18  19
ENDBRANCH   1  18
TORSDOF 5
ENDMDL
MODEL 8
REMARK VINA RESULT:      -6.1      2.191      7.319
REMARK  Name = 
REMARK  7 active torsions:
REMARK  status: ('A' for Active; 'I' for Inactive)
REMARK    1  A    between atoms: C_2  and  C_3
REMARK    2  A    between atoms: C_3  and  O_4
REMARK    3  A    between atoms: O_4  and  C_5
REMARK    4  A    between atoms: C_9  and  O_10
REMARK    5  A    between atoms: O_10  and  C_11
REMARK    6  A    between atoms: C_19  and  O_20
REMARK    7  A    between atoms: O_20  and  C_21
REMARK                            x       y       z     vdW  Elec       q    Type
REMARK                         _______ _______ _______ _____ _____    ______ ____
ROOT
ATOM      1  C   UNL     1       2.779   6.811  18.535  0.00  0.00    +0.000 A 
ATOM      2  C   UNL     1       2.654   7.921  17.696  0.00  0.00    +0.000 A 
ATOM      3  C   UNL     1       2.005   9.090  18.095  0.00  0.00    +0.000 A 
ATOM      4  C   UNL     1       1.381   9.219  19.353  0.00  0.00    +0.000 A 
ATOM      5  C   UNL     1       0.662  10.378  19.824  0.00  0.00    +0.000 A 
ATOM      6  C   UNL     1       0.102  10.299  21.111  0.00  0.00    +0.000 A 
ATOM      7  C   UNL     1      -0.669  11.156  21.950  0.00  0.00    +0.000 A 
ATOM      8  C   UNL     1      -0.899  10.454  23.110  0.00  0.00    +0.000 A 
ATOM      9  O   UNL     1      -0.324   9.226  23.049  0.00  0.00    +0.000 OA
ATOM     10  C   UNL     1       0.283   9.133  21.833  0.00  0.00    +0.000 A 
ATOM     11  N   UNL     1       0.946   8.051  21.433  0.00  0.00    +0.000 NA
ATOM     12  C   UNL     1       1.487   8.079  20.212  0.00  0.00    +0.000 A 
ATOM     13  C   UNL     1       2.194   6.898  19.811  0.00  0.00    +0.000 A 
ENDROOT
BRANCH   5  14
ATOM     14  O   UNL     1       0.408  11.573  19.229  0.00  0.00    +0.000 OA
ATOM     15  C   UNL     1      -0.724  11.827  18.431  0.00  0.00    +0.000 C 
ENDBRANCH   5  14
BRANCH  13  16
ATOM     16  O   UNL     1       2.244   6.016  20.864  0.00  0.00    +0.000 OA
ATOM     17  C   UNL     1       1.863   4.663  20.855  0.00  0.00    +0.000 C 
ENDBRANCH  13  16
BRANCH   1  18
ATOM     18  O   UNL     1       3.495   5.833  17.888  0.00  0.00    +0.000 OA
BRANCH  18  19
ATOM     19  C   UNL     1       2.836   4.641  17.521  0.00  0.00    +0.000 C 
BRANCH  19  21
ATOM     20  C   UNL     1       3.397   2.273  18.007  0.00  0.00    +0.000 C 
ATOM     21  C   UNL     1       3.754   3.458  17.480  0.00  0.00    +0.000 C 
ENDBRANCH  19  21
ENDBRANCH  18  19
ENDBRANCH   1  18
TORSDOF 5
ENDMDL
MODEL 9
REMARK VINA RESULT:      -6.1      2.146      3.992
REMARK  Name = 
REMARK  7 active torsions:
REMARK  status: ('A' for Active; 'I' for Inactive)
REMARK    1  A    between atoms: C_2  and  C_3
REMARK    2  A    between atoms: C_3  and  O_4
REMARK    3  A    between atoms: O_4  and  C_5
REMARK    4  A    between atoms: C_9  and  O_10
REMARK    5  A    between atoms: O_10  and  C_11
REMARK    6  A    between atoms: C_19  and  O_20
REMARK    7  A    between atoms: O_20  and  C_21
REMARK                            x       y       z     vdW  Elec       q    Type
REMARK                         _______ _______ _______ _____ _____    ______ ____
ROOT
ATOM      1  C   UNL     1       1.765   8.924  19.005  0.00  0.00    +0.000 A 
ATOM      2  C   UNL     1       2.453   8.496  17.867  0.00  0.00    +0.000 A 
ATOM      3  C   UNL     1       2.912   7.187  17.719  0.00  0.00    +0.000 A 
ATOM      4  C   UNL     1       2.764   6.213  18.728  0.00  0.00    +0.000 A 
ATOM      5  C   UNL     1       3.241   4.853  18.666  0.00  0.00    +0.000 A 
ATOM      6  C   UNL     1       2.999   4.042  19.788  0.00  0.00    +0.000 A 
ATOM      7  C   UNL     1       3.284   2.697  20.164  0.00  0.00    +0.000 A 
ATOM      8  C   UNL     1       2.765   2.531  21.427  0.00  0.00    +0.000 A 
ATOM      9  O   UNL     1       2.177   3.676  21.856  0.00  0.00    +0.000 OA
ATOM     10  C   UNL     1       2.321   4.594  20.860  0.00  0.00    +0.000 A 
ATOM     11  N   UNL     1       1.860   5.839  20.947  0.00  0.00    +0.000 NA
ATOM     12  C   UNL     1       2.076   6.648  19.906  0.00  0.00    +0.000 A 
ATOM     13  C   UNL     1       1.568   7.982  20.031  0.00  0.00    +0.000 A 
ENDROOT
BRANCH   5  14
ATOM     14  O   UNL     1       3.914   4.188  17.690  0.00  0.00    +0.000 OA
ATOM     15  C   UNL     1       5.292   4.342  17.443  0.00  0.00    +0.000 C 
ENDBRANCH   5  14
BRANCH  13  16
ATOM     16  O   UNL     1       0.853   8.091  21.200  0.00  0.00    +0.000 OA
ATOM     17  C   UNL     1       0.929   9.126  22.147  0.00  0.00    +0.000 C 
ENDBRANCH  13  16
BRANCH   1  18
ATOM     18  O   UNL     1       1.406  10.241  18.849  0.00  0.00    +0.000 OA
BRANCH  18  19
ATOM     19  C   UNL     1       0.046  10.555  18.650  0.00  0.00    +0.000 C 
BRANCH  19  21
ATOM     20  C   UNL     1      -1.385  12.515  19.170  0.00  0.00    +0.000 C 
ATOM     21  C   UNL     1      -0.441  11.640  19.561  0.00  0.00    +0.000 C 
ENDBRANCH  19  21
ENDBRANCH  18  19
ENDBRANCH   1  18
TORSDOF 5
ENDMDL
