MODEL 1
REMARK VINA RESULT:      -9.1      0.000      0.000
REMARK  Name = 
REMARK  6 active torsions:
REMARK  status: ('A' for Active; 'I' for Inactive)
REMARK    1  A    between atoms: C_2  and  C_3
REMARK    2  A    between atoms: N_5  and  C_6
REMARK    3  A    between atoms: N_5  and  C_13
REMARK    4  A    between atoms: C_13  and  C_14
REMARK    5  A    between atoms: N_16  and  C_17
REMARK    6  A    between atoms: C_17  and  C_18
REMARK                            x       y       z     vdW  Elec       q    Type
REMARK                         _______ _______ _______ _____ _____    ______ ____
ROOT
ATOM      1  C   UNL     1       3.058   5.665  18.508  0.00  0.00    +0.000 C 
ATOM      2  C   UNL     1       3.100   5.576  20.082  0.00  0.00    +0.000 C 
ATOM      3  C   UNL     1       2.747   4.247  20.755  0.00  0.00    +0.000 C 
ATOM      4  C   UNL     1       1.637   3.476  20.073  0.00  0.00    +0.000 C 
ATOM      5  F   UNL     1       0.457   4.006  20.510  0.00  0.00    +0.000 F 
ATOM      6  F   UNL     1       1.645   2.187  20.494  0.00  0.00    +0.000 F 
ATOM      7  C   UNL     1       1.614   3.511  18.558  0.00  0.00    +0.000 C 
ATOM      8  C   UNL     1       1.785   4.920  18.026  0.00  0.00    +0.000 C 
ENDROOT
BRANCH   1   9
ATOM      9  C   UNL     1       2.775   7.200  18.159  0.00  0.00    +0.000 C 
ATOM     10  O   UNL     1       3.113   7.700  17.074  0.00  0.00    +0.000 OA
ATOM     11  N   UNL     1       2.151   8.032  19.027  0.00  0.00    +0.000 N 
ATOM     12  H   UNL     1       2.042   8.980  18.692  0.00  0.00    +0.000 HD
BRANCH  11  13
ATOM     13  C   UNL     1       1.647   7.723  20.336  0.00  0.00    +0.000 C 
BRANCH  13  14
ATOM     14  C   UNL     1       0.859   8.836  20.970  0.00  0.00    +0.000 A 
ATOM     15  C   UNL     1       0.670   8.974  22.352  0.00  0.00    +0.000 A 
ATOM     16  C   UNL     1      -0.130  10.000  22.855  0.00  0.00    +0.000 A 
ATOM     17  C   UNL     1      -0.738  10.904  21.985  0.00  0.00    +0.000 A 
ATOM     18  C   UNL     1      -0.523  10.803  20.613  0.00  0.00    +0.000 A 
ATOM     19  C   UNL     1       0.275   9.779  20.110  0.00  0.00    +0.000 A 
ENDBRANCH  13  14
ENDBRANCH  11  13
ENDBRANCH   1   9
BRANCH   1  22
ATOM     20  C   UNL     1       4.265   4.339  16.650  0.00  0.00    +0.000 C 
ATOM     21  O   UNL     1       3.252   3.826  16.204  0.00  0.00    +0.000 OA
ATOM     22  N   UNL     1       4.327   5.130  17.813  0.00  0.00    +0.000 N 
BRANCH  22  23
ATOM     23  C   UNL     1       5.621   5.612  18.222  0.00  0.00    +0.000 A 
ATOM     24  C   UNL     1       6.375   4.932  19.179  0.00  0.00    +0.000 A 
ATOM     25  C   UNL     1       7.622   5.412  19.581  0.00  0.00    +0.000 A 
ATOM     26  C   UNL     1       8.147   6.566  19.007  0.00  0.00    +0.000 A 
ATOM     27  C   UNL     1       7.408   7.255  18.052  0.00  0.00    +0.000 A 
ATOM     28 CL   UNL     1       8.071   8.661  17.314  0.00  0.00    +0.000 Cl
ATOM     29  C   UNL     1       6.144   6.799  17.675  0.00  0.00    +0.000 A 
ENDBRANCH  22  23
BRANCH  20  31
ATOM     30  C   UNL     1       6.389   4.017  15.088  0.00  0.00    +0.000 C 
ATOM     31  C   UNL     1       5.442   4.141  15.826  0.00  0.00    +0.000 C 
ENDBRANCH  20  31
ENDBRANCH   1  22
TORSDOF 6
ENDMDL
MODEL 2
REMARK VINA RESULT:      -9.1      0.900      1.254
REMARK  Name = 
REMARK  6 active torsions:
REMARK  status: ('A' for Active; 'I' for Inactive)
REMARK    1  A    between atoms: C_2  and  C_3
REMARK    2  A    between atoms: N_5  and  C_6
REMARK    3  A    between atoms: N_5  and  C_13
REMARK    4  A    between atoms: C_13  and  C_14
REMARK    5  A    between atoms: N_16  and  C_17
REMARK    6  A    between atoms: C_17  and  C_18
REMARK                            x       y       z     vdW  Elec       q    Type
REMARK                         _______ _______ _______ _____ _____    ______ ____
ROOT
ATOM      1  C   UNL     1       3.018   5.761  18.459  0.00  0.00    +0.000 C 
ATOM      2  C   UNL     1       3.117   5.671  20.029  0.00  0.00    +0.000 C 
ATOM      3  C   UNL     1       2.787   4.342  20.715  0.00  0.00    +0.000 C 
ATOM      4  C   UNL     1       1.653   3.572  20.073  0.00  0.00    +0.000 C 
ATOM      5  F   UNL     1       0.490   4.102  20.553  0.00  0.00    +0.000 F 
ATOM      6  F   UNL     1       1.676   2.283  20.493  0.00  0.00    +0.000 F 
ATOM      7  C   UNL     1       1.575   3.608  18.560  0.00  0.00    +0.000 C 
ATOM      8  C   UNL     1       1.728   5.017  18.022  0.00  0.00    +0.000 C 
ENDROOT
BRANCH   1   9
ATOM      9  C   UNL     1       2.723   7.296  18.120  0.00  0.00    +0.000 C 
ATOM     10  O   UNL     1       3.019   7.795  17.023  0.00  0.00    +0.000 OA
ATOM     11  N   UNL     1       2.135   8.129  19.012  0.00  0.00    +0.000 N 
ATOM     12  H   UNL     1       2.013   9.078  18.682  0.00  0.00    +0.000 HD
BRANCH  11  13
ATOM     13  C   UNL     1       1.682   7.821  20.340  0.00  0.00    +0.000 C 
BRANCH  13  14
ATOM     14  C   UNL     1       0.866   8.911  20.980  0.00  0.00    +0.000 A 
ATOM     15  C   UNL     1       0.625   9.002  22.357  0.00  0.00    +0.000 A 
ATOM     16  C   UNL     1      -0.198  10.009  22.863  0.00  0.00    +0.000 A 
ATOM     17  C   UNL     1      -0.777  10.938  22.001  0.00  0.00    +0.000 A 
ATOM     18  C   UNL     1      -0.510  10.883  20.636  0.00  0.00    +0.000 A 
ATOM     19  C   UNL     1       0.310   9.879  20.130  0.00  0.00    +0.000 A 
ENDBRANCH  13  14
ENDBRANCH  11  13
ENDBRANCH   1   9
BRANCH   1  22
ATOM     20  C   UNL     1       4.157   4.328  16.637  0.00  0.00    +0.000 C 
ATOM     21  O   UNL     1       3.144   3.729  16.317  0.00  0.00    +0.000 OA
ATOM     22  N   UNL     1       4.260   5.225  17.717  0.00  0.00    +0.000 N 
BRANCH  22  23
ATOM     23  C   UNL     1       5.552   5.805  17.981  0.00  0.00    +0.000 A 
ATOM     24  C   UNL     1       6.019   6.892  17.242  0.00  0.00    +0.000 A 
ATOM     25  C   UNL     1       7.277   7.442  17.494  0.00  0.00    +0.000 A 
ATOM     26  C   UNL     1       8.074   6.929  18.514  0.00  0.00    +0.000 A 
ATOM     27  C   UNL     1       7.622   5.846  19.260  0.00  0.00    +0.000 A 
ATOM     28 CL   UNL     1       8.589   5.234  20.544  0.00  0.00    +0.000 Cl
ATOM     29  C   UNL     1       6.381   5.269  18.985  0.00  0.00    +0.000 A 
ENDBRANCH  22  23
BRANCH  20  31
ATOM     30  C   UNL     1       6.175   3.962  14.949  0.00  0.00    +0.000 C 
ATOM     31  C   UNL     1       5.281   4.112  15.745  0.00  0.00    +0.000 C 
ENDBRANCH  20  31
ENDBRANCH   1  22
TORSDOF 6
ENDMDL
MODEL 3
REMARK VINA RESULT:      -8.8      3.521      6.667
REMARK  Name = 
REMARK  6 active torsions:
REMARK  status: ('A' for Active; 'I' for Inactive)
REMARK    1  A    between atoms: C_2  and  C_3
REMARK    2  A    between atoms: N_5  and  C_6
REMARK    3  A    between atoms: N_5  and  C_13
REMARK    4  A    between atoms: C_13  and  C_14
REMARK    5  A    between atoms: N_16  and  C_17
REMARK    6  A    between atoms: C_17  and  C_18
REMARK                            x       y       z     vdW  Elec       q    Type
REMARK                         _______ _______ _______ _____ _____    ______ ____
ROOT
ATOM      1  C   UNL     1       5.704   5.646  17.637  0.00  0.00    +0.000 C 
ATOM      2  C   UNL     1       6.253   6.288  16.306  0.00  0.00    +0.000 C 
ATOM      3  C   UNL     1       5.763   5.738  14.963  0.00  0.00    +0.000 C 
ATOM      4  C   UNL     1       5.552   4.239  14.942  0.00  0.00    +0.000 C 
ATOM      5  F   UNL     1       6.774   3.668  14.726  0.00  0.00    +0.000 F 
ATOM      6  F   UNL     1       4.787   3.896  13.876  0.00  0.00    +0.000 F 
ATOM      7  C   UNL     1       4.977   3.613  16.198  0.00  0.00    +0.000 C 
ATOM      8  C   UNL     1       5.684   4.105  17.445  0.00  0.00    +0.000 C 
ENDROOT
BRANCH   1   9
ATOM      9  C   UNL     1       6.830   5.892  18.745  0.00  0.00    +0.000 C 
ATOM     10  O   UNL     1       6.946   5.156  19.738  0.00  0.00    +0.000 OA
ATOM     11  N   UNL     1       7.714   6.914  18.658  0.00  0.00    +0.000 N 
ATOM     12  H   UNL     1       8.368   6.969  19.427  0.00  0.00    +0.000 HD
BRANCH  11  13
ATOM     13  C   UNL     1       7.816   7.905  17.622  0.00  0.00    +0.000 C 
BRANCH  13  14
ATOM     14  C   UNL     1       8.326   9.239  18.095  0.00  0.00    +0.000 A 
ATOM     15  C   UNL     1       8.130  10.441  17.403  0.00  0.00    +0.000 A 
ATOM     16  C   UNL     1       8.691  11.628  17.878  0.00  0.00    +0.000 A 
ATOM     17  C   UNL     1       9.441  11.625  19.053  0.00  0.00    +0.000 A 
ATOM     18  C   UNL     1       9.605  10.444  19.772  0.00  0.00    +0.000 A 
ATOM     19  C   UNL     1       9.047   9.260  19.298  0.00  0.00    +0.000 A 
ENDBRANCH  13  14
ENDBRANCH  11  13
ENDBRANCH   1   9
BRANCH   1  22
ATOM     20  C   UNL     1       3.936   7.516  17.852  0.00  0.00    +0.000 C 
ATOM     21  O   UNL     1       4.685   8.416  17.509  0.00  0.00    +0.000 OA
ATOM     22  N   UNL     1       4.324   6.181  18.073  0.00  0.00    +0.000 N 
BRANCH  22  23
ATOM     23  C   UNL     1       3.314   5.260  18.525  0.00  0.00    +0.000 A 
ATOM     24  C   UNL     1       2.368   4.737  17.644  0.00  0.00    +0.000 A 
ATOM     25  C   UNL     1       1.384   3.854  18.090  0.00  0.00    +0.000 A 
ATOM     26  C   UNL     1       1.352   3.456  19.424  0.00  0.00    +0.000 A 
ATOM     27  C   UNL     1       2.289   3.969  20.315  0.00  0.00    +0.000 A 
ATOM     28 CL   UNL     1       2.275   3.452  21.956  0.00  0.00    +0.000 Cl
ATOM     29  C   UNL     1       3.251   4.881  19.880  0.00  0.00    +0.000 A 
ENDBRANCH  22  23
BRANCH  20  31
ATOM     30  C   UNL     1       1.365   8.168  17.987  0.00  0.00    +0.000 C 
ATOM     31  C   UNL     1       2.543   7.906  17.945  0.00  0.00    +0.000 C 
ENDBRANCH  20  31
ENDBRANCH   1  22
TORSDOF 6
ENDMDL
MODEL 4
REMARK VINA RESULT:      -8.7      2.737      6.675
REMARK  Name = 
REMARK  6 active torsions:
REMARK  status: ('A' for Active; 'I' for Inactive)
REMARK    1  A    between atoms: C_2  and  C_3
REMARK    2  A    between atoms: N_5  and  C_6
REMARK    3  A    between atoms: N_5  and  C_13
REMARK    4  A    between atoms: C_13  and  C_14
REMARK    5  A    between atoms: N_16  and  C_17
REMARK    6  A    between atoms: C_17  and  C_18
REMARK                            x       y       z     vdW  Elec       q    Type
REMARK                         _______ _______ _______ _____ _____    ______ ____
ROOT
ATOM      1  C   UNL     1       3.693   3.586  18.319  0.00  0.00    +0.000 C 
ATOM      2  C   UNL     1       2.269   3.737  17.661  0.00  0.00    +0.000 C 
ATOM      3  C   UNL     1       1.090   4.159  18.542  0.00  0.00    +0.000 C 
ATOM      4  C   UNL     1       1.119   3.586  19.943  0.00  0.00    +0.000 C 
ATOM      5  F   UNL     1       0.605   2.323  19.867  0.00  0.00    +0.000 F 
ATOM      6  F   UNL     1       0.277   4.283  20.744  0.00  0.00    +0.000 F 
ATOM      7  C   UNL     1       2.477   3.481  20.608  0.00  0.00    +0.000 C 
ATOM      8  C   UNL     1       3.511   2.868  19.683  0.00  0.00    +0.000 C 
ENDROOT
BRANCH   1   9
ATOM      9  C   UNL     1       4.487   2.529  17.419  0.00  0.00    +0.000 C 
ATOM     10  O   UNL     1       4.633   1.347  17.768  0.00  0.00    +0.000 OA
ATOM     11  N   UNL     1       5.041   2.869  16.231  0.00  0.00    +0.000 N 
ATOM     12  H   UNL     1       5.526   2.114  15.763  0.00  0.00    +0.000 HD
BRANCH  11  13
ATOM     13  C   UNL     1       5.020   4.151  15.583  0.00  0.00    +0.000 C 
BRANCH  13  14
ATOM     14  C   UNL     1       5.910   4.244  14.374  0.00  0.00    +0.000 A 
ATOM     15  C   UNL     1       7.056   5.047  14.306  0.00  0.00    +0.000 A 
ATOM     16  C   UNL     1       7.793   5.126  13.123  0.00  0.00    +0.000 A 
ATOM     17  C   UNL     1       7.397   4.396  12.004  0.00  0.00    +0.000 A 
ATOM     18  C   UNL     1       6.286   3.561  12.073  0.00  0.00    +0.000 A 
ATOM     19  C   UNL     1       5.550   3.482  13.252  0.00  0.00    +0.000 A 
ENDBRANCH  13  14
ENDBRANCH  11  13
ENDBRANCH   1   9
BRANCH   1  22
ATOM     20  C   UNL     1       5.867   4.970  18.496  0.00  0.00    +0.000 C 
ATOM     21  O   UNL     1       6.604   4.005  18.608  0.00  0.00    +0.000 OA
ATOM     22  N   UNL     1       4.460   4.916  18.476  0.00  0.00    +0.000 N 
BRANCH  22  23
ATOM     23  C   UNL     1       3.746   6.163  18.389  0.00  0.00    +0.000 A 
ATOM     24  C   UNL     1       3.770   6.927  17.222  0.00  0.00    +0.000 A 
ATOM     25  C   UNL     1       3.086   8.141  17.146  0.00  0.00    +0.000 A 
ATOM     26  C   UNL     1       2.341   8.594  18.232  0.00  0.00    +0.000 A 
ATOM     27  C   UNL     1       2.307   7.844  19.402  0.00  0.00    +0.000 A 
ATOM     28 CL   UNL     1       1.358   8.382  20.732  0.00  0.00    +0.000 Cl
ATOM     29  C   UNL     1       3.021   6.648  19.494  0.00  0.00    +0.000 A 
ENDBRANCH  22  23
BRANCH  20  31
ATOM     30  C   UNL     1       7.196   7.235  18.100  0.00  0.00    +0.000 C 
ATOM     31  C   UNL     1       6.561   6.227  18.295  0.00  0.00    +0.000 C 
ENDBRANCH  20  31
ENDBRANCH   1  22
TORSDOF 6
ENDMDL
MODEL 5
REMARK VINA RESULT:      -8.3      3.969      6.789
REMARK  Name = 
REMARK  6 active torsions:
REMARK  status: ('A' for Active; 'I' for Inactive)
REMARK    1  A    between atoms: C_2  and  C_3
REMARK    2  A    between atoms: N_5  and  C_6
REMARK    3  A    between atoms: N_5  and  C_13
REMARK    4  A    between atoms: C_13  and  C_14
REMARK    5  A    between atoms: N_16  and  C_17
REMARK    6  A    between atoms: C_17  and  C_18
REMARK                            x       y       z     vdW  Elec       q    Type
REMARK                         _______ _______ _______ _____ _____    ______ ____
ROOT
ATOM      1  C   UNL     1       6.362   5.501  17.358  0.00  0.00    +0.000 C 
ATOM      2  C   UNL     1       6.415   6.587  16.217  0.00  0.00    +0.000 C 
ATOM      3  C   UNL     1       5.952   6.202  14.809  0.00  0.00    +0.000 C 
ATOM      4  C   UNL     1       6.305   4.787  14.400  0.00  0.00    +0.000 C 
ATOM      5  F   UNL     1       7.599   4.810  13.964  0.00  0.00    +0.000 F 
ATOM      6  F   UNL     1       5.558   4.417  13.330  0.00  0.00    +0.000 F 
ATOM      7  C   UNL     1       6.210   3.723  15.475  0.00  0.00    +0.000 C 
ATOM      8  C   UNL     1       6.877   4.163  16.763  0.00  0.00    +0.000 C 
ENDROOT
BRANCH   1   9
ATOM      9  C   UNL     1       7.481   5.919  18.421  0.00  0.00    +0.000 C 
ATOM     10  O   UNL     1       7.919   5.119  19.263  0.00  0.00    +0.000 OA
ATOM     11  N   UNL     1       8.009   7.165  18.456  0.00  0.00    +0.000 N 
ATOM     12  H   UNL     1       8.700   7.307  19.181  0.00  0.00    +0.000 HD
BRANCH  11  13
ATOM     13  C   UNL     1       7.699   8.278  17.602  0.00  0.00    +0.000 C 
BRANCH  13  14
ATOM     14  C   UNL     1       8.298   9.583  18.052  0.00  0.00    +0.000 A 
ATOM     15  C   UNL     1       8.063  10.811  17.419  0.00  0.00    +0.000 A 
ATOM     16  C   UNL     1       8.708  11.967  17.860  0.00  0.00    +0.000 A 
ATOM     17  C   UNL     1       9.584  11.908  18.943  0.00  0.00    +0.000 A 
ATOM     18  C   UNL     1       9.791  10.702  19.607  0.00  0.00    +0.000 A 
ATOM     19  C   UNL     1       9.148   9.549  19.167  0.00  0.00    +0.000 A 
ENDBRANCH  13  14
ENDBRANCH  11  13
ENDBRANCH   1   9
BRANCH   1  22
ATOM     20  C   UNL     1       4.062   6.405  18.110  0.00  0.00    +0.000 C 
ATOM     21  O   UNL     1       4.334   7.577  17.913  0.00  0.00    +0.000 OA
ATOM     22  N   UNL     1       4.971   5.334  18.006  0.00  0.00    +0.000 N 
BRANCH  22  23
ATOM     23  C   UNL     1       4.488   4.016  18.325  0.00  0.00    +0.000 A 
ATOM     24  C   UNL     1       3.632   3.332  17.461  0.00  0.00    +0.000 A 
ATOM     25  C   UNL     1       3.157   2.060  17.781  0.00  0.00    +0.000 A 
ATOM     26  C   UNL     1       3.558   1.439  18.961  0.00  0.00    +0.000 A 
ATOM     27  C   UNL     1       4.411   2.108  19.833  0.00  0.00    +0.000 A 
ATOM     28 CL   UNL     1       4.937   1.329  21.274  0.00  0.00    +0.000 Cl
ATOM     29  C   UNL     1       4.857   3.396  19.534  0.00  0.00    +0.000 A 
ENDBRANCH  22  23
BRANCH  20  31
ATOM     30  C   UNL     1       1.499   6.007  18.683  0.00  0.00    +0.000 C 
ATOM     31  C   UNL     1       2.661   6.160  18.393  0.00  0.00    +0.000 C 
ENDBRANCH  20  31
ENDBRANCH   1  22
TORSDOF 6
ENDMDL
MODEL 6
REMARK VINA RESULT:      -8.1      7.634     10.859
REMARK  Name = 
REMARK  6 active torsions:
REMARK  status: ('A' for Active; 'I' for Inactive)
REMARK    1  A    between atoms: C_2  and  C_3
REMARK    2  A    between atoms: N_5  and  C_6
REMARK    3  A    between atoms: N_5  and  C_13
REMARK    4  A    between atoms: C_13  and  C_14
REMARK    5  A    between atoms: N_16  and  C_17
REMARK    6  A    between atoms: C_17  and  C_18
REMARK                            x       y       z     vdW  Elec       q    Type
REMARK                         _______ _______ _______ _____ _____    ______ ____
ROOT
ATOM      1  C   UNL     1      -0.853  12.821  20.731  0.00  0.00    +0.000 C 
ATOM      2  C   UNL     1      -1.085  13.122  19.202  0.00  0.00    +0.000 C 
ATOM      3  C   UNL     1      -1.408  11.958  18.261  0.00  0.00    +0.000 C 
ATOM      4  C   UNL     1      -0.678  10.671  18.584  0.00  0.00    +0.000 C 
ATOM      5  F   UNL     1       0.566  10.769  18.029  0.00  0.00    +0.000 F 
ATOM      6  F   UNL     1      -1.283   9.629  17.962  0.00  0.00    +0.000 F 
ATOM      7  C   UNL     1      -0.493  10.344  20.053  0.00  0.00    +0.000 C 
ATOM      8  C   UNL     1       0.014  11.538  20.836  0.00  0.00    +0.000 C 
ENDROOT
BRANCH   1   9
ATOM      9  C   UNL     1       0.097  13.987  21.274  0.00  0.00    +0.000 C 
ATOM     10  O   UNL     1       0.921  13.794  22.182  0.00  0.00    +0.000 OA
ATOM     11  N   UNL     1       0.052  15.244  20.771  0.00  0.00    +0.000 N 
ATOM     12  H   UNL     1       0.695  15.892  21.206  0.00  0.00    +0.000 HD
BRANCH  11  13
ATOM     13  C   UNL     1      -0.789  15.743  19.719  0.00  0.00    +0.000 C 
BRANCH  13  14
ATOM     14  C   UNL     1      -0.070  16.588  18.704  0.00  0.00    +0.000 A 
ATOM     15  C   UNL     1       1.313  16.540  18.484  0.00  0.00    +0.000 A 
ATOM     16  C   UNL     1       1.912  17.404  17.566  0.00  0.00    +0.000 A 
ATOM     17  C   UNL     1       1.134  18.314  16.853  0.00  0.00    +0.000 A 
ATOM     18  C   UNL     1      -0.247  18.340  17.031  0.00  0.00    +0.000 A 
ATOM     19  C   UNL     1      -0.844  17.479  17.946  0.00  0.00    +0.000 A 
ENDBRANCH  13  14
ENDBRANCH  11  13
ENDBRANCH   1   9
BRANCH   1  22
ATOM     20  C   UNL     1      -2.168  12.155  22.853  0.00  0.00    +0.000 C 
ATOM     21  O   UNL     1      -1.243  11.554  23.372  0.00  0.00    +0.000 OA
ATOM     22  N   UNL     1      -2.154  12.694  21.553  0.00  0.00    +0.000 N 
BRANCH  22  23
ATOM     23  C   UNL     1      -3.357  13.330  21.082  0.00  0.00    +0.000 A 
ATOM     24  C   UNL     1      -3.594  14.685  21.311  0.00  0.00    +0.000 A 
ATOM     25  C   UNL     1      -4.768  15.293  20.863  0.00  0.00    +0.000 A 
ATOM     26  C   UNL     1      -5.710  14.557  20.150  0.00  0.00    +0.000 A 
ATOM     27  C   UNL     1      -5.488  13.205  19.913  0.00  0.00    +0.000 A 
ATOM     28 CL   UNL     1      -6.633  12.302  19.000  0.00  0.00    +0.000 Cl
ATOM     29  C   UNL     1      -4.333  12.585  20.392  0.00  0.00    +0.000 A 
ENDBRANCH  22  23
BRANCH  20  31
ATOM     30  C   UNL     1      -4.210  12.567  24.500  0.00  0.00    +0.000 C 
ATOM     31  C   UNL     1      -3.307  12.360  23.726  0.00  0.00    +0.000 C 
ENDBRANCH  20  31
ENDBRANCH   1  22
TORSDOF 6
ENDMDL
MODEL 7
REMARK VINA RESULT:      -8.1      7.633     10.709
REMARK  Name = 
REMARK  6 active torsions:
REMARK  status: ('A' for Active; 'I' for Inactive)
REMARK    1  A    between atoms: C_2  and  C_3
REMARK    2  A    between atoms: N_5  and  C_6
REMARK    3  A    between atoms: N_5  and  C_13
REMARK    4  A    between atoms: C_13  and  C_14
REMARK    5  A    between atoms: N_16  and  C_17
REMARK    6  A    between atoms: C_17  and  C_18
REMARK                            x       y       z     vdW  Elec       q    Type
REMARK                         _______ _______ _______ _____ _____    ______ ____
ROOT
ATOM      1  C   UNL     1      -0.965  12.406  20.326  0.00  0.00    +0.000 C 
ATOM      2  C   UNL     1      -1.294  12.804  18.837  0.00  0.00    +0.000 C 
ATOM      3  C   UNL     1      -1.894  11.747  17.905  0.00  0.00    +0.000 C 
ATOM      4  C   UNL     1      -1.355  10.348  18.118  0.00  0.00    +0.000 C 
ATOM      5  F   UNL     1      -0.173  10.270  17.439  0.00  0.00    +0.000 F 
ATOM      6  F   UNL     1      -2.180   9.444  17.536  0.00  0.00    +0.000 F 
ATOM      7  C   UNL     1      -1.082   9.934  19.550  0.00  0.00    +0.000 C 
ATOM      8  C   UNL     1      -0.312  10.998  20.306  0.00  0.00    +0.000 C 
ENDROOT
BRANCH   1   9
ATOM      9  C   UNL     1       0.212  13.382  20.797  0.00  0.00    +0.000 C 
ATOM     10  O   UNL     1       1.150  12.985  21.506  0.00  0.00    +0.000 OA
ATOM     11  N   UNL     1       0.246  14.689  20.444  0.00  0.00    +0.000 N 
ATOM     12  H   UNL     1       1.035  15.202  20.814  0.00  0.00    +0.000 HD
BRANCH  11  13
ATOM     13  C   UNL     1      -0.694  15.407  19.629  0.00  0.00    +0.000 C 
BRANCH  13  14
ATOM     14  C   UNL     1      -0.065  16.415  18.707  0.00  0.00    +0.000 A 
ATOM     15  C   UNL     1      -0.791  17.343  17.948  0.00  0.00    +0.000 A 
ATOM     16  C   UNL     1      -0.133  18.202  17.067  0.00  0.00    +0.000 A 
ATOM     17  C   UNL     1       1.254  18.150  16.945  0.00  0.00    +0.000 A 
ATOM     18  C   UNL     1       1.990  17.262  17.725  0.00  0.00    +0.000 A 
ATOM     19  C   UNL     1       1.334  16.405  18.604  0.00  0.00    +0.000 A 
ENDBRANCH  13  14
ENDBRANCH  11  13
ENDBRANCH   1   9
BRANCH   1  22
ATOM     20  C   UNL     1      -2.117  11.977  22.598  0.00  0.00    +0.000 C 
ATOM     21  O   UNL     1      -1.209  11.306  23.058  0.00  0.00    +0.000 OA
ATOM     22  N   UNL     1      -2.181  12.454  21.275  0.00  0.00    +0.000 N 
BRANCH  22  23
ATOM     23  C   UNL     1      -3.356  13.191  20.888  0.00  0.00    +0.000 A 
ATOM     24  C   UNL     1      -3.458  14.562  21.126  0.00  0.00    +0.000 A 
ATOM     25  C   UNL     1      -4.604  15.270  20.761  0.00  0.00    +0.000 A 
ATOM     26  C   UNL     1      -5.655  14.618  20.122  0.00  0.00    +0.000 A 
ATOM     27  C   UNL     1      -5.569  13.252  19.878  0.00  0.00    +0.000 A 
ATOM     28 CL   UNL     1      -6.851  12.451  19.056  0.00  0.00    +0.000 Cl
ATOM     29  C   UNL     1      -4.440  12.534  20.276  0.00  0.00    +0.000 A 
ENDBRANCH  22  23
BRANCH  20  31
ATOM     30  C   UNL     1      -4.032  12.613  24.324  0.00  0.00    +0.000 C 
ATOM     31  C   UNL     1      -3.135  12.340  23.565  0.00  0.00    +0.000 C 
ENDBRANCH  20  31
ENDBRANCH   1  22
TORSDOF 6
ENDMDL
MODEL 8
REMARK VINA RESULT:      -8.1      3.572      6.594
REMARK  Name = 
REMARK  6 active torsions:
REMARK  status: ('A' for Active; 'I' for Inactive)
REMARK    1  A    between atoms: C_2  and  C_3
REMARK    2  A    between atoms: N_5  and  C_6
REMARK    3  A    between atoms: N_5  and  C_13
REMARK    4  A    between atoms: C_13  and  C_14
REMARK    5  A    between atoms: N_16  and  C_17
REMARK    6  A    between atoms: C_17  and  C_18
REMARK                            x       y       z     vdW  Elec       q    Type
REMARK                         _______ _______ _______ _____ _____    ______ ____
ROOT
ATOM      1  C   UNL     1       5.990   5.510  17.896  0.00  0.00    +0.000 C 
ATOM      2  C   UNL     1       5.997   6.652  16.809  0.00  0.00    +0.000 C 
ATOM      3  C   UNL     1       5.538   6.320  15.386  0.00  0.00    +0.000 C 
ATOM      4  C   UNL     1       5.937   4.940  14.907  0.00  0.00    +0.000 C 
ATOM      5  F   UNL     1       7.226   5.030  14.465  0.00  0.00    +0.000 F 
ATOM      6  F   UNL     1       5.195   4.597  13.825  0.00  0.00    +0.000 F 
ATOM      7  C   UNL     1       5.886   3.822  15.929  0.00  0.00    +0.000 C 
ATOM      8  C   UNL     1       6.547   4.222  17.233  0.00  0.00    +0.000 C 
ENDROOT
BRANCH   1   9
ATOM      9  C   UNL     1       7.101   5.915  18.972  0.00  0.00    +0.000 C 
ATOM     10  O   UNL     1       7.315   5.231  19.985  0.00  0.00    +0.000 OA
ATOM     11  N   UNL     1       7.867   7.024  18.832  0.00  0.00    +0.000 N 
ATOM     12  H   UNL     1       8.525   7.175  19.585  0.00  0.00    +0.000 HD
BRANCH  11  13
ATOM     13  C   UNL     1       7.842   7.984  17.764  0.00  0.00    +0.000 C 
BRANCH  13  14
ATOM     14  C   UNL     1       8.353   9.345  18.148  0.00  0.00    +0.000 A 
ATOM     15  C   UNL     1       8.123  10.507  17.399  0.00  0.00    +0.000 A 
ATOM     16  C   UNL     1       8.687  11.722  17.792  0.00  0.00    +0.000 A 
ATOM     17  C   UNL     1       9.475  11.788  18.940  0.00  0.00    +0.000 A 
ATOM     18  C   UNL     1       9.674  10.649  19.716  0.00  0.00    +0.000 A 
ATOM     19  C   UNL     1       9.112   9.437  19.324  0.00  0.00    +0.000 A 
ENDBRANCH  13  14
ENDBRANCH  11  13
ENDBRANCH   1   9
BRANCH   1  22
ATOM     20  C   UNL     1       4.316   4.084  19.251  0.00  0.00    +0.000 C 
ATOM     21  O   UNL     1       5.004   3.077  19.252  0.00  0.00    +0.000 OA
ATOM     22  N   UNL     1       4.610   5.264  18.542  0.00  0.00    +0.000 N 
BRANCH  22  23
ATOM     23  C   UNL     1       3.657   6.341  18.616  0.00  0.00    +0.000 A 
ATOM     24  C   UNL     1       3.348   7.109  17.493  0.00  0.00    +0.000 A 
ATOM     25  C   UNL     1       2.433   8.159  17.573  0.00  0.00    +0.000 A 
ATOM     26  C   UNL     1       1.788   8.436  18.775  0.00  0.00    +0.000 A 
ATOM     27  C   UNL     1       2.084   7.679  19.903  0.00  0.00    +0.000 A 
ATOM     28 CL   UNL     1       1.262   7.996  21.381  0.00  0.00    +0.000 Cl
ATOM     29  C   UNL     1       3.028   6.653  19.836  0.00  0.00    +0.000 A 
ENDBRANCH  22  23
BRANCH  20  31
ATOM     30  C   UNL     1       2.238   3.901  20.895  0.00  0.00    +0.000 C 
ATOM     31  C   UNL     1       3.166   4.017  20.131  0.00  0.00    +0.000 C 
ENDBRANCH  20  31
ENDBRANCH   1  22
TORSDOF 6
ENDMDL
MODEL 9
REMARK VINA RESULT:      -8.0      6.408      8.587
REMARK  Name = 
REMARK  6 active torsions:
REMARK  status: ('A' for Active; 'I' for Inactive)
REMARK    1  A    between atoms: C_2  and  C_3
REMARK    2  A    between atoms: N_5  and  C_6
REMARK    3  A    between atoms: N_5  and  C_13
REMARK    4  A    between atoms: C_13  and  C_14
REMARK    5  A    between atoms: N_16  and  C_17
REMARK    6  A    between atoms: C_17  and  C_18
REMARK                            x       y       z     vdW  Elec       q    Type
REMARK                         _______ _______ _______ _____ _____    ______ ____
ROOT
ATOM      1  C   UNL     1      -0.577  11.317  20.016  0.00  0.00    +0.000 C 
ATOM      2  C   UNL     1      -1.436  11.495  21.325  0.00  0.00    +0.000 C 
ATOM      3  C   UNL     1      -0.873  10.983  22.654  0.00  0.00    +0.000 C 
ATOM      4  C   UNL     1      -0.085   9.694  22.544  0.00  0.00    +0.000 C 
ATOM      5  F   UNL     1      -0.992   8.673  22.539  0.00  0.00    +0.000 F 
ATOM      6  F   UNL     1       0.669   9.518  23.657  0.00  0.00    +0.000 F 
ATOM      7  C   UNL     1       0.785   9.531  21.313  0.00  0.00    +0.000 C 
ATOM      8  C   UNL     1       0.039   9.893  20.044  0.00  0.00    +0.000 C 
ENDROOT
BRANCH   1   9
ATOM      9  C   UNL     1      -1.619  11.274  18.804  0.00  0.00    +0.000 C 
ATOM     10  O   UNL     1      -1.389  10.640  17.762  0.00  0.00    +0.000 OA
ATOM     11  N   UNL     1      -2.807  11.924  18.853  0.00  0.00    +0.000 N 
ATOM     12  H   UNL     1      -3.371  11.828  18.019  0.00  0.00    +0.000 HD
BRANCH  11  13
ATOM     13  C   UNL     1      -3.333  12.718  19.928  0.00  0.00    +0.000 C 
BRANCH  13  14
ATOM     14  C   UNL     1      -4.786  12.464  20.226  0.00  0.00    +0.000 A 
ATOM     15  C   UNL     1      -5.390  12.736  21.461  0.00  0.00    +0.000 A 
ATOM     16  C   UNL     1      -6.730  12.411  21.676  0.00  0.00    +0.000 A 
ATOM     17  C   UNL     1      -7.479  11.823  20.657  0.00  0.00    +0.000 A 
ATOM     18  C   UNL     1      -6.901  11.589  19.413  0.00  0.00    +0.000 A 
ATOM     19  C   UNL     1      -5.564  11.912  19.198  0.00  0.00    +0.000 A 
ENDBRANCH  13  14
ENDBRANCH  11  13
ENDBRANCH   1   9
BRANCH   1  22
ATOM     20  C   UNL     1       1.586  12.225  18.934  0.00  0.00    +0.000 C 
ATOM     21  O   UNL     1       1.899  11.170  18.410  0.00  0.00    +0.000 OA
ATOM     22  N   UNL     1       0.505  12.400  19.821  0.00  0.00    +0.000 N 
BRANCH  22  23
ATOM     23  C   UNL     1       0.312  13.709  20.387  0.00  0.00    +0.000 A 
ATOM     24  C   UNL     1       0.868  14.051  21.620  0.00  0.00    +0.000 A 
ATOM     25  C   UNL     1       0.667  15.318  22.170  0.00  0.00    +0.000 A 
ATOM     26  C   UNL     1      -0.070  16.274  21.476  0.00  0.00    +0.000 A 
ATOM     27  C   UNL     1      -0.630  15.949  20.245  0.00  0.00    +0.000 A 
ATOM     28 CL   UNL     1      -1.509  17.139  19.369  0.00  0.00    +0.000 Cl
ATOM     29  C   UNL     1      -0.463  14.670  19.710  0.00  0.00    +0.000 A 
ENDBRANCH  22  23
BRANCH  20  31
ATOM     30  C   UNL     1       3.099  14.257  18.137  0.00  0.00    +0.000 C 
ATOM     31  C   UNL     1       2.381  13.360  18.506  0.00  0.00    +0.000 C 
ENDBRANCH  20  31
ENDBRANCH   1  22
TORSDOF 6
ENDMDL
