MODEL 1
REMARK VINA RESULT:      -8.4      0.000      0.000
REMARK  Name = 
REMARK  4 active torsions:
REMARK  status: ('A' for Active; 'I' for Inactive)
REMARK    1  A    between atoms: C_2  and  C_7
REMARK    2  A    between atoms: N_3  and  C_4
REMARK    3  A    between atoms: C_9  and  C_10
REMARK    4  A    between atoms: C_10  and  C_11
REMARK                            x       y       z     vdW  Elec       q    Type
REMARK                         _______ _______ _______ _____ _____    ______ ____
ROOT
ATOM      1  C   UNL     1       6.204   3.959  13.722  0.00  0.00    +0.000 A 
ATOM      2  C   UNL     1       5.477   3.524  14.845  0.00  0.00    +0.000 A 
ATOM      3  C   UNL     1       5.790   3.982  16.137  0.00  0.00    +0.000 A 
ATOM      4  C   UNL     1       6.856   4.881  16.292  0.00  0.00    +0.000 A 
ATOM      5  C   UNL     1       7.568   5.334  15.181  0.00  0.00    +0.000 A 
ATOM      6  C   UNL     1       7.239   4.874  13.910  0.00  0.00    +0.000 A 
ATOM      7  F   UNL     1       7.947   5.344  12.871  0.00  0.00    +0.000 F 
ENDROOT
BRANCH   1   9
ATOM      8  O   UNL     1       6.670   2.783  11.734  0.00  0.00    +0.000 OA
ATOM      9  C   UNL     1       5.838   3.416  12.381  0.00  0.00    +0.000 C 
ATOM     10  N   UNL     1       4.559   3.678  11.928  0.00  0.00    +0.000 N 
ATOM     11  H   UNL     1       3.938   4.241  12.502  0.00  0.00    +0.000 HD
BRANCH  10  12
ATOM     12  C   UNL     1       4.088   3.272  10.645  0.00  0.00    +0.000 C 
ATOM     13  C   UNL     1       2.659   2.857  10.436  0.00  0.00    +0.000 C 
ATOM     14  C   UNL     1       3.144   4.160   9.877  0.00  0.00    +0.000 C 
ENDBRANCH  10  12
ENDBRANCH   1   9
BRANCH   3  15
ATOM     15  C   UNL     1       4.995   3.535  17.346  0.00  0.00    +0.000 C 
BRANCH  15  16
ATOM     16  C   UNL     1       4.149   4.639  17.969  0.00  0.00    +0.000 A 
ATOM     17  N   UNL     1       4.225   5.816  17.417  0.00  0.00    +0.000 NA
ATOM     18  N   UNL     1       3.458   6.805  17.955  0.00  0.00    +0.000 N 
ATOM     19  C   UNL     1       2.631   6.688  19.038  0.00  0.00    +0.000 A 
ATOM     20  O   UNL     1       1.995   7.636  19.482  0.00  0.00    +0.000 OA
ATOM     21  C   UNL     1       2.544   5.339  19.643  0.00  0.00    +0.000 A 
ATOM     22  C   UNL     1       3.270   4.323  19.151  0.00  0.00    +0.000 A 
ATOM     23  N   UNL     1       3.183   3.051  19.701  0.00  0.00    +0.000 N 
ATOM     24  C   UNL     1       2.601   2.854  21.022  0.00  0.00    +0.000 C 
ATOM     25  C   UNL     1       1.319   3.676  21.105  0.00  0.00    +0.000 C 
ATOM     26  C   UNL     1       1.605   5.155  20.807  0.00  0.00    +0.000 C 
ATOM     27  H   UNL     1       3.519   7.719  17.516  0.00  0.00    +0.000 HD
ATOM     28  H   UNL     1       3.899   2.382  19.445  0.00  0.00    +0.000 HD
ENDBRANCH  15  16
ENDBRANCH   3  15
TORSDOF 4
ENDMDL
MODEL 2
REMARK VINA RESULT:      -8.1      5.322      7.700
REMARK  Name = 
REMARK  4 active torsions:
REMARK  status: ('A' for Active; 'I' for Inactive)
REMARK    1  A    between atoms: C_2  and  C_7
REMARK    2  A    between atoms: N_3  and  C_4
REMARK    3  A    between atoms: C_9  and  C_10
REMARK    4  A    between atoms: C_10  and  C_11
REMARK                            x       y       z     vdW  Elec       q    Type
REMARK                         _______ _______ _______ _____ _____    ______ ____
ROOT
ATOM      1  C   UNL     1       0.726   9.492  18.966  0.00  0.00    +0.000 A 
ATOM      2  C   UNL     1       1.621   8.779  18.148  0.00  0.00    +0.000 A 
ATOM      3  C   UNL     1       2.414   7.741  18.668  0.00  0.00    +0.000 A 
ATOM      4  C   UNL     1       2.305   7.430  20.031  0.00  0.00    +0.000 A 
ATOM      5  C   UNL     1       1.405   8.118  20.845  0.00  0.00    +0.000 A 
ATOM      6  C   UNL     1       0.624   9.137  20.311  0.00  0.00    +0.000 A 
ATOM      7  F   UNL     1      -0.234   9.765  21.131  0.00  0.00    +0.000 F 
ENDROOT
BRANCH   1   9
ATOM      8  O   UNL     1       0.198  11.764  18.641  0.00  0.00    +0.000 OA
ATOM      9  C   UNL     1      -0.070  10.599  18.359  0.00  0.00    +0.000 C 
ATOM     10  N   UNL     1      -1.097  10.237  17.508  0.00  0.00    +0.000 N 
ATOM     11  H   UNL     1      -1.284   9.251  17.352  0.00  0.00    +0.000 HD
BRANCH  10  12
ATOM     12  C   UNL     1      -1.975  11.182  16.900  0.00  0.00    +0.000 C 
ATOM     13  C   UNL     1      -2.866  10.791  15.755  0.00  0.00    +0.000 C 
ATOM     14  C   UNL     1      -3.463  11.062  17.103  0.00  0.00    +0.000 C 
ENDBRANCH  10  12
ENDBRANCH   1   9
BRANCH   3  15
ATOM     15  C   UNL     1       3.362   6.955  17.785  0.00  0.00    +0.000 C 
BRANCH  15  16
ATOM     16  C   UNL     1       3.830   5.642  18.400  0.00  0.00    +0.000 A 
ATOM     17  N   UNL     1       5.065   5.596  18.809  0.00  0.00    +0.000 NA
ATOM     18  N   UNL     1       5.488   4.432  19.378  0.00  0.00    +0.000 N 
ATOM     19  C   UNL     1       4.746   3.295  19.539  0.00  0.00    +0.000 A 
ATOM     20  O   UNL     1       5.210   2.275  20.034  0.00  0.00    +0.000 OA
ATOM     21  C   UNL     1       3.339   3.370  19.083  0.00  0.00    +0.000 A 
ATOM     22  C   UNL     1       2.863   4.493  18.522  0.00  0.00    +0.000 A 
ATOM     23  N   UNL     1       1.541   4.580  18.107  0.00  0.00    +0.000 N 
ATOM     24  C   UNL     1       0.742   3.375  17.928  0.00  0.00    +0.000 C 
ATOM     25  C   UNL     1       0.977   2.464  19.129  0.00  0.00    +0.000 C 
ATOM     26  C   UNL     1       2.472   2.155  19.289  0.00  0.00    +0.000 C 
ATOM     27  H   UNL     1       6.451   4.406  19.700  0.00  0.00    +0.000 HD
ATOM     28  H   UNL     1       1.292   5.351  17.501  0.00  0.00    +0.000 HD
ENDBRANCH  15  16
ENDBRANCH   3  15
TORSDOF 4
ENDMDL
MODEL 3
REMARK VINA RESULT:      -8.1      4.751      7.251
REMARK  Name = 
REMARK  4 active torsions:
REMARK  status: ('A' for Active; 'I' for Inactive)
REMARK    1  A    between atoms: C_2  and  C_7
REMARK    2  A    between atoms: N_3  and  C_4
REMARK    3  A    between atoms: C_9  and  C_10
REMARK    4  A    between atoms: C_10  and  C_11
REMARK                            x       y       z     vdW  Elec       q    Type
REMARK                         _______ _______ _______ _____ _____    ______ ____
ROOT
ATOM      1  C   UNL     1       2.831   6.133  18.480  0.00  0.00    +0.000 A 
ATOM      2  C   UNL     1       2.617   7.397  17.902  0.00  0.00    +0.000 A 
ATOM      3  C   UNL     1       2.013   8.438  18.629  0.00  0.00    +0.000 A 
ATOM      4  C   UNL     1       1.613   8.191  19.951  0.00  0.00    +0.000 A 
ATOM      5  C   UNL     1       1.840   6.947  20.539  0.00  0.00    +0.000 A 
ATOM      6  C   UNL     1       2.446   5.931  19.805  0.00  0.00    +0.000 A 
ATOM      7  F   UNL     1       2.651   4.754  20.417  0.00  0.00    +0.000 F 
ENDROOT
BRANCH   1   9
ATOM      8  O   UNL     1       2.795   4.073  17.339  0.00  0.00    +0.000 OA
ATOM      9  C   UNL     1       3.455   5.063  17.647  0.00  0.00    +0.000 C 
ATOM     10  N   UNL     1       4.773   5.247  17.278  0.00  0.00    +0.000 N 
ATOM     11  H   UNL     1       5.266   6.073  17.604  0.00  0.00    +0.000 HD
BRANCH  10  12
ATOM     12  C   UNL     1       5.516   4.284  16.532  0.00  0.00    +0.000 C 
ATOM     13  C   UNL     1       5.584   4.347  15.033  0.00  0.00    +0.000 C 
ATOM     14  C   UNL     1       6.795   4.690  15.848  0.00  0.00    +0.000 C 
ENDBRANCH  10  12
ENDBRANCH   1   9
BRANCH   3  15
ATOM     15  C   UNL     1       1.803   9.808  18.018  0.00  0.00    +0.000 C 
BRANCH  15  16
ATOM     16  C   UNL     1       0.823  10.683  18.790  0.00  0.00    +0.000 A 
ATOM     17  N   UNL     1       1.310  11.370  19.783  0.00  0.00    +0.000 NA
ATOM     18  N   UNL     1       0.445  12.169  20.468  0.00  0.00    +0.000 N 
ATOM     19  C   UNL     1      -0.895  12.303  20.229  0.00  0.00    +0.000 A 
ATOM     20  O   UNL     1      -1.614  13.021  20.913  0.00  0.00    +0.000 OA
ATOM     21  C   UNL     1      -1.429  11.526  19.087  0.00  0.00    +0.000 A 
ATOM     22  C   UNL     1      -0.623  10.727  18.369  0.00  0.00    +0.000 A 
ATOM     23  N   UNL     1      -1.110  10.008  17.286  0.00  0.00    +0.000 N 
ATOM     24  C   UNL     1      -2.543   9.809  17.114  0.00  0.00    +0.000 C 
ATOM     25  C   UNL     1      -3.243  11.142  17.365  0.00  0.00    +0.000 C 
ATOM     26  C   UNL     1      -2.891  11.684  18.757  0.00  0.00    +0.000 C 
ATOM     27  H   UNL     1       0.833  12.707  21.238  0.00  0.00    +0.000 HD
ATOM     28  H   UNL     1      -0.528   9.265  16.920  0.00  0.00    +0.000 HD
ENDBRANCH  15  16
ENDBRANCH   3  15
TORSDOF 4
ENDMDL
MODEL 4
REMARK VINA RESULT:      -8.0      3.615      7.996
REMARK  Name = 
REMARK  4 active torsions:
REMARK  status: ('A' for Active; 'I' for Inactive)
REMARK    1  A    between atoms: C_2  and  C_7
REMARK    2  A    between atoms: N_3  and  C_4
REMARK    3  A    between atoms: C_9  and  C_10
REMARK    4  A    between atoms: C_10  and  C_11
REMARK                            x       y       z     vdW  Elec       q    Type
REMARK                         _______ _______ _______ _____ _____    ______ ____
ROOT
ATOM      1  C   UNL     1       2.199   5.659  20.103  0.00  0.00    +0.000 A 
ATOM      2  C   UNL     1       3.498   5.259  19.743  0.00  0.00    +0.000 A 
ATOM      3  C   UNL     1       3.845   3.899  19.662  0.00  0.00    +0.000 A 
ATOM      4  C   UNL     1       2.867   2.937  19.958  0.00  0.00    +0.000 A 
ATOM      5  C   UNL     1       1.571   3.325  20.296  0.00  0.00    +0.000 A 
ATOM      6  C   UNL     1       1.245   4.676  20.364  0.00  0.00    +0.000 A 
ATOM      7  F   UNL     1      -0.018   5.001  20.685  0.00  0.00    +0.000 F 
ENDROOT
BRANCH   1   9
ATOM      8  O   UNL     1       2.014   7.825  19.195  0.00  0.00    +0.000 OA
ATOM      9  C   UNL     1       1.901   7.120  20.195  0.00  0.00    +0.000 C 
ATOM     10  N   UNL     1       1.524   7.604  21.432  0.00  0.00    +0.000 N 
ATOM     11  H   UNL     1       1.490   6.967  22.222  0.00  0.00    +0.000 HD
BRANCH  10  12
ATOM     12  C   UNL     1       1.264   8.984  21.683  0.00  0.00    +0.000 C 
ATOM     13  C   UNL     1      -0.045   9.611  21.295  0.00  0.00    +0.000 C 
ATOM     14  C   UNL     1       0.269   9.379  22.743  0.00  0.00    +0.000 C 
ENDBRANCH  10  12
ENDBRANCH   1   9
BRANCH   3  15
ATOM     15  C   UNL     1       5.236   3.463  19.251  0.00  0.00    +0.000 C 
BRANCH  15  16
ATOM     16  C   UNL     1       6.028   4.540  18.520  0.00  0.00    +0.000 A 
ATOM     17  N   UNL     1       6.640   5.419  19.261  0.00  0.00    +0.000 NA
ATOM     18  N   UNL     1       7.366   6.376  18.617  0.00  0.00    +0.000 N 
ATOM     19  C   UNL     1       7.495   6.519  17.263  0.00  0.00    +0.000 A 
ATOM     20  O   UNL     1       8.144   7.427  16.759  0.00  0.00    +0.000 OA
ATOM     21  C   UNL     1       6.805   5.501  16.436  0.00  0.00    +0.000 A 
ATOM     22  C   UNL     1       6.081   4.530  17.015  0.00  0.00    +0.000 A 
ATOM     23  N   UNL     1       5.445   3.562  16.250  0.00  0.00    +0.000 N 
ATOM     24  C   UNL     1       5.235   3.766  14.822  0.00  0.00    +0.000 C 
ATOM     25  C   UNL     1       6.531   4.306  14.223  0.00  0.00    +0.000 C 
ATOM     26  C   UNL     1       6.964   5.592  14.941  0.00  0.00    +0.000 C 
ATOM     27  H   UNL     1       7.846   7.054  19.201  0.00  0.00    +0.000 HD
ATOM     28  H   UNL     1       4.744   2.992  16.707  0.00  0.00    +0.000 HD
ENDBRANCH  15  16
ENDBRANCH   3  15
TORSDOF 4
ENDMDL
MODEL 5
REMARK VINA RESULT:      -8.0      4.432      6.437
REMARK  Name = 
REMARK  4 active torsions:
REMARK  status: ('A' for Active; 'I' for Inactive)
REMARK    1  A    between atoms: C_2  and  C_7
REMARK    2  A    between atoms: N_3  and  C_4
REMARK    3  A    between atoms: C_9  and  C_10
REMARK    4  A    between atoms: C_10  and  C_11
REMARK                            x       y       z     vdW  Elec       q    Type
REMARK                         _______ _______ _______ _____ _____    ______ ____
ROOT
ATOM      1  C   UNL     1       4.282   4.895  18.586  0.00  0.00    +0.000 A 
ATOM      2  C   UNL     1       3.627   5.769  19.473  0.00  0.00    +0.000 A 
ATOM      3  C   UNL     1       2.265   5.610  19.780  0.00  0.00    +0.000 A 
ATOM      4  C   UNL     1       1.558   4.560  19.175  0.00  0.00    +0.000 A 
ATOM      5  C   UNL     1       2.204   3.676  18.311  0.00  0.00    +0.000 A 
ATOM      6  C   UNL     1       3.555   3.846  18.025  0.00  0.00    +0.000 A 
ATOM      7  F   UNL     1       4.135   2.965  17.195  0.00  0.00    +0.000 F 
ENDROOT
BRANCH   1   9
ATOM      8  O   UNL     1       6.543   4.241  18.490  0.00  0.00    +0.000 OA
ATOM      9  C   UNL     1       5.724   5.133  18.282  0.00  0.00    +0.000 C 
ATOM     10  N   UNL     1       6.061   6.379  17.790  0.00  0.00    +0.000 N 
ATOM     11  H   UNL     1       5.335   7.080  17.681  0.00  0.00    +0.000 HD
BRANCH  10  12
ATOM     12  C   UNL     1       7.404   6.768  17.508  0.00  0.00    +0.000 C 
ATOM     13  C   UNL     1       7.814   8.214  17.519  0.00  0.00    +0.000 C 
ATOM     14  C   UNL     1       8.279   7.300  18.613  0.00  0.00    +0.000 C 
ENDBRANCH  10  12
ENDBRANCH   1   9
BRANCH   3  15
ATOM     15  C   UNL     1       1.562   6.535  20.752  0.00  0.00    +0.000 C 
BRANCH  15  16
ATOM     16  C   UNL     1       1.390   7.957  20.234  0.00  0.00    +0.000 A 
ATOM     17  N   UNL     1       1.842   8.202  19.037  0.00  0.00    +0.000 NA
ATOM     18  N   UNL     1       1.677   9.466  18.557  0.00  0.00    +0.000 N 
ATOM     19  C   UNL     1       1.102  10.515  19.222  0.00  0.00    +0.000 A 
ATOM     20  O   UNL     1       1.018  11.633  18.732  0.00  0.00    +0.000 OA
ATOM     21  C   UNL     1       0.579  10.215  20.575  0.00  0.00    +0.000 A 
ATOM     22  C   UNL     1       0.707   8.985  21.098  0.00  0.00    +0.000 A 
ATOM     23  N   UNL     1       0.205   8.689  22.359  0.00  0.00    +0.000 N 
ATOM     24  C   UNL     1      -0.138   9.757  23.288  0.00  0.00    +0.000 C 
ATOM     25  C   UNL     1      -0.919  10.821  22.522  0.00  0.00    +0.000 C 
ATOM     26  C   UNL     1      -0.107  11.328  21.322  0.00  0.00    +0.000 C 
ATOM     27  H   UNL     1       2.026   9.648  17.621  0.00  0.00    +0.000 HD
ATOM     28  H   UNL     1       0.514   7.828  22.793  0.00  0.00    +0.000 HD
ENDBRANCH  15  16
ENDBRANCH   3  15
TORSDOF 4
ENDMDL
MODEL 6
REMARK VINA RESULT:      -8.0      4.718      8.269
REMARK  Name = 
REMARK  4 active torsions:
REMARK  status: ('A' for Active; 'I' for Inactive)
REMARK    1  A    between atoms: C_2  and  C_7
REMARK    2  A    between atoms: N_3  and  C_4
REMARK    3  A    between atoms: C_9  and  C_10
REMARK    4  A    between atoms: C_10  and  C_11
REMARK                            x       y       z     vdW  Elec       q    Type
REMARK                         _______ _______ _______ _____ _____    ______ ____
ROOT
ATOM      1  C   UNL     1       0.202   9.874  18.915  0.00  0.00    +0.000 A 
ATOM      2  C   UNL     1       1.221   9.343  18.105  0.00  0.00    +0.000 A 
ATOM      3  C   UNL     1       2.164   8.436  18.620  0.00  0.00    +0.000 A 
ATOM      4  C   UNL     1       2.077   8.073  19.972  0.00  0.00    +0.000 A 
ATOM      5  C   UNL     1       1.058   8.578  20.778  0.00  0.00    +0.000 A 
ATOM      6  C   UNL     1       0.130   9.470  20.247  0.00  0.00    +0.000 A 
ATOM      7  F   UNL     1      -0.839   9.923  21.060  0.00  0.00    +0.000 F 
ENDROOT
BRANCH   1   9
ATOM      8  O   UNL     1      -0.808  11.996  18.757  0.00  0.00    +0.000 OA
ATOM      9  C   UNL     1      -0.753  10.852  18.314  0.00  0.00    +0.000 C 
ATOM     10  N   UNL     1      -1.547  10.394  17.280  0.00  0.00    +0.000 N 
ATOM     11  H   UNL     1      -1.473   9.423  16.993  0.00  0.00    +0.000 HD
BRANCH  10  12
ATOM     12  C   UNL     1      -2.543  11.197  16.648  0.00  0.00    +0.000 C 
ATOM     13  C   UNL     1      -3.075  10.847  15.288  0.00  0.00    +0.000 C 
ATOM     14  C   UNL     1      -3.945  10.670  16.496  0.00  0.00    +0.000 C 
ENDBRANCH  10  12
ENDBRANCH   1   9
BRANCH   3  15
ATOM     15  C   UNL     1       3.249   7.844  17.744  0.00  0.00    +0.000 C 
BRANCH  15  16
ATOM     16  C   UNL     1       3.210   6.322  17.661  0.00  0.00    +0.000 A 
ATOM     17  N   UNL     1       2.146   5.739  18.132  0.00  0.00    +0.000 NA
ATOM     18  N   UNL     1       2.093   4.379  18.045  0.00  0.00    +0.000 N 
ATOM     19  C   UNL     1       3.063   3.564  17.531  0.00  0.00    +0.000 A 
ATOM     20  O   UNL     1       2.954   2.345  17.517  0.00  0.00    +0.000 OA
ATOM     21  C   UNL     1       4.260   4.246  16.985  0.00  0.00    +0.000 A 
ATOM     22  C   UNL     1       4.364   5.584  17.035  0.00  0.00    +0.000 A 
ATOM     23  N   UNL     1       5.473   6.234  16.511  0.00  0.00    +0.000 N 
ATOM     24  C   UNL     1       6.697   5.496  16.227  0.00  0.00    +0.000 C 
ATOM     25  C   UNL     1       6.319   4.201  15.516  0.00  0.00    +0.000 C 
ATOM     26  C   UNL     1       5.330   3.388  16.363  0.00  0.00    +0.000 C 
ATOM     27  H   UNL     1       1.258   3.931  18.410  0.00  0.00    +0.000 HD
ATOM     28  H   UNL     1       5.608   7.204  16.765  0.00  0.00    +0.000 HD
ENDBRANCH  15  16
ENDBRANCH   3  15
TORSDOF 4
ENDMDL
MODEL 7
REMARK VINA RESULT:      -7.9      5.436      8.180
REMARK  Name = 
REMARK  4 active torsions:
REMARK  status: ('A' for Active; 'I' for Inactive)
REMARK    1  A    between atoms: C_2  and  C_7
REMARK    2  A    between atoms: N_3  and  C_4
REMARK    3  A    between atoms: C_9  and  C_10
REMARK    4  A    between atoms: C_10  and  C_11
REMARK                            x       y       z     vdW  Elec       q    Type
REMARK                         _______ _______ _______ _____ _____    ______ ____
ROOT
ATOM      1  C   UNL     1       2.221   7.002  19.056  0.00  0.00    +0.000 A 
ATOM      2  C   UNL     1       1.974   8.262  18.483  0.00  0.00    +0.000 A 
ATOM      3  C   UNL     1       1.354   9.288  19.217  0.00  0.00    +0.000 A 
ATOM      4  C   UNL     1       0.973   9.030  20.541  0.00  0.00    +0.000 A 
ATOM      5  C   UNL     1       1.232   7.790  21.125  0.00  0.00    +0.000 A 
ATOM      6  C   UNL     1       1.854   6.790  20.384  0.00  0.00    +0.000 A 
ATOM      7  F   UNL     1       2.091   5.616  20.992  0.00  0.00    +0.000 F 
ENDROOT
BRANCH   1   9
ATOM      8  O   UNL     1       3.909   6.196  17.624  0.00  0.00    +0.000 OA
ATOM      9  C   UNL     1       2.861   5.947  18.215  0.00  0.00    +0.000 C 
ATOM     10  N   UNL     1       2.211   4.730  18.137  0.00  0.00    +0.000 N 
ATOM     11  H   UNL     1       1.328   4.611  18.623  0.00  0.00    +0.000 HD
BRANCH  10  12
ATOM     12  C   UNL     1       2.674   3.650  17.329  0.00  0.00    +0.000 C 
ATOM     13  C   UNL     1       3.793   2.759  17.789  0.00  0.00    +0.000 C 
ATOM     14  C   UNL     1       2.391   2.229  17.743  0.00  0.00    +0.000 C 
ENDBRANCH  10  12
ENDBRANCH   1   9
BRANCH   3  15
ATOM     15  C   UNL     1       1.108  10.654  18.610  0.00  0.00    +0.000 C 
BRANCH  15  16
ATOM     16  C   UNL     1      -0.220  11.280  19.021  0.00  0.00    +0.000 A 
ATOM     17  N   UNL     1      -0.207  12.031  20.084  0.00  0.00    +0.000 NA
ATOM     18  N   UNL     1      -1.385  12.610  20.450  0.00  0.00    +0.000 N 
ATOM     19  C   UNL     1      -2.590  12.459  19.820  0.00  0.00    +0.000 A 
ATOM     20  O   UNL     1      -3.614  12.991  20.229  0.00  0.00    +0.000 OA
ATOM     21  C   UNL     1      -2.583  11.615  18.603  0.00  0.00    +0.000 A 
ATOM     22  C   UNL     1      -1.450  11.024  18.190  0.00  0.00    +0.000 A 
ATOM     23  N   UNL     1      -1.429  10.244  17.041  0.00  0.00    +0.000 N 
ATOM     24  C   UNL     1      -2.670   9.747  16.461  0.00  0.00    +0.000 C 
ATOM     25  C   UNL     1      -3.677  10.893  16.439  0.00  0.00    +0.000 C 
ATOM     26  C   UNL     1      -3.878  11.464  17.850  0.00  0.00    +0.000 C 
ATOM     27  H   UNL     1      -1.366  13.199  21.277  0.00  0.00    +0.000 HD
ATOM     28  H   UNL     1      -0.621   9.651  16.895  0.00  0.00    +0.000 HD
ENDBRANCH  15  16
ENDBRANCH   3  15
TORSDOF 4
ENDMDL
MODEL 8
REMARK VINA RESULT:      -7.9      3.736      7.927
REMARK  Name = 
REMARK  4 active torsions:
REMARK  status: ('A' for Active; 'I' for Inactive)
REMARK    1  A    between atoms: C_2  and  C_7
REMARK    2  A    between atoms: N_3  and  C_4
REMARK    3  A    between atoms: C_9  and  C_10
REMARK    4  A    between atoms: C_10  and  C_11
REMARK                            x       y       z     vdW  Elec       q    Type
REMARK                         _______ _______ _______ _____ _____    ______ ____
ROOT
ATOM      1  C   UNL     1       2.026   5.516  20.002  0.00  0.00    +0.000 A 
ATOM      2  C   UNL     1       3.228   4.974  19.513  0.00  0.00    +0.000 A 
ATOM      3  C   UNL     1       3.410   3.584  19.405  0.00  0.00    +0.000 A 
ATOM      4  C   UNL     1       2.366   2.737  19.804  0.00  0.00    +0.000 A 
ATOM      5  C   UNL     1       1.163   3.266  20.271  0.00  0.00    +0.000 A 
ATOM      6  C   UNL     1       1.000   4.645  20.365  0.00  0.00    +0.000 A 
ATOM      7  F   UNL     1      -0.179   5.107  20.811  0.00  0.00    +0.000 F 
ENDROOT
BRANCH   1   9
ATOM      8  O   UNL     1       2.252   7.710  19.176  0.00  0.00    +0.000 OA
ATOM      9  C   UNL     1       1.905   7.000  20.117  0.00  0.00    +0.000 C 
ATOM     10  N   UNL     1       1.415   7.497  21.308  0.00  0.00    +0.000 N 
ATOM     11  H   UNL     1       1.185   6.850  22.056  0.00  0.00    +0.000 HD
BRANCH  10  12
ATOM     12  C   UNL     1       1.297   8.892  21.581  0.00  0.00    +0.000 C 
ATOM     13  C   UNL     1       0.032   9.641  21.271  0.00  0.00    +0.000 C 
ATOM     14  C   UNL     1       0.403   9.365  22.697  0.00  0.00    +0.000 C 
ENDBRANCH  10  12
ENDBRANCH   1   9
BRANCH   3  15
ATOM     15  C   UNL     1       4.694   2.998  18.856  0.00  0.00    +0.000 C 
BRANCH  15  16
ATOM     16  C   UNL     1       5.272   3.773  17.678  0.00  0.00    +0.000 A 
ATOM     17  N   UNL     1       4.812   3.471  16.498  0.00  0.00    +0.000 NA
ATOM     18  N   UNL     1       5.308   4.172  15.440  0.00  0.00    +0.000 N 
ATOM     19  C   UNL     1       6.264   5.149  15.494  0.00  0.00    +0.000 A 
ATOM     20  O   UNL     1       6.681   5.713  14.490  0.00  0.00    +0.000 OA
ATOM     21  C   UNL     1       6.764   5.491  16.846  0.00  0.00    +0.000 A 
ATOM     22  C   UNL     1       6.306   4.840  17.927  0.00  0.00    +0.000 A 
ATOM     23  N   UNL     1       6.756   5.164  19.200  0.00  0.00    +0.000 N 
ATOM     24  C   UNL     1       7.974   5.943  19.378  0.00  0.00    +0.000 C 
ATOM     25  C   UNL     1       7.943   7.109  18.394  0.00  0.00    +0.000 C 
ATOM     26  C   UNL     1       7.780   6.597  16.956  0.00  0.00    +0.000 C 
ATOM     27  H   UNL     1       4.941   3.935  14.523  0.00  0.00    +0.000 HD
ATOM     28  H   UNL     1       6.553   4.511  19.946  0.00  0.00    +0.000 HD
ENDBRANCH  15  16
ENDBRANCH   3  15
TORSDOF 4
ENDMDL
MODEL 9
REMARK VINA RESULT:      -7.9      3.589      5.954
REMARK  Name = 
REMARK  4 active torsions:
REMARK  status: ('A' for Active; 'I' for Inactive)
REMARK    1  A    between atoms: C_2  and  C_7
REMARK    2  A    between atoms: N_3  and  C_4
REMARK    3  A    between atoms: C_9  and  C_10
REMARK    4  A    between atoms: C_10  and  C_11
REMARK                            x       y       z     vdW  Elec       q    Type
REMARK                         _______ _______ _______ _____ _____    ______ ____
ROOT
ATOM      1  C   UNL     1       3.515   4.060  18.701  0.00  0.00    +0.000 A 
ATOM      2  C   UNL     1       3.241   5.145  19.552  0.00  0.00    +0.000 A 
ATOM      3  C   UNL     1       1.992   5.279  20.184  0.00  0.00    +0.000 A 
ATOM      4  C   UNL     1       1.010   4.307  19.942  0.00  0.00    +0.000 A 
ATOM      5  C   UNL     1       1.280   3.216  19.117  0.00  0.00    +0.000 A 
ATOM      6  C   UNL     1       2.525   3.098  18.506  0.00  0.00    +0.000 A 
ATOM      7  F   UNL     1       2.741   2.026  17.727  0.00  0.00    +0.000 F 
ENDROOT
BRANCH   1   9
ATOM      8  O   UNL     1       5.869   3.987  18.732  0.00  0.00    +0.000 OA
ATOM      9  C   UNL     1       4.852   3.989  18.042  0.00  0.00    +0.000 C 
ATOM     10  N   UNL     1       4.867   3.946  16.661  0.00  0.00    +0.000 N 
ATOM     11  H   UNL     1       3.987   3.990  16.157  0.00  0.00    +0.000 HD
BRANCH  10  12
ATOM     12  C   UNL     1       6.069   3.934  15.894  0.00  0.00    +0.000 C 
ATOM     13  C   UNL     1       6.034   3.890  14.393  0.00  0.00    +0.000 C 
ATOM     14  C   UNL     1       6.459   5.147  15.091  0.00  0.00    +0.000 C 
ENDBRANCH  10  12
ENDBRANCH   1   9
BRANCH   3  15
ATOM     15  C   UNL     1       1.701   6.434  21.120  0.00  0.00    +0.000 C 
BRANCH  15  16
ATOM     16  C   UNL     1       1.505   7.768  20.409  0.00  0.00    +0.000 A 
ATOM     17  N   UNL     1       1.990   7.865  19.205  0.00  0.00    +0.000 NA
ATOM     18  N   UNL     1       1.804   9.048  18.554  0.00  0.00    +0.000 N 
ATOM     19  C   UNL     1       1.175  10.155  19.053  0.00  0.00    +0.000 A 
ATOM     20  O   UNL     1       1.074  11.195  18.414  0.00  0.00    +0.000 OA
ATOM     21  C   UNL     1       0.615  10.021  20.418  0.00  0.00    +0.000 A 
ATOM     22  C   UNL     1       0.761   8.877  21.105  0.00  0.00    +0.000 A 
ATOM     23  N   UNL     1       0.225   8.736  22.379  0.00  0.00    +0.000 N 
ATOM     24  C   UNL     1      -0.183   9.906  23.144  0.00  0.00    +0.000 C 
ATOM     25  C   UNL     1      -0.968  10.831  22.218  0.00  0.00    +0.000 C 
ATOM     26  C   UNL     1      -0.130  11.200  20.986  0.00  0.00    +0.000 C 
ATOM     27  H   UNL     1       2.180   9.115  17.613  0.00  0.00    +0.000 HD
ATOM     28  H   UNL     1       0.544   7.952  22.934  0.00  0.00    +0.000 HD
ENDBRANCH  15  16
ENDBRANCH   3  15
TORSDOF 4
ENDMDL
