MODEL 1
REMARK VINA RESULT:      -7.7      0.000      0.000
REMARK  Name = 
REMARK  11 active torsions:
REMARK  status: ('A' for Active; 'I' for Inactive)
REMARK    1  A    between atoms: N_1  and  C_2
REMARK    2  A    between atoms: C_3  and  O_4
REMARK    3  A    between atoms: O_4  and  C_5
REMARK    4  A    between atoms: C_6  and  O_7
REMARK    5  A    between atoms: C_8  and  O_9
REMARK    6  A    between atoms: C_10  and  O_11
REMARK    7  A    between atoms: C_12  and  O_13
REMARK    8  A    between atoms: C_14  and  O_15
REMARK    9  A    between atoms: C_17  and  O_18
REMARK   10  A    between atoms: C_19  and  O_20
REMARK   11  A    between atoms: C_21  and  O_22
REMARK                            x       y       z     vdW  Elec       q    Type
REMARK                         _______ _______ _______ _____ _____    ______ ____
ROOT
ATOM      1  O   UNL     1       3.951   3.894  18.049  0.00  0.00    +0.000 OA
ENDROOT
BRANCH   1   3
ATOM      2  C   UNL     1       6.429   4.500  18.370  0.00  0.00    +0.000 C 
ATOM      3  C   UNL     1       5.051   4.737  17.660  0.00  0.00    +0.000 C 
ATOM      4  O   UNL     1       4.689   6.121  17.705  0.00  0.00    +0.000 OA
ATOM      5  C   UNL     1       5.649   6.975  17.089  0.00  0.00    +0.000 C 
ATOM      6  C   UNL     1       7.099   6.811  17.588  0.00  0.00    +0.000 C 
ATOM      7  C   UNL     1       7.497   5.326  17.625  0.00  0.00    +0.000 C 
BRANCH   2   8
ATOM      8  N   UNL     1       6.500   4.948  19.784  0.00  0.00    +0.000 NA
ATOM      9  H   UNL     1       5.891   4.377  20.369  0.00  0.00    +0.000 HD
ATOM     10  H   UNL     1       6.126   5.907  19.858  0.00  0.00    +0.000 HD
ENDBRANCH   2   8
BRANCH   5  11
ATOM     11  O   UNL     1       5.648   6.776  15.674  0.00  0.00    +0.000 OA
ATOM     12  H   UNL     1       5.819   7.676  15.322  0.00  0.00    +0.000 HD
ENDBRANCH   5  11
BRANCH   6  13
ATOM     13  O   UNL     1       7.973   7.543  16.705  0.00  0.00    +0.000 OA
ATOM     14  H   UNL     1       8.072   6.998  15.896  0.00  0.00    +0.000 HD
ENDBRANCH   6  13
BRANCH   7  15
ATOM     15  O   UNL     1       7.732   4.834  16.294  0.00  0.00    +0.000 OA
ATOM     16  H   UNL     1       8.342   4.071  16.346  0.00  0.00    +0.000 HD
ENDBRANCH   7  15
ENDBRANCH   1   3
BRANCH   1  17
ATOM     17  C   UNL     1       2.858   4.447  18.784  0.00  0.00    +0.000 C 
ATOM     18  C   UNL     1       1.487   3.865  18.368  0.00  0.00    +0.000 C 
ATOM     19  C   UNL     1       1.383   2.377  18.762  0.00  0.00    +0.000 C 
ATOM     20  C   UNL     1       1.500   2.249  20.283  0.00  0.00    +0.000 C 
ATOM     21  C   UNL     1       2.841   2.790  20.785  0.00  0.00    +0.000 C 
ATOM     22  C   UNL     1       3.127   4.219  20.288  0.00  0.00    +0.000 C 
BRANCH  18  23
ATOM     23  O   UNL     1       1.222   4.074  16.981  0.00  0.00    +0.000 OA
ATOM     24  H   UNL     1       0.355   4.554  16.932  0.00  0.00    +0.000 HD
ENDBRANCH  18  23
BRANCH  19  25
ATOM     25  O   UNL     1       0.126   1.839  18.341  0.00  0.00    +0.000 OA
ATOM     26  H   UNL     1      -0.502   2.589  18.328  0.00  0.00    +0.000 HD
ENDBRANCH  19  25
BRANCH  20  27
ATOM     27  O   UNL     1       0.435   3.014  20.897  0.00  0.00    +0.000 OA
ATOM     28  H   UNL     1       0.530   3.912  20.517  0.00  0.00    +0.000 HD
ENDBRANCH  20  27
BRANCH  21  29
ATOM     29  O   UNL     1       2.799   2.789  22.230  0.00  0.00    +0.000 OA
ATOM     30  H   UNL     1       2.755   1.850  22.502  0.00  0.00    +0.000 HD
ENDBRANCH  21  29
BRANCH  22  31
ATOM     31  O   UNL     1       2.366   5.152  21.082  0.00  0.00    +0.000 OA
ATOM     32  H   UNL     1       2.026   4.676  21.864  0.00  0.00    +0.000 HD
ENDBRANCH  22  31
ENDBRANCH   1  17
TORSDOF 11
ENDMDL
MODEL 2
REMARK VINA RESULT:      -7.6      1.382      1.626
REMARK  Name = 
REMARK  11 active torsions:
REMARK  status: ('A' for Active; 'I' for Inactive)
REMARK    1  A    between atoms: N_1  and  C_2
REMARK    2  A    between atoms: C_3  and  O_4
REMARK    3  A    between atoms: O_4  and  C_5
REMARK    4  A    between atoms: C_6  and  O_7
REMARK    5  A    between atoms: C_8  and  O_9
REMARK    6  A    between atoms: C_10  and  O_11
REMARK    7  A    between atoms: C_12  and  O_13
REMARK    8  A    between atoms: C_14  and  O_15
REMARK    9  A    between atoms: C_17  and  O_18
REMARK   10  A    between atoms: C_19  and  O_20
REMARK   11  A    between atoms: C_21  and  O_22
REMARK                            x       y       z     vdW  Elec       q    Type
REMARK                         _______ _______ _______ _____ _____    ______ ____
ROOT
ATOM      1  O   UNL     1       4.316   3.334  18.341  0.00  0.00    +0.000 OA
ENDROOT
BRANCH   1   3
ATOM      2  C   UNL     1       6.144   5.082  17.877  0.00  0.00    +0.000 C 
ATOM      3  C   UNL     1       5.268   3.870  17.403  0.00  0.00    +0.000 C 
ATOM      4  O   UNL     1       4.654   4.152  16.141  0.00  0.00    +0.000 OA
ATOM      5  C   UNL     1       5.594   4.439  15.109  0.00  0.00    +0.000 C 
ATOM      6  C   UNL     1       6.619   5.544  15.436  0.00  0.00    +0.000 C 
ATOM      7  C   UNL     1       7.244   5.315  16.822  0.00  0.00    +0.000 C 
BRANCH   2   8
ATOM      8  N   UNL     1       5.428   6.377  17.993  0.00  0.00    +0.000 NA
ATOM      9  H   UNL     1       5.497   6.901  17.121  0.00  0.00    +0.000 HD
ATOM     10  H   UNL     1       5.895   6.964  18.701  0.00  0.00    +0.000 HD
ENDBRANCH   2   8
BRANCH   5  11
ATOM     11  O   UNL     1       6.319   3.258  14.762  0.00  0.00    +0.000 OA
ATOM     12  H   UNL     1       5.670   2.541  14.923  0.00  0.00    +0.000 HD
ENDBRANCH   5  11
BRANCH   6  13
ATOM     13  O   UNL     1       7.640   5.537  14.417  0.00  0.00    +0.000 OA
ATOM     14  H   UNL     1       8.385   5.008  14.773  0.00  0.00    +0.000 HD
ENDBRANCH   6  13
BRANCH   7  15
ATOM     15  O   UNL     1       8.189   4.231  16.775  0.00  0.00    +0.000 OA
ATOM     16  H   UNL     1       9.092   4.605  16.733  0.00  0.00    +0.000 HD
ENDBRANCH   7  15
ENDBRANCH   1   3
BRANCH   1  17
ATOM     17  C   UNL     1       3.210   4.132  18.765  0.00  0.00    +0.000 C 
ATOM     18  C   UNL     1       1.851   3.629  18.222  0.00  0.00    +0.000 C 
ATOM     19  C   UNL     1       1.486   2.266  18.844  0.00  0.00    +0.000 C 
ATOM     20  C   UNL     1       1.350   2.424  20.361  0.00  0.00    +0.000 C 
ATOM     21  C   UNL     1       2.659   2.907  20.989  0.00  0.00    +0.000 C 
ATOM     22  C   UNL     1       3.211   4.175  20.309  0.00  0.00    +0.000 C 
BRANCH  18  23
ATOM     23  O   UNL     1       1.834   3.590  16.795  0.00  0.00    +0.000 OA
ATOM     24  H   UNL     1       2.633   4.095  16.492  0.00  0.00    +0.000 HD
ENDBRANCH  18  23
BRANCH  19  25
ATOM     25  O   UNL     1       0.247   1.791  18.309  0.00  0.00    +0.000 OA
ATOM     26  H   UNL     1       0.315   1.886  17.338  0.00  0.00    +0.000 HD
ENDBRANCH  19  25
BRANCH  20  27
ATOM     27  O   UNL     1       0.319   3.402  20.635  0.00  0.00    +0.000 OA
ATOM     28  H   UNL     1       0.585   3.806  21.486  0.00  0.00    +0.000 HD
ENDBRANCH  20  27
BRANCH  21  29
ATOM     29  O   UNL     1       2.397   3.192  22.382  0.00  0.00    +0.000 OA
ATOM     30  H   UNL     1       2.774   2.445  22.889  0.00  0.00    +0.000 HD
ENDBRANCH  21  29
BRANCH  22  31
ATOM     31  O   UNL     1       2.473   5.319  20.781  0.00  0.00    +0.000 OA
ATOM     32  H   UNL     1       1.751   4.997  21.355  0.00  0.00    +0.000 HD
ENDBRANCH  22  31
ENDBRANCH   1  17
TORSDOF 11
ENDMDL
MODEL 3
REMARK VINA RESULT:      -7.1      1.909      6.220
REMARK  Name = 
REMARK  11 active torsions:
REMARK  status: ('A' for Active; 'I' for Inactive)
REMARK    1  A    between atoms: N_1  and  C_2
REMARK    2  A    between atoms: C_3  and  O_4
REMARK    3  A    between atoms: O_4  and  C_5
REMARK    4  A    between atoms: C_6  and  O_7
REMARK    5  A    between atoms: C_8  and  O_9
REMARK    6  A    between atoms: C_10  and  O_11
REMARK    7  A    between atoms: C_12  and  O_13
REMARK    8  A    between atoms: C_14  and  O_15
REMARK    9  A    between atoms: C_17  and  O_18
REMARK   10  A    between atoms: C_19  and  O_20
REMARK   11  A    between atoms: C_21  and  O_22
REMARK                            x       y       z     vdW  Elec       q    Type
REMARK                         _______ _______ _______ _____ _____    ______ ____
ROOT
ATOM      1  O   UNL     1       3.724   4.320  17.235  0.00  0.00    +0.000 OA
ENDROOT
BRANCH   1   3
ATOM      2  C   UNL     1       2.910   2.332  18.649  0.00  0.00    +0.000 C 
ATOM      3  C   UNL     1       3.103   3.877  18.457  0.00  0.00    +0.000 C 
ATOM      4  O   UNL     1       1.878   4.575  18.702  0.00  0.00    +0.000 OA
ATOM      5  C   UNL     1       1.362   4.361  20.013  0.00  0.00    +0.000 C 
ATOM      6  C   UNL     1       1.199   2.885  20.428  0.00  0.00    +0.000 C 
ATOM      7  C   UNL     1       2.473   2.085  20.107  0.00  0.00    +0.000 C 
BRANCH   2   8
ATOM      8  N   UNL     1       1.852   1.715  17.810  0.00  0.00    +0.000 NA
ATOM      9  H   UNL     1       1.818   2.164  16.895  0.00  0.00    +0.000 HD
ATOM     10  H   UNL     1       0.930   1.895  18.236  0.00  0.00    +0.000 HD
ENDBRANCH   2   8
BRANCH   5  11
ATOM     11  O   UNL     1       2.196   4.999  20.982  0.00  0.00    +0.000 OA
ATOM     12  H   UNL     1       2.163   4.384  21.745  0.00  0.00    +0.000 HD
ENDBRANCH   5  11
BRANCH   6  13
ATOM     13  O   UNL     1       0.918   2.835  21.842  0.00  0.00    +0.000 OA
ATOM     14  H   UNL     1       0.695   3.750  22.114  0.00  0.00    +0.000 HD
ENDBRANCH   6  13
BRANCH   7  15
ATOM     15  O   UNL     1       3.515   2.400  21.047  0.00  0.00    +0.000 OA
ATOM     16  H   UNL     1       4.376   2.158  20.651  0.00  0.00    +0.000 HD
ENDBRANCH   7  15
ENDBRANCH   1   3
BRANCH   1  17
ATOM     17  C   UNL     1       4.379   5.588  17.192  0.00  0.00    +0.000 C 
ATOM     18  C   UNL     1       5.196   5.897  18.469  0.00  0.00    +0.000 C 
ATOM     19  C   UNL     1       6.405   4.945  18.587  0.00  0.00    +0.000 C 
ATOM     20  C   UNL     1       7.328   5.152  17.383  0.00  0.00    +0.000 C 
ATOM     21  C   UNL     1       6.603   4.853  16.069  0.00  0.00    +0.000 C 
ATOM     22  C   UNL     1       5.276   5.623  15.935  0.00  0.00    +0.000 C 
BRANCH  18  23
ATOM     23  O   UNL     1       4.378   5.874  19.638  0.00  0.00    +0.000 OA
ATOM     24  H   UNL     1       4.748   5.164  20.224  0.00  0.00    +0.000 HD
ENDBRANCH  18  23
BRANCH  19  25
ATOM     25  O   UNL     1       7.133   5.214  19.788  0.00  0.00    +0.000 OA
ATOM     26  H   UNL     1       6.584   4.872  20.522  0.00  0.00    +0.000 HD
ENDBRANCH  19  25
BRANCH  20  27
ATOM     27  O   UNL     1       7.766   6.532  17.364  0.00  0.00    +0.000 OA
ATOM     28  H   UNL     1       8.552   6.531  16.781  0.00  0.00    +0.000 HD
ENDBRANCH  20  27
BRANCH  21  29
ATOM     29  O   UNL     1       7.484   5.234  14.987  0.00  0.00    +0.000 OA
ATOM     30  H   UNL     1       8.050   4.456  14.808  0.00  0.00    +0.000 HD
ENDBRANCH  21  29
BRANCH  22  31
ATOM     31  O   UNL     1       5.560   6.985  15.557  0.00  0.00    +0.000 OA
ATOM     32  H   UNL     1       6.528   7.112  15.593  0.00  0.00    +0.000 HD
ENDBRANCH  22  31
ENDBRANCH   1  17
TORSDOF 11
ENDMDL
MODEL 4
REMARK VINA RESULT:      -7.0      1.873      6.232
REMARK  Name = 
REMARK  11 active torsions:
REMARK  status: ('A' for Active; 'I' for Inactive)
REMARK    1  A    between atoms: N_1  and  C_2
REMARK    2  A    between atoms: C_3  and  O_4
REMARK    3  A    between atoms: O_4  and  C_5
REMARK    4  A    between atoms: C_6  and  O_7
REMARK    5  A    between atoms: C_8  and  O_9
REMARK    6  A    between atoms: C_10  and  O_11
REMARK    7  A    between atoms: C_12  and  O_13
REMARK    8  A    between atoms: C_14  and  O_15
REMARK    9  A    between atoms: C_17  and  O_18
REMARK   10  A    between atoms: C_19  and  O_20
REMARK   11  A    between atoms: C_21  and  O_22
REMARK                            x       y       z     vdW  Elec       q    Type
REMARK                         _______ _______ _______ _____ _____    ______ ____
ROOT
ATOM      1  O   UNL     1       4.923   4.564  19.656  0.00  0.00    +0.000 OA
ENDROOT
BRANCH   1   3
ATOM      2  C   UNL     1       2.354   4.683  19.644  0.00  0.00    +0.000 C 
ATOM      3  C   UNL     1       3.685   3.958  19.239  0.00  0.00    +0.000 C 
ATOM      4  O   UNL     1       3.636   2.573  19.595  0.00  0.00    +0.000 OA
ATOM      5  C   UNL     1       2.556   1.872  18.984  0.00  0.00    +0.000 C 
ATOM      6  C   UNL     1       1.161   2.500  19.185  0.00  0.00    +0.000 C 
ATOM      7  C   UNL     1       1.194   4.008  18.885  0.00  0.00    +0.000 C 
BRANCH   2   8
ATOM      8  N   UNL     1       1.993   4.589  21.081  0.00  0.00    +0.000 NA
ATOM      9  H   UNL     1       2.542   5.249  21.630  0.00  0.00    +0.000 HD
ATOM     10  H   UNL     1       2.251   3.656  21.439  0.00  0.00    +0.000 HD
ENDBRANCH   2   8
BRANCH   5  11
ATOM     11  O   UNL     1       2.781   1.749  17.578  0.00  0.00    +0.000 OA
ATOM     12  H   UNL     1       3.551   1.144  17.528  0.00  0.00    +0.000 HD
ENDBRANCH   5  11
BRANCH   6  13
ATOM     13  O   UNL     1       0.228   1.834  18.309  0.00  0.00    +0.000 OA
ATOM     14  H   UNL     1       0.756   1.224  17.752  0.00  0.00    +0.000 HD
ENDBRANCH   6  13
BRANCH   7  15
ATOM     15  O   UNL     1       1.268   4.238  17.467  0.00  0.00    +0.000 OA
ATOM     16  H   UNL     1       0.733   5.028  17.250  0.00  0.00    +0.000 HD
ENDBRANCH   7  15
ENDBRANCH   1   3
BRANCH   1  17
ATOM     17  C   UNL     1       5.496   5.616  18.879  0.00  0.00    +0.000 C 
ATOM     18  C   UNL     1       7.037   5.528  18.776  0.00  0.00    +0.000 C 
ATOM     19  C   UNL     1       7.460   4.293  17.955  0.00  0.00    +0.000 C 
ATOM     20  C   UNL     1       6.905   4.418  16.533  0.00  0.00    +0.000 C 
ATOM     21  C   UNL     1       5.376   4.496  16.538  0.00  0.00    +0.000 C 
ATOM     22  C   UNL     1       4.842   5.591  17.480  0.00  0.00    +0.000 C 
BRANCH  18  23
ATOM     23  O   UNL     1       7.656   5.557  20.062  0.00  0.00    +0.000 OA
ATOM     24  H   UNL     1       7.845   4.612  20.301  0.00  0.00    +0.000 HD
ENDBRANCH  18  23
BRANCH  19  25
ATOM     25  O   UNL     1       8.886   4.200  17.895  0.00  0.00    +0.000 OA
ATOM     26  H   UNL     1       9.092   3.253  17.765  0.00  0.00    +0.000 HD
ENDBRANCH  19  25
BRANCH  20  27
ATOM     27  O   UNL     1       7.426   5.630  15.936  0.00  0.00    +0.000 OA
ATOM     28  H   UNL     1       7.779   6.142  16.692  0.00  0.00    +0.000 HD
ENDBRANCH  20  27
BRANCH  21  29
ATOM     29  O   UNL     1       4.949   4.783  15.187  0.00  0.00    +0.000 OA
ATOM     30  H   UNL     1       5.728   4.627  14.615  0.00  0.00    +0.000 HD
ENDBRANCH  21  29
BRANCH  22  31
ATOM     31  O   UNL     1       4.981   6.874  16.837  0.00  0.00    +0.000 OA
ATOM     32  H   UNL     1       5.303   7.512  17.503  0.00  0.00    +0.000 HD
ENDBRANCH  22  31
ENDBRANCH   1  17
TORSDOF 11
ENDMDL
MODEL 5
REMARK VINA RESULT:      -6.9      1.292      2.680
REMARK  Name = 
REMARK  11 active torsions:
REMARK  status: ('A' for Active; 'I' for Inactive)
REMARK    1  A    between atoms: N_1  and  C_2
REMARK    2  A    between atoms: C_3  and  O_4
REMARK    3  A    between atoms: O_4  and  C_5
REMARK    4  A    between atoms: C_6  and  O_7
REMARK    5  A    between atoms: C_8  and  O_9
REMARK    6  A    between atoms: C_10  and  O_11
REMARK    7  A    between atoms: C_12  and  O_13
REMARK    8  A    between atoms: C_14  and  O_15
REMARK    9  A    between atoms: C_17  and  O_18
REMARK   10  A    between atoms: C_19  and  O_20
REMARK   11  A    between atoms: C_21  and  O_22
REMARK                            x       y       z     vdW  Elec       q    Type
REMARK                         _______ _______ _______ _____ _____    ______ ____
ROOT
ATOM      1  O   UNL     1       4.604   4.057  20.017  0.00  0.00    +0.000 OA
ENDROOT
BRANCH   1   3
ATOM      2  C   UNL     1       6.979   4.601  19.193  0.00  0.00    +0.000 C 
ATOM      3  C   UNL     1       5.425   4.644  18.989  0.00  0.00    +0.000 C 
ATOM      4  O   UNL     1       4.992   5.970  18.670  0.00  0.00    +0.000 OA
ATOM      5  C   UNL     1       5.600   6.493  17.492  0.00  0.00    +0.000 C 
ATOM      6  C   UNL     1       7.141   6.439  17.463  0.00  0.00    +0.000 C 
ATOM      7  C   UNL     1       7.645   5.045  17.876  0.00  0.00    +0.000 C 
BRANCH   2   8
ATOM      8  N   UNL     1       7.508   5.520  20.233  0.00  0.00    +0.000 NA
ATOM      9  H   UNL     1       6.757   5.832  20.846  0.00  0.00    +0.000 HD
ATOM     10  H   UNL     1       7.866   6.376  19.781  0.00  0.00    +0.000 HD
ENDBRANCH   2   8
BRANCH   5  11
ATOM     11  O   UNL     1       5.116   5.802  16.339  0.00  0.00    +0.000 OA
ATOM     12  H   UNL     1       5.335   6.413  15.604  0.00  0.00    +0.000 HD
ENDBRANCH   5  11
BRANCH   6  13
ATOM     13  O   UNL     1       7.586   6.757  16.128  0.00  0.00    +0.000 OA
ATOM     14  H   UNL     1       8.550   6.927  16.188  0.00  0.00    +0.000 HD
ENDBRANCH   6  13
BRANCH   7  15
ATOM     15  O   UNL     1       7.433   4.098  16.814  0.00  0.00    +0.000 OA
ATOM     16  H   UNL     1       8.099   4.257  16.116  0.00  0.00    +0.000 HD
ENDBRANCH   7  15
ENDBRANCH   1   3
BRANCH   1  17
ATOM     17  C   UNL     1       3.983   2.791  19.792  0.00  0.00    +0.000 C 
ATOM     18  C   UNL     1       2.629   2.638  20.525  0.00  0.00    +0.000 C 
ATOM     19  C   UNL     1       1.574   3.593  19.930  0.00  0.00    +0.000 C 
ATOM     20  C   UNL     1       1.348   3.239  18.457  0.00  0.00    +0.000 C 
ATOM     21  C   UNL     1       2.639   3.378  17.648  0.00  0.00    +0.000 C 
ATOM     22  C   UNL     1       3.815   2.601  18.269  0.00  0.00    +0.000 C 
BRANCH  18  23
ATOM     23  O   UNL     1       2.769   2.805  21.936  0.00  0.00    +0.000 OA
ATOM     24  H   UNL     1       3.440   3.524  22.066  0.00  0.00    +0.000 HD
ENDBRANCH  18  23
BRANCH  19  25
ATOM     25  O   UNL     1       0.337   3.470  20.637  0.00  0.00    +0.000 OA
ATOM     26  H   UNL     1       0.563   3.133  21.527  0.00  0.00    +0.000 HD
ENDBRANCH  19  25
BRANCH  20  27
ATOM     27  O   UNL     1       0.897   1.865  18.373  0.00  0.00    +0.000 OA
ATOM     28  H   UNL     1       0.934   1.540  19.296  0.00  0.00    +0.000 HD
ENDBRANCH  20  27
BRANCH  21  29
ATOM     29  O   UNL     1       2.380   2.865  16.320  0.00  0.00    +0.000 OA
ATOM     30  H   UNL     1       1.949   3.592  15.826  0.00  0.00    +0.000 HD
ENDBRANCH  21  29
BRANCH  22  31
ATOM     31  O   UNL     1       3.675   1.202  17.949  0.00  0.00    +0.000 OA
ATOM     32  H   UNL     1       4.385   0.715  18.409  0.00  0.00    +0.000 HD
ENDBRANCH  22  31
ENDBRANCH   1  17
TORSDOF 11
ENDMDL
MODEL 6
REMARK VINA RESULT:      -6.9      1.181      1.246
REMARK  Name = 
REMARK  11 active torsions:
REMARK  status: ('A' for Active; 'I' for Inactive)
REMARK    1  A    between atoms: N_1  and  C_2
REMARK    2  A    between atoms: C_3  and  O_4
REMARK    3  A    between atoms: O_4  and  C_5
REMARK    4  A    between atoms: C_6  and  O_7
REMARK    5  A    between atoms: C_8  and  O_9
REMARK    6  A    between atoms: C_10  and  O_11
REMARK    7  A    between atoms: C_12  and  O_13
REMARK    8  A    between atoms: C_14  and  O_15
REMARK    9  A    between atoms: C_17  and  O_18
REMARK   10  A    between atoms: C_19  and  O_20
REMARK   11  A    between atoms: C_21  and  O_22
REMARK                            x       y       z     vdW  Elec       q    Type
REMARK                         _______ _______ _______ _____ _____    ______ ____
ROOT
ATOM      1  O   UNL     1       4.223   4.737  19.724  0.00  0.00    +0.000 OA
ENDROOT
BRANCH   1   3
ATOM      2  C   UNL     1       6.659   4.638  18.907  0.00  0.00    +0.000 C 
ATOM      3  C   UNL     1       5.158   5.025  18.667  0.00  0.00    +0.000 C 
ATOM      4  O   UNL     1       5.048   6.382  18.229  0.00  0.00    +0.000 OA
ATOM      5  C   UNL     1       5.761   6.644  17.023  0.00  0.00    +0.000 C 
ATOM      6  C   UNL     1       7.247   6.230  17.031  0.00  0.00    +0.000 C 
ATOM      7  C   UNL     1       7.411   4.799  17.570  0.00  0.00    +0.000 C 
BRANCH   2   8
ATOM      8  N   UNL     1       7.388   5.495  19.875  0.00  0.00    +0.000 NA
ATOM      9  H   UNL     1       8.333   5.682  19.543  0.00  0.00    +0.000 HD
ATOM     10  H   UNL     1       7.508   4.982  20.763  0.00  0.00    +0.000 HD
ENDBRANCH   2   8
BRANCH   5  11
ATOM     11  O   UNL     1       5.129   5.988  15.923  0.00  0.00    +0.000 OA
ATOM     12  H   UNL     1       4.615   5.273  16.355  0.00  0.00    +0.000 HD
ENDBRANCH   5  11
BRANCH   6  13
ATOM     13  O   UNL     1       7.754   6.318  15.683  0.00  0.00    +0.000 OA
ATOM     14  H   UNL     1       8.665   5.955  15.703  0.00  0.00    +0.000 HD
ENDBRANCH   6  13
BRANCH   7  15
ATOM     15  O   UNL     1       6.982   3.838  16.589  0.00  0.00    +0.000 OA
ATOM     16  H   UNL     1       6.803   2.989  17.040  0.00  0.00    +0.000 HD
ENDBRANCH   7  15
ENDBRANCH   1   3
BRANCH   1  17
ATOM     17  C   UNL     1       2.820   4.852  19.482  0.00  0.00    +0.000 C 
ATOM     18  C   UNL     1       2.337   4.004  18.281  0.00  0.00    +0.000 C 
ATOM     19  C   UNL     1       2.460   2.498  18.593  0.00  0.00    +0.000 C 
ATOM     20  C   UNL     1       1.569   2.157  19.791  0.00  0.00    +0.000 C 
ATOM     21  C   UNL     1       1.986   2.944  21.035  0.00  0.00    +0.000 C 
ATOM     22  C   UNL     1       2.074   4.460  20.776  0.00  0.00    +0.000 C 
BRANCH  18  23
ATOM     23  O   UNL     1       3.014   4.360  17.076  0.00  0.00    +0.000 OA
ATOM     24  H   UNL     1       3.896   3.906  17.107  0.00  0.00    +0.000 HD
ENDBRANCH  18  23
BRANCH  19  25
ATOM     25  O   UNL     1       2.045   1.722  17.465  0.00  0.00    +0.000 OA
ATOM     26  H   UNL     1       2.109   2.314  16.688  0.00  0.00    +0.000 HD
ENDBRANCH  19  25
BRANCH  20  27
ATOM     27  O   UNL     1       0.201   2.501  19.465  0.00  0.00    +0.000 OA
ATOM     28  H   UNL     1       0.168   3.476  19.548  0.00  0.00    +0.000 HD
ENDBRANCH  20  27
BRANCH  21  29
ATOM     29  O   UNL     1       0.998   2.695  22.061  0.00  0.00    +0.000 OA
ATOM     30  H   UNL     1       1.212   3.302  22.799  0.00  0.00    +0.000 HD
ENDBRANCH  21  29
BRANCH  22  31
ATOM     31  O   UNL     1       0.743   5.014  20.778  0.00  0.00    +0.000 OA
ATOM     32  H   UNL     1       0.388   4.941  21.685  0.00  0.00    +0.000 HD
ENDBRANCH  22  31
ENDBRANCH   1  17
TORSDOF 11
ENDMDL
MODEL 7
REMARK VINA RESULT:      -6.8      1.951      2.716
REMARK  Name = 
REMARK  11 active torsions:
REMARK  status: ('A' for Active; 'I' for Inactive)
REMARK    1  A    between atoms: N_1  and  C_2
REMARK    2  A    between atoms: C_3  and  O_4
REMARK    3  A    between atoms: O_4  and  C_5
REMARK    4  A    between atoms: C_6  and  O_7
REMARK    5  A    between atoms: C_8  and  O_9
REMARK    6  A    between atoms: C_10  and  O_11
REMARK    7  A    between atoms: C_12  and  O_13
REMARK    8  A    between atoms: C_14  and  O_15
REMARK    9  A    between atoms: C_17  and  O_18
REMARK   10  A    between atoms: C_19  and  O_20
REMARK   11  A    between atoms: C_21  and  O_22
REMARK                            x       y       z     vdW  Elec       q    Type
REMARK                         _______ _______ _______ _____ _____    ______ ____
ROOT
ATOM      1  O   UNL     1       4.155   5.252  18.608  0.00  0.00    +0.000 OA
ENDROOT
BRANCH   1   3
ATOM      2  C   UNL     1       6.307   6.130  17.507  0.00  0.00    +0.000 C 
ATOM      3  C   UNL     1       5.155   5.068  17.588  0.00  0.00    +0.000 C 
ATOM      4  O   UNL     1       4.559   4.868  16.303  0.00  0.00    +0.000 OA
ATOM      5  C   UNL     1       5.486   4.429  15.314  0.00  0.00    +0.000 C 
ATOM      6  C   UNL     1       6.751   5.299  15.160  0.00  0.00    +0.000 C 
ATOM      7  C   UNL     1       7.376   5.599  16.532  0.00  0.00    +0.000 C 
BRANCH   2   8
ATOM      8  N   UNL     1       5.910   7.457  16.972  0.00  0.00    +0.000 NA
ATOM      9  H   UNL     1       5.150   7.357  16.300  0.00  0.00    +0.000 HD
ATOM     10  H   UNL     1       6.696   7.859  16.438  0.00  0.00    +0.000 HD
ENDBRANCH   2   8
BRANCH   5  11
ATOM     11  O   UNL     1       5.906   3.092  15.591  0.00  0.00    +0.000 OA
ATOM     12  H   UNL     1       5.715   2.991  16.548  0.00  0.00    +0.000 HD
ENDBRANCH   5  11
BRANCH   6  13
ATOM     13  O   UNL     1       7.691   4.596  14.322  0.00  0.00    +0.000 OA
ATOM     14  H   UNL     1       7.467   4.827  13.396  0.00  0.00    +0.000 HD
ENDBRANCH   6  13
BRANCH   7  15
ATOM     15  O   UNL     1       8.047   4.434  17.045  0.00  0.00    +0.000 OA
ATOM     16  H   UNL     1       8.505   3.986  16.306  0.00  0.00    +0.000 HD
ENDBRANCH   7  15
ENDBRANCH   1   3
BRANCH   1  17
ATOM     17  C   UNL     1       4.097   4.352  19.715  0.00  0.00    +0.000 C 
ATOM     18  C   UNL     1       2.712   4.323  20.406  0.00  0.00    +0.000 C 
ATOM     19  C   UNL     1       1.649   3.711  19.472  0.00  0.00    +0.000 C 
ATOM     20  C   UNL     1       2.035   2.265  19.147  0.00  0.00    +0.000 C 
ATOM     21  C   UNL     1       3.393   2.198  18.444  0.00  0.00    +0.000 C 
ATOM     22  C   UNL     1       4.497   2.946  19.214  0.00  0.00    +0.000 C 
BRANCH  18  23
ATOM     23  O   UNL     1       2.332   5.615  20.880  0.00  0.00    +0.000 OA
ATOM     24  H   UNL     1       1.626   5.465  21.562  0.00  0.00    +0.000 HD
ENDBRANCH  18  23
BRANCH  19  25
ATOM     25  O   UNL     1       0.366   3.722  20.105  0.00  0.00    +0.000 OA
ATOM     26  H   UNL     1      -0.168   4.390  19.629  0.00  0.00    +0.000 HD
ENDBRANCH  19  25
BRANCH  20  27
ATOM     27  O   UNL     1       2.119   1.518  20.384  0.00  0.00    +0.000 OA
ATOM     28  H   UNL     1       2.623   0.712  20.148  0.00  0.00    +0.000 HD
ENDBRANCH  20  27
BRANCH  21  29
ATOM     29  O   UNL     1       3.757   0.803  18.329  0.00  0.00    +0.000 OA
ATOM     30  H   UNL     1       4.664   0.727  18.689  0.00  0.00    +0.000 HD
ENDBRANCH  21  29
BRANCH  22  31
ATOM     31  O   UNL     1       4.940   2.127  20.314  0.00  0.00    +0.000 OA
ATOM     32  H   UNL     1       5.884   1.917  20.173  0.00  0.00    +0.000 HD
ENDBRANCH  22  31
ENDBRANCH   1  17
TORSDOF 11
ENDMDL
MODEL 8
REMARK VINA RESULT:      -6.8      1.952      6.599
REMARK  Name = 
REMARK  11 active torsions:
REMARK  status: ('A' for Active; 'I' for Inactive)
REMARK    1  A    between atoms: N_1  and  C_2
REMARK    2  A    between atoms: C_3  and  O_4
REMARK    3  A    between atoms: O_4  and  C_5
REMARK    4  A    between atoms: C_6  and  O_7
REMARK    5  A    between atoms: C_8  and  O_9
REMARK    6  A    between atoms: C_10  and  O_11
REMARK    7  A    between atoms: C_12  and  O_13
REMARK    8  A    between atoms: C_14  and  O_15
REMARK    9  A    between atoms: C_17  and  O_18
REMARK   10  A    between atoms: C_19  and  O_20
REMARK   11  A    between atoms: C_21  and  O_22
REMARK                            x       y       z     vdW  Elec       q    Type
REMARK                         _______ _______ _______ _____ _____    ______ ____
ROOT
ATOM      1  O   UNL     1       4.309   3.690  17.236  0.00  0.00    +0.000 OA
ENDROOT
BRANCH   1   3
ATOM      2  C   UNL     1       1.853   3.130  17.751  0.00  0.00    +0.000 C 
ATOM      3  C   UNL     1       3.332   3.334  18.232  0.00  0.00    +0.000 C 
ATOM      4  O   UNL     1       3.382   4.222  19.353  0.00  0.00    +0.000 OA
ATOM      5  C   UNL     1       2.622   3.764  20.468  0.00  0.00    +0.000 C 
ATOM      6  C   UNL     1       1.152   3.408  20.166  0.00  0.00    +0.000 C 
ATOM      7  C   UNL     1       1.054   2.515  18.917  0.00  0.00    +0.000 C 
BRANCH   2   8
ATOM      8  N   UNL     1       1.127   4.373  17.387  0.00  0.00    +0.000 NA
ATOM      9  H   UNL     1       1.769   5.056  16.989  0.00  0.00    +0.000 HD
ATOM     10  H   UNL     1       0.755   4.814  18.243  0.00  0.00    +0.000 HD
ENDBRANCH   2   8
BRANCH   5  11
ATOM     11  O   UNL     1       3.240   2.614  21.048  0.00  0.00    +0.000 OA
ATOM     12  H   UNL     1       3.150   2.774  22.011  0.00  0.00    +0.000 HD
ENDBRANCH   5  11
BRANCH   6  13
ATOM     13  O   UNL     1       0.600   2.730  21.313  0.00  0.00    +0.000 OA
ATOM     14  H   UNL     1       0.342   3.428  21.952  0.00  0.00    +0.000 HD
ENDBRANCH   6  13
BRANCH   7  15
ATOM     15  O   UNL     1       1.482   1.176  19.221  0.00  0.00    +0.000 OA
ATOM     16  H   UNL     1       1.011   0.871  20.023  0.00  0.00    +0.000 HD
ENDBRANCH   7  15
ENDBRANCH   1   3
BRANCH   1  17
ATOM     17  C   UNL     1       4.859   5.008  17.221  0.00  0.00    +0.000 C 
ATOM     18  C   UNL     1       6.194   5.121  17.994  0.00  0.00    +0.000 C 
ATOM     19  C   UNL     1       7.308   4.330  17.278  0.00  0.00    +0.000 C 
ATOM     20  C   UNL     1       7.528   4.920  15.882  0.00  0.00    +0.000 C 
ATOM     21  C   UNL     1       6.255   4.837  15.037  0.00  0.00    +0.000 C 
ATOM     22  C   UNL     1       5.030   5.442  15.748  0.00  0.00    +0.000 C 
BRANCH  18  23
ATOM     23  O   UNL     1       6.050   4.730  19.359  0.00  0.00    +0.000 OA
ATOM     24  H   UNL     1       5.758   5.540  19.852  0.00  0.00    +0.000 HD
ENDBRANCH  18  23
BRANCH  19  25
ATOM     25  O   UNL     1       8.529   4.410  18.019  0.00  0.00    +0.000 OA
ATOM     26  H   UNL     1       9.225   4.037  17.439  0.00  0.00    +0.000 HD
ENDBRANCH  19  25
BRANCH  20  27
ATOM     27  O   UNL     1       7.900   6.312  16.020  0.00  0.00    +0.000 OA
ATOM     28  H   UNL     1       7.048   6.782  16.133  0.00  0.00    +0.000 HD
ENDBRANCH  20  27
BRANCH  21  29
ATOM     29  O   UNL     1       6.497   5.562  13.810  0.00  0.00    +0.000 OA
ATOM     30  H   UNL     1       6.742   6.473  14.074  0.00  0.00    +0.000 HD
ENDBRANCH  21  29
BRANCH  22  31
ATOM     31  O   UNL     1       5.093   6.878  15.650  0.00  0.00    +0.000 OA
ATOM     32  H   UNL     1       4.831   7.251  16.515  0.00  0.00    +0.000 HD
ENDBRANCH  22  31
ENDBRANCH   1  17
TORSDOF 11
ENDMDL
MODEL 9
REMARK VINA RESULT:      -6.7      1.808      6.170
REMARK  Name = 
REMARK  11 active torsions:
REMARK  status: ('A' for Active; 'I' for Inactive)
REMARK    1  A    between atoms: N_1  and  C_2
REMARK    2  A    between atoms: C_3  and  O_4
REMARK    3  A    between atoms: O_4  and  C_5
REMARK    4  A    between atoms: C_6  and  O_7
REMARK    5  A    between atoms: C_8  and  O_9
REMARK    6  A    between atoms: C_10  and  O_11
REMARK    7  A    between atoms: C_12  and  O_13
REMARK    8  A    between atoms: C_14  and  O_15
REMARK    9  A    between atoms: C_17  and  O_18
REMARK   10  A    between atoms: C_19  and  O_20
REMARK   11  A    between atoms: C_21  and  O_22
REMARK                            x       y       z     vdW  Elec       q    Type
REMARK                         _______ _______ _______ _____ _____    ______ ____
ROOT
ATOM      1  O   UNL     1       4.958   4.549  19.191  0.00  0.00    +0.000 OA
ENDROOT
BRANCH   1   3
ATOM      2  C   UNL     1       2.403   4.680  19.449  0.00  0.00    +0.000 C 
ATOM      3  C   UNL     1       3.682   3.935  18.930  0.00  0.00    +0.000 C 
ATOM      4  O   UNL     1       3.670   2.563  19.340  0.00  0.00    +0.000 OA
ATOM      5  C   UNL     1       2.530   1.846  18.874  0.00  0.00    +0.000 C 
ATOM      6  C   UNL     1       1.166   2.487  19.201  0.00  0.00    +0.000 C 
ATOM      7  C   UNL     1       1.168   3.983  18.843  0.00  0.00    +0.000 C 
BRANCH   2   8
ATOM      8  N   UNL     1       2.197   4.640  20.919  0.00  0.00    +0.000 NA
ATOM      9  H   UNL     1       1.950   3.697  21.218  0.00  0.00    +0.000 HD
ATOM     10  H   UNL     1       1.384   5.226  21.166  0.00  0.00    +0.000 HD
ENDBRANCH   2   8
BRANCH   5  11
ATOM     11  O   UNL     1       2.604   1.670  17.458  0.00  0.00    +0.000 OA
ATOM     12  H   UNL     1       1.719   1.313  17.231  0.00  0.00    +0.000 HD
ENDBRANCH   5  11
BRANCH   6  13
ATOM     13  O   UNL     1       0.144   1.794  18.454  0.00  0.00    +0.000 OA
ATOM     14  H   UNL     1      -0.647   1.757  19.033  0.00  0.00    +0.000 HD
ENDBRANCH   6  13
BRANCH   7  15
ATOM     15  O   UNL     1       1.090   4.161  17.418  0.00  0.00    +0.000 OA
ATOM     16  H   UNL     1       1.743   4.839  17.151  0.00  0.00    +0.000 HD
ENDBRANCH   7  15
ENDBRANCH   1   3
BRANCH   1  17
ATOM     17  C   UNL     1       6.035   4.365  18.270  0.00  0.00    +0.000 C 
ATOM     18  C   UNL     1       5.686   4.803  16.828  0.00  0.00    +0.000 C 
ATOM     19  C   UNL     1       5.493   6.332  16.753  0.00  0.00    +0.000 C 
ATOM     20  C   UNL     1       6.800   7.025  17.146  0.00  0.00    +0.000 C 
ATOM     21  C   UNL     1       7.217   6.659  18.573  0.00  0.00    +0.000 C 
ATOM     22  C   UNL     1       7.261   5.137  18.805  0.00  0.00    +0.000 C 
BRANCH  18  23
ATOM     23  O   UNL     1       4.557   4.093  16.318  0.00  0.00    +0.000 OA
ATOM     24  H   UNL     1       4.652   3.157  16.633  0.00  0.00    +0.000 HD
ENDBRANCH  18  23
BRANCH  19  25
ATOM     25  O   UNL     1       5.135   6.723  15.425  0.00  0.00    +0.000 OA
ATOM     26  H   UNL     1       4.599   7.537  15.515  0.00  0.00    +0.000 HD
ENDBRANCH  19  25
BRANCH  20  27
ATOM     27  O   UNL     1       7.843   6.598  16.238  0.00  0.00    +0.000 OA
ATOM     28  H   UNL     1       7.897   7.315  15.573  0.00  0.00    +0.000 HD
ENDBRANCH  20  27
BRANCH  21  29
ATOM     29  O   UNL     1       8.533   7.212  18.799  0.00  0.00    +0.000 OA
ATOM     30  H   UNL     1       8.924   6.697  19.534  0.00  0.00    +0.000 HD
ENDBRANCH  21  29
BRANCH  22  31
ATOM     31  O   UNL     1       8.475   4.610  18.234  0.00  0.00    +0.000 OA
ATOM     32  H   UNL     1       8.425   3.635  18.266  0.00  0.00    +0.000 HD
ENDBRANCH  22  31
ENDBRANCH   1  17
TORSDOF 11
ENDMDL
