MODEL 1
REMARK VINA RESULT:      -6.4      0.000      0.000
REMARK  Name = 
REMARK  4 active torsions:
REMARK  status: ('A' for Active; 'I' for Inactive)
REMARK    1  A    between atoms: S_1  and  C_2
REMARK    2  A    between atoms: C_5  and  C_6
REMARK    3  A    between atoms: N_13  and  C_14
REMARK    4  A    between atoms: C_14  and  C_15
REMARK                            x       y       z     vdW  Elec       q    Type
REMARK                         _______ _______ _______ _____ _____    ______ ____
ROOT
ATOM      1  C   UNL     1       7.369   6.777  18.370  0.00  0.00    +0.000 A 
ATOM      2  N   UNL     1       7.801   6.112  19.410  0.00  0.00    +0.000 NA
ATOM      3  N   UNL     1       6.844   5.179  19.724  0.00  0.00    +0.000 NA
ATOM      4  C   UNL     1       5.827   5.294  18.882  0.00  0.00    +0.000 A 
ATOM      5  N   UNL     1       6.157   6.285  17.967  0.00  0.00    +0.000 N 
ENDROOT
BRANCH   4   6
ATOM      6  C   UNL     1       4.601   4.474  18.951  0.00  0.00    +0.000 A 
ATOM      7  C   UNL     1       4.464   3.230  18.328  0.00  0.00    +0.000 A 
ATOM      8  C   UNL     1       3.276   2.495  18.390  0.00  0.00    +0.000 A 
ATOM      9  C   UNL     1       2.181   3.017  19.060  0.00  0.00    +0.000 A 
ATOM     10 BR   UNL     1       0.568   2.036  19.108  0.00  0.00    +0.000 Br
ATOM     11  C   UNL     1       2.269   4.262  19.672  0.00  0.00    +0.000 A 
ATOM     12  C   UNL     1       3.470   4.986  19.616  0.00  0.00    +0.000 A 
ENDBRANCH   4   6
BRANCH   1  13
ATOM     13  S   UNL     1       8.203   8.080  17.607  0.00  0.00    +0.000 S 
ATOM     14  H   UNL     1       8.607   7.404  16.522  0.00  0.00    +0.000 HD
ENDBRANCH   1  13
BRANCH   5  15
ATOM     15  C   UNL     1       5.453   6.649  16.754  0.00  0.00    +0.000 C 
BRANCH  15  16
ATOM     16  C   UNL     1       5.709   5.694  15.644  0.00  0.00    +0.000 A 
ATOM     17  C   UNL     1       5.030   4.615  15.104  0.00  0.00    +0.000 A 
ATOM     18  C   UNL     1       5.910   4.012  14.175  0.00  0.00    +0.000 A 
ATOM     19  C   UNL     1       7.051   4.778  14.173  0.00  0.00    +0.000 A 
ATOM     20  O   UNL     1       6.938   5.799  15.059  0.00  0.00    +0.000 OA
ENDBRANCH  15  16
ENDBRANCH   5  15
TORSDOF 4
ENDMDL
MODEL 2
REMARK VINA RESULT:      -6.4      4.354      6.076
REMARK  Name = 
REMARK  4 active torsions:
REMARK  status: ('A' for Active; 'I' for Inactive)
REMARK    1  A    between atoms: S_1  and  C_2
REMARK    2  A    between atoms: C_5  and  C_6
REMARK    3  A    between atoms: N_13  and  C_14
REMARK    4  A    between atoms: C_14  and  C_15
REMARK                            x       y       z     vdW  Elec       q    Type
REMARK                         _______ _______ _______ _____ _____    ______ ____
ROOT
ATOM      1  C   UNL     1       4.099   5.023  17.445  0.00  0.00    +0.000 A 
ATOM      2  N   UNL     1       5.017   5.954  17.435  0.00  0.00    +0.000 NA
ATOM      3  N   UNL     1       4.426   7.114  17.873  0.00  0.00    +0.000 NA
ATOM      4  C   UNL     1       3.147   6.885  18.129  0.00  0.00    +0.000 A 
ATOM      5  N   UNL     1       2.916   5.533  17.909  0.00  0.00    +0.000 N 
ENDROOT
BRANCH   4   6
ATOM      6  C   UNL     1       2.197   7.920  18.581  0.00  0.00    +0.000 A 
ATOM      7  C   UNL     1       1.648   8.889  17.736  0.00  0.00    +0.000 A 
ATOM      8  C   UNL     1       0.773   9.875  18.206  0.00  0.00    +0.000 A 
ATOM      9  C   UNL     1       0.456   9.924  19.554  0.00  0.00    +0.000 A 
ATOM     10 BR   UNL     1      -0.695  11.279  20.188  0.00  0.00    +0.000 Br
ATOM     11  C   UNL     1       1.001   8.993  20.431  0.00  0.00    +0.000 A 
ATOM     12  C   UNL     1       1.866   7.999  19.947  0.00  0.00    +0.000 A 
ENDBRANCH   4   6
BRANCH   1  13
ATOM     13  S   UNL     1       4.338   3.386  16.954  0.00  0.00    +0.000 S 
ATOM     14  H   UNL     1       4.884   2.951  18.098  0.00  0.00    +0.000 HD
ENDBRANCH   1  13
BRANCH   5  15
ATOM     15  C   UNL     1       1.727   4.768  18.223  0.00  0.00    +0.000 C 
BRANCH  15  16
ATOM     16  C   UNL     1       1.767   4.198  19.595  0.00  0.00    +0.000 A 
ATOM     17  C   UNL     1       2.360   4.566  20.791  0.00  0.00    +0.000 A 
ATOM     18  C   UNL     1       2.165   3.484  21.683  0.00  0.00    +0.000 A 
ATOM     19  C   UNL     1       1.434   2.546  20.995  0.00  0.00    +0.000 A 
ATOM     20  O   UNL     1       1.188   2.969  19.731  0.00  0.00    +0.000 OA
ENDBRANCH  15  16
ENDBRANCH   5  15
TORSDOF 4
ENDMDL
MODEL 3
REMARK VINA RESULT:      -6.4      3.374      4.526
REMARK  Name = 
REMARK  4 active torsions:
REMARK  status: ('A' for Active; 'I' for Inactive)
REMARK    1  A    between atoms: S_1  and  C_2
REMARK    2  A    between atoms: C_5  and  C_6
REMARK    3  A    between atoms: N_13  and  C_14
REMARK    4  A    between atoms: C_14  and  C_15
REMARK                            x       y       z     vdW  Elec       q    Type
REMARK                         _______ _______ _______ _____ _____    ______ ____
ROOT
ATOM      1  C   UNL     1       4.705   4.233  16.462  0.00  0.00    +0.000 A 
ATOM      2  N   UNL     1       3.774   3.440  16.925  0.00  0.00    +0.000 NA
ATOM      3  N   UNL     1       2.912   4.212  17.665  0.00  0.00    +0.000 NA
ATOM      4  C   UNL     1       3.336   5.467  17.663  0.00  0.00    +0.000 A 
ATOM      5  N   UNL     1       4.464   5.522  16.855  0.00  0.00    +0.000 N 
ENDROOT
BRANCH   4   6
ATOM      6  C   UNL     1       2.672   6.564  18.394  0.00  0.00    +0.000 A 
ATOM      7  C   UNL     1       2.349   7.796  17.818  0.00  0.00    +0.000 A 
ATOM      8  C   UNL     1       1.747   8.824  18.551  0.00  0.00    +0.000 A 
ATOM      9  C   UNL     1       1.486   8.642  19.900  0.00  0.00    +0.000 A 
ATOM     10 BR   UNL     1       0.708  10.047  20.893  0.00  0.00    +0.000 Br
ATOM     11  C   UNL     1       1.816   7.440  20.516  0.00  0.00    +0.000 A 
ATOM     12  C   UNL     1       2.406   6.409  19.768  0.00  0.00    +0.000 A 
ENDBRANCH   4   6
BRANCH   1  13
ATOM     13  S   UNL     1       6.041   3.735  15.490  0.00  0.00    +0.000 S 
ATOM     14  H   UNL     1       6.929   3.608  16.485  0.00  0.00    +0.000 HD
ENDBRANCH   1  13
BRANCH   5  15
ATOM     15  C   UNL     1       5.177   6.696  16.396  0.00  0.00    +0.000 C 
BRANCH  15  16
ATOM     16  C   UNL     1       6.426   6.936  17.166  0.00  0.00    +0.000 A 
ATOM     17  C   UNL     1       7.108   6.259  18.162  0.00  0.00    +0.000 A 
ATOM     18  C   UNL     1       8.139   7.123  18.600  0.00  0.00    +0.000 A 
ATOM     19  C   UNL     1       8.051   8.252  17.822  0.00  0.00    +0.000 A 
ATOM     20  O   UNL     1       7.017   8.148  16.950  0.00  0.00    +0.000 OA
ENDBRANCH  15  16
ENDBRANCH   5  15
TORSDOF 4
ENDMDL
MODEL 4
REMARK VINA RESULT:      -6.3      4.295      6.048
REMARK  Name = 
REMARK  4 active torsions:
REMARK  status: ('A' for Active; 'I' for Inactive)
REMARK    1  A    between atoms: S_1  and  C_2
REMARK    2  A    between atoms: C_5  and  C_6
REMARK    3  A    between atoms: N_13  and  C_14
REMARK    4  A    between atoms: C_14  and  C_15
REMARK                            x       y       z     vdW  Elec       q    Type
REMARK                         _______ _______ _______ _____ _____    ______ ____
ROOT
ATOM      1  C   UNL     1       4.041   4.917  17.402  0.00  0.00    +0.000 A 
ATOM      2  N   UNL     1       5.001   5.805  17.396  0.00  0.00    +0.000 NA
ATOM      3  N   UNL     1       4.473   6.979  17.875  0.00  0.00    +0.000 NA
ATOM      4  C   UNL     1       3.190   6.801  18.153  0.00  0.00    +0.000 A 
ATOM      5  N   UNL     1       2.893   5.468  17.903  0.00  0.00    +0.000 N 
ENDROOT
BRANCH   4   6
ATOM      6  C   UNL     1       2.297   7.867  18.650  0.00  0.00    +0.000 A 
ATOM      7  C   UNL     1       1.896   7.983  19.983  0.00  0.00    +0.000 A 
ATOM      8  C   UNL     1       1.024   8.989  20.413  0.00  0.00    +0.000 A 
ATOM      9  C   UNL     1       0.509   9.887  19.492  0.00  0.00    +0.000 A 
ATOM     10 BR   UNL     1      -0.697  11.220  20.071  0.00  0.00    +0.000 Br
ATOM     11  C   UNL     1       0.864   9.791  18.152  0.00  0.00    +0.000 A 
ATOM     12  C   UNL     1       1.751   8.787  17.733  0.00  0.00    +0.000 A 
ENDBRANCH   4   6
BRANCH   1  13
ATOM     13  S   UNL     1       4.195   3.284  16.866  0.00  0.00    +0.000 S 
ATOM     14  H   UNL     1       4.012   2.702  18.059  0.00  0.00    +0.000 HD
ENDBRANCH   1  13
BRANCH   5  15
ATOM     15  C   UNL     1       1.676   4.750  18.223  0.00  0.00    +0.000 C 
BRANCH  15  16
ATOM     16  C   UNL     1       1.734   4.107  19.562  0.00  0.00    +0.000 A 
ATOM     17  C   UNL     1       1.931   4.557  20.856  0.00  0.00    +0.000 A 
ATOM     18  C   UNL     1       2.061   3.403  21.666  0.00  0.00    +0.000 A 
ATOM     19  C   UNL     1       1.896   2.326  20.829  0.00  0.00    +0.000 A 
ATOM     20  O   UNL     1       1.697   2.742  19.553  0.00  0.00    +0.000 OA
ENDBRANCH  15  16
ENDBRANCH   5  15
TORSDOF 4
ENDMDL
MODEL 5
REMARK VINA RESULT:      -6.3      3.488      4.687
REMARK  Name = 
REMARK  4 active torsions:
REMARK  status: ('A' for Active; 'I' for Inactive)
REMARK    1  A    between atoms: S_1  and  C_2
REMARK    2  A    between atoms: C_5  and  C_6
REMARK    3  A    between atoms: N_13  and  C_14
REMARK    4  A    between atoms: C_14  and  C_15
REMARK                            x       y       z     vdW  Elec       q    Type
REMARK                         _______ _______ _______ _____ _____    ______ ____
ROOT
ATOM      1  C   UNL     1       4.586   4.320  16.519  0.00  0.00    +0.000 A 
ATOM      2  N   UNL     1       3.592   3.585  16.944  0.00  0.00    +0.000 NA
ATOM      3  N   UNL     1       2.765   4.402  17.675  0.00  0.00    +0.000 NA
ATOM      4  C   UNL     1       3.272   5.626  17.705  0.00  0.00    +0.000 A 
ATOM      5  N   UNL     1       4.423   5.616  16.928  0.00  0.00    +0.000 N 
ENDROOT
BRANCH   4   6
ATOM      6  C   UNL     1       2.664   6.753  18.438  0.00  0.00    +0.000 A 
ATOM      7  C   UNL     1       2.339   6.710  19.797  0.00  0.00    +0.000 A 
ATOM      8  C   UNL     1       1.736   7.789  20.452  0.00  0.00    +0.000 A 
ATOM      9  C   UNL     1       1.414   8.931  19.737  0.00  0.00    +0.000 A 
ATOM     10 BR   UNL     1       0.565  10.369  20.618  0.00  0.00    +0.000 Br
ATOM     11  C   UNL     1       1.698   9.004  18.378  0.00  0.00    +0.000 A 
ATOM     12  C   UNL     1       2.317   7.923  17.733  0.00  0.00    +0.000 A 
ENDBRANCH   4   6
BRANCH   1  13
ATOM     13  S   UNL     1       5.912   3.748  15.574  0.00  0.00    +0.000 S 
ATOM     14  H   UNL     1       5.435   4.124  14.379  0.00  0.00    +0.000 HD
ENDBRANCH   1  13
BRANCH   5  15
ATOM     15  C   UNL     1       5.225   6.747  16.508  0.00  0.00    +0.000 C 
BRANCH  15  16
ATOM     16  C   UNL     1       6.391   6.975  17.401  0.00  0.00    +0.000 A 
ATOM     17  C   UNL     1       7.381   7.938  17.491  0.00  0.00    +0.000 A 
ATOM     18  C   UNL     1       8.309   7.470  18.453  0.00  0.00    +0.000 A 
ATOM     19  C   UNL     1       7.810   6.276  18.917  0.00  0.00    +0.000 A 
ATOM     20  O   UNL     1       6.650   5.969  18.287  0.00  0.00    +0.000 OA
ENDBRANCH  15  16
ENDBRANCH   5  15
TORSDOF 4
ENDMDL
MODEL 6
REMARK VINA RESULT:      -6.2      4.096      4.981
REMARK  Name = 
REMARK  4 active torsions:
REMARK  status: ('A' for Active; 'I' for Inactive)
REMARK    1  A    between atoms: S_1  and  C_2
REMARK    2  A    between atoms: C_5  and  C_6
REMARK    3  A    between atoms: N_13  and  C_14
REMARK    4  A    between atoms: C_14  and  C_15
REMARK                            x       y       z     vdW  Elec       q    Type
REMARK                         _______ _______ _______ _____ _____    ______ ____
ROOT
ATOM      1  C   UNL     1       3.317   3.416  19.694  0.00  0.00    +0.000 A 
ATOM      2  N   UNL     1       2.023   3.230  19.695  0.00  0.00    +0.000 NA
ATOM      3  N   UNL     1       1.434   4.462  19.558  0.00  0.00    +0.000 NA
ATOM      4  C   UNL     1       2.375   5.393  19.493  0.00  0.00    +0.000 A 
ATOM      5  N   UNL     1       3.602   4.745  19.529  0.00  0.00    +0.000 N 
ENDROOT
BRANCH   4   6
ATOM      6  C   UNL     1       2.099   6.839  19.385  0.00  0.00    +0.000 A 
ATOM      7  C   UNL     1       1.613   7.617  20.439  0.00  0.00    +0.000 A 
ATOM      8  C   UNL     1       1.334   8.979  20.292  0.00  0.00    +0.000 A 
ATOM      9  C   UNL     1       1.512   9.585  19.058  0.00  0.00    +0.000 A 
ATOM     10 BR   UNL     1       1.099  11.416  18.855  0.00  0.00    +0.000 Br
ATOM     11  C   UNL     1       1.971   8.841  17.977  0.00  0.00    +0.000 A 
ATOM     12  C   UNL     1       2.262   7.477  18.139  0.00  0.00    +0.000 A 
ENDBRANCH   4   6
BRANCH   1  13
ATOM     13  S   UNL     1       4.500   2.171  19.866  0.00  0.00    +0.000 S 
ATOM     14  H   UNL     1       5.080   2.649  20.975  0.00  0.00    +0.000 HD
ENDBRANCH   1  13
BRANCH   5  15
ATOM     15  C   UNL     1       4.917   5.310  19.306  0.00  0.00    +0.000 C 
BRANCH  15  16
ATOM     16  C   UNL     1       5.358   5.174  17.893  0.00  0.00    +0.000 A 
ATOM     17  C   UNL     1       4.769   5.388  16.659  0.00  0.00    +0.000 A 
ATOM     18  C   UNL     1       5.673   4.886  15.692  0.00  0.00    +0.000 A 
ATOM     19  C   UNL     1       6.769   4.437  16.387  0.00  0.00    +0.000 A 
ATOM     20  O   UNL     1       6.588   4.607  17.721  0.00  0.00    +0.000 OA
ENDBRANCH  15  16
ENDBRANCH   5  15
TORSDOF 4
ENDMDL
MODEL 7
REMARK VINA RESULT:      -6.2      4.104      5.198
REMARK  Name = 
REMARK  4 active torsions:
REMARK  status: ('A' for Active; 'I' for Inactive)
REMARK    1  A    between atoms: S_1  and  C_2
REMARK    2  A    between atoms: C_5  and  C_6
REMARK    3  A    between atoms: N_13  and  C_14
REMARK    4  A    between atoms: C_14  and  C_15
REMARK                            x       y       z     vdW  Elec       q    Type
REMARK                         _______ _______ _______ _____ _____    ______ ____
ROOT
ATOM      1  C   UNL     1       2.999   3.104  18.257  0.00  0.00    +0.000 A 
ATOM      2  N   UNL     1       1.948   3.182  17.482  0.00  0.00    +0.000 NA
ATOM      3  N   UNL     1       1.500   4.479  17.533  0.00  0.00    +0.000 NA
ATOM      4  C   UNL     1       2.270   5.178  18.353  0.00  0.00    +0.000 A 
ATOM      5  N   UNL     1       3.276   4.330  18.800  0.00  0.00    +0.000 N 
ENDROOT
BRANCH   4   6
ATOM      6  C   UNL     1       2.053   6.601  18.678  0.00  0.00    +0.000 A 
ATOM      7  C   UNL     1       1.708   7.062  19.951  0.00  0.00    +0.000 A 
ATOM      8  C   UNL     1       1.481   8.417  20.216  0.00  0.00    +0.000 A 
ATOM      9  C   UNL     1       1.565   9.339  19.185  0.00  0.00    +0.000 A 
ATOM     10 BR   UNL     1       1.219  11.161  19.540  0.00  0.00    +0.000 Br
ATOM     11  C   UNL     1       1.881   8.917  17.898  0.00  0.00    +0.000 A 
ATOM     12  C   UNL     1       2.122   7.558  17.647  0.00  0.00    +0.000 A 
ENDBRANCH   4   6
BRANCH   1  13
ATOM     13  S   UNL     1       3.912   1.670  18.552  0.00  0.00    +0.000 S 
ATOM     14  H   UNL     1       5.096   2.267  18.747  0.00  0.00    +0.000 HD
ENDBRANCH   1  13
BRANCH   5  15
ATOM     15  C   UNL     1       4.457   4.672  19.566  0.00  0.00    +0.000 C 
BRANCH  15  16
ATOM     16  C   UNL     1       5.574   5.141  18.704  0.00  0.00    +0.000 A 
ATOM     17  C   UNL     1       5.745   6.174  17.800  0.00  0.00    +0.000 A 
ATOM     18  C   UNL     1       6.995   5.953  17.173  0.00  0.00    +0.000 A 
ATOM     19  C   UNL     1       7.525   4.829  17.758  0.00  0.00    +0.000 A 
ATOM     20  O   UNL     1       6.672   4.330  18.687  0.00  0.00    +0.000 OA
ENDBRANCH  15  16
ENDBRANCH   5  15
TORSDOF 4
ENDMDL
MODEL 8
REMARK VINA RESULT:      -6.2      0.096      1.104
REMARK  Name = 
REMARK  4 active torsions:
REMARK  status: ('A' for Active; 'I' for Inactive)
REMARK    1  A    between atoms: S_1  and  C_2
REMARK    2  A    between atoms: C_5  and  C_6
REMARK    3  A    between atoms: N_13  and  C_14
REMARK    4  A    between atoms: C_14  and  C_15
REMARK                            x       y       z     vdW  Elec       q    Type
REMARK                         _______ _______ _______ _____ _____    ______ ____
ROOT
ATOM      1  C   UNL     1       7.346   6.759  18.359  0.00  0.00    +0.000 A 
ATOM      2  N   UNL     1       7.728   6.086  19.412  0.00  0.00    +0.000 NA
ATOM      3  N   UNL     1       6.725   5.197  19.714  0.00  0.00    +0.000 NA
ATOM      4  C   UNL     1       5.730   5.350  18.851  0.00  0.00    +0.000 A 
ATOM      5  N   UNL     1       6.121   6.318  17.935  0.00  0.00    +0.000 N 
ENDROOT
BRANCH   4   6
ATOM      6  C   UNL     1       4.469   4.585  18.902  0.00  0.00    +0.000 A 
ATOM      7  C   UNL     1       3.347   4.988  19.631  0.00  0.00    +0.000 A 
ATOM      8  C   UNL     1       2.177   4.223  19.681  0.00  0.00    +0.000 A 
ATOM      9  C   UNL     1       2.126   3.008  19.017  0.00  0.00    +0.000 A 
ATOM     10 BR   UNL     1       0.558   1.960  19.118  0.00  0.00    +0.000 Br
ATOM     11  C   UNL     1       3.230   2.559  18.300  0.00  0.00    +0.000 A 
ATOM     12  C   UNL     1       4.393   3.342  18.244  0.00  0.00    +0.000 A 
ENDBRANCH   4   6
BRANCH   1  13
ATOM     13  S   UNL     1       8.252   8.018  17.602  0.00  0.00    +0.000 S 
ATOM     14  H   UNL     1       7.492   9.040  18.020  0.00  0.00    +0.000 HD
ENDBRANCH   1  13
BRANCH   5  15
ATOM     15  C   UNL     1       5.459   6.702  16.706  0.00  0.00    +0.000 C 
BRANCH  15  16
ATOM     16  C   UNL     1       5.710   5.738  15.602  0.00  0.00    +0.000 A 
ATOM     17  C   UNL     1       5.004   4.691  15.037  0.00  0.00    +0.000 A 
ATOM     18  C   UNL     1       5.889   4.051  14.137  0.00  0.00    +0.000 A 
ATOM     19  C   UNL     1       7.062   4.766  14.177  0.00  0.00    +0.000 A 
ATOM     20  O   UNL     1       6.963   5.790  15.061  0.00  0.00    +0.000 OA
ENDBRANCH  15  16
ENDBRANCH   5  15
TORSDOF 4
ENDMDL
MODEL 9
REMARK VINA RESULT:      -6.1      4.086      5.652
REMARK  Name = 
REMARK  4 active torsions:
REMARK  status: ('A' for Active; 'I' for Inactive)
REMARK    1  A    between atoms: S_1  and  C_2
REMARK    2  A    between atoms: C_5  and  C_6
REMARK    3  A    between atoms: N_13  and  C_14
REMARK    4  A    between atoms: C_14  and  C_15
REMARK                            x       y       z     vdW  Elec       q    Type
REMARK                         _______ _______ _______ _____ _____    ______ ____
ROOT
ATOM      1  C   UNL     1       2.940   3.335  19.671  0.00  0.00    +0.000 A 
ATOM      2  N   UNL     1       2.906   2.175  19.067  0.00  0.00    +0.000 NA
ATOM      3  N   UNL     1       3.695   2.275  17.948  0.00  0.00    +0.000 NA
ATOM      4  C   UNL     1       4.191   3.502  17.870  0.00  0.00    +0.000 A 
ATOM      5  N   UNL     1       3.761   4.195  18.993  0.00  0.00    +0.000 N 
ENDROOT
BRANCH   4   6
ATOM      6  C   UNL     1       5.052   3.975  16.768  0.00  0.00    +0.000 A 
ATOM      7  C   UNL     1       4.653   4.004  15.429  0.00  0.00    +0.000 A 
ATOM      8  C   UNL     1       5.507   4.431  14.407  0.00  0.00    +0.000 A 
ATOM      9  C   UNL     1       6.804   4.810  14.713  0.00  0.00    +0.000 A 
ATOM     10 BR   UNL     1       7.965   5.350  13.325  0.00  0.00    +0.000 Br
ATOM     11  C   UNL     1       7.248   4.772  16.030  0.00  0.00    +0.000 A 
ATOM     12  C   UNL     1       6.379   4.356  17.050  0.00  0.00    +0.000 A 
ENDBRANCH   4   6
BRANCH   1  13
ATOM     13  S   UNL     1       2.085   3.727  21.118  0.00  0.00    +0.000 S 
ATOM     14  H   UNL     1       1.604   2.500  21.362  0.00  0.00    +0.000 HD
ENDBRANCH   1  13
BRANCH   5  15
ATOM     15  C   UNL     1       4.181   5.504  19.449  0.00  0.00    +0.000 C 
BRANCH  15  16
ATOM     16  C   UNL     1       3.384   6.599  18.836  0.00  0.00    +0.000 A 
ATOM     17  C   UNL     1       3.435   7.297  17.642  0.00  0.00    +0.000 A 
ATOM     18  C   UNL     1       2.497   8.351  17.754  0.00  0.00    +0.000 A 
ATOM     19  C   UNL     1       1.906   8.210  18.987  0.00  0.00    +0.000 A 
ATOM     20  O   UNL     1       2.436   7.152  19.649  0.00  0.00    +0.000 OA
ENDBRANCH  15  16
ENDBRANCH   5  15
TORSDOF 4
ENDMDL
