MODEL 1
REMARK VINA RESULT:      -8.6      0.000      0.000
REMARK  Name = 
REMARK  1 active torsions:
REMARK  status: ('A' for Active; 'I' for Inactive)
REMARK    1  A    between atoms: C_16  and  C_17
REMARK                            x       y       z     vdW  Elec       q    Type
REMARK                         _______ _______ _______ _____ _____    ______ ____
ROOT
ATOM      1  O   UNL     1       3.913   2.157  17.745  0.00  0.00    +0.000 OA
ATOM      2  C   UNL     1       3.822   3.089  18.533  0.00  0.00    +0.000 C 
ATOM      3  C   UNL     1       3.352   2.890  19.957  0.00  0.00    +0.000 C 
ATOM      4  C   UNL     1       1.981   2.183  20.059  0.00  0.00    +0.000 C 
ATOM      5  C   UNL     1       1.527   2.203  21.513  0.00  0.00    +0.000 C 
ATOM      6  C   UNL     1       1.208   3.471  21.817  0.00  0.00    +0.000 C 
ATOM      7  C   UNL     1       1.499   4.307  20.589  0.00  0.00    +0.000 C 
ATOM      8  C   UNL     1       1.044   3.279  19.541  0.00  0.00    +0.000 C 
ATOM      9  C   UNL     1       3.037   4.318  20.440  0.00  0.00    +0.000 C 
ATOM     10  C   UNL     1       3.549   5.217  19.354  0.00  0.00    +0.000 C 
ATOM     11  O   UNL     1       3.500   6.435  19.464  0.00  0.00    +0.000 OA
ATOM     12  N   UNL     1       4.025   4.434  18.330  0.00  0.00    +0.000 N 
ATOM     13  C   UNL     1       4.581   4.958  17.178  0.00  0.00    +0.000 A 
ATOM     14  N   UNL     1       4.696   6.264  16.898  0.00  0.00    +0.000 NA
ATOM     15  N   UNL     1       5.302   6.261  15.709  0.00  0.00    +0.000 N 
ATOM     16  C   UNL     1       5.576   4.997  15.278  0.00  0.00    +0.000 A 
ATOM     17  N   UNL     1       5.127   4.163  16.195  0.00  0.00    +0.000 NA
ATOM     18  H   UNL     1       5.499   7.147  15.257  0.00  0.00    +0.000 HD
ENDROOT
BRANCH  16  19
ATOM     19  C   UNL     1       6.223   4.656  14.007  0.00  0.00    +0.000 A 
ATOM     20  C   UNL     1       7.347   5.343  13.519  0.00  0.00    +0.000 A 
ATOM     21  C   UNL     1       7.893   5.025  12.271  0.00  0.00    +0.000 A 
ATOM     22  C   UNL     1       7.332   4.011  11.500  0.00  0.00    +0.000 A 
ATOM     23  C   UNL     1       6.235   3.302  11.981  0.00  0.00    +0.000 A 
ATOM     24  C   UNL     1       5.687   3.622  13.225  0.00  0.00    +0.000 A 
ENDBRANCH  16  19
TORSDOF 1
ENDMDL
MODEL 2
REMARK VINA RESULT:      -8.5      1.376      1.510
REMARK  Name = 
REMARK  1 active torsions:
REMARK  status: ('A' for Active; 'I' for Inactive)
REMARK    1  A    between atoms: C_16  and  C_17
REMARK                            x       y       z     vdW  Elec       q    Type
REMARK                         _______ _______ _______ _____ _____    ______ ____
ROOT
ATOM      1  O   UNL     1       2.710   3.200  16.678  0.00  0.00    +0.000 OA
ATOM      2  C   UNL     1       3.250   3.131  17.774  0.00  0.00    +0.000 C 
ATOM      3  C   UNL     1       2.523   2.606  18.992  0.00  0.00    +0.000 C 
ATOM      4  C   UNL     1       1.193   3.341  19.279  0.00  0.00    +0.000 C 
ATOM      5  C   UNL     1       0.647   2.859  20.617  0.00  0.00    +0.000 C 
ATOM      6  C   UNL     1       1.447   3.349  21.577  0.00  0.00    +0.000 C 
ATOM      7  C   UNL     1       2.556   4.110  20.883  0.00  0.00    +0.000 C 
ATOM      8  C   UNL     1       1.706   4.706  19.750  0.00  0.00    +0.000 C 
ATOM      9  C   UNL     1       3.416   3.044  20.167  0.00  0.00    +0.000 C 
ATOM     10  C   UNL     1       4.663   3.579  19.528  0.00  0.00    +0.000 C 
ATOM     11  O   UNL     1       5.609   3.960  20.206  0.00  0.00    +0.000 OA
ATOM     12  N   UNL     1       4.503   3.544  18.164  0.00  0.00    +0.000 N 
ATOM     13  C   UNL     1       5.481   3.957  17.280  0.00  0.00    +0.000 A 
ATOM     14  N   UNL     1       6.672   4.468  17.625  0.00  0.00    +0.000 NA
ATOM     15  N   UNL     1       7.254   4.689  16.445  0.00  0.00    +0.000 N 
ATOM     16  C   UNL     1       6.461   4.306  15.404  0.00  0.00    +0.000 A 
ATOM     17  N   UNL     1       5.338   3.842  15.915  0.00  0.00    +0.000 NA
ATOM     18  H   UNL     1       8.183   5.094  16.425  0.00  0.00    +0.000 HD
ENDROOT
BRANCH  16  19
ATOM     19  C   UNL     1       6.808   4.431  13.985  0.00  0.00    +0.000 A 
ATOM     20  C   UNL     1       7.693   5.409  13.502  0.00  0.00    +0.000 A 
ATOM     21  C   UNL     1       7.945   5.532  12.132  0.00  0.00    +0.000 A 
ATOM     22  C   UNL     1       7.326   4.673  11.227  0.00  0.00    +0.000 A 
ATOM     23  C   UNL     1       6.468   3.680  11.691  0.00  0.00    +0.000 A 
ATOM     24  C   UNL     1       6.213   3.560  13.059  0.00  0.00    +0.000 A 
ENDBRANCH  16  19
TORSDOF 1
ENDMDL
MODEL 3
REMARK VINA RESULT:      -8.5      1.371      1.803
REMARK  Name = 
REMARK  1 active torsions:
REMARK  status: ('A' for Active; 'I' for Inactive)
REMARK    1  A    between atoms: C_16  and  C_17
REMARK                            x       y       z     vdW  Elec       q    Type
REMARK                         _______ _______ _______ _____ _____    ______ ____
ROOT
ATOM      1  O   UNL     1       2.665   3.184  16.729  0.00  0.00    +0.000 OA
ATOM      2  C   UNL     1       3.216   3.110  17.819  0.00  0.00    +0.000 C 
ATOM      3  C   UNL     1       2.502   2.575  19.041  0.00  0.00    +0.000 C 
ATOM      4  C   UNL     1       1.172   3.305  19.345  0.00  0.00    +0.000 C 
ATOM      5  C   UNL     1       0.641   2.813  20.685  0.00  0.00    +0.000 C 
ATOM      6  C   UNL     1       1.448   3.300  21.640  0.00  0.00    +0.000 C 
ATOM      7  C   UNL     1       2.549   4.069  20.941  0.00  0.00    +0.000 C 
ATOM      8  C   UNL     1       1.685   4.668  19.820  0.00  0.00    +0.000 C 
ATOM      9  C   UNL     1       3.405   3.010  20.210  0.00  0.00    +0.000 C 
ATOM     10  C   UNL     1       4.644   3.552  19.563  0.00  0.00    +0.000 C 
ATOM     11  O   UNL     1       5.595   3.932  20.234  0.00  0.00    +0.000 OA
ATOM     12  N   UNL     1       4.471   3.525  18.200  0.00  0.00    +0.000 N 
ATOM     13  C   UNL     1       5.440   3.946  17.309  0.00  0.00    +0.000 A 
ATOM     14  N   UNL     1       6.632   4.458  17.647  0.00  0.00    +0.000 NA
ATOM     15  N   UNL     1       7.203   4.689  16.463  0.00  0.00    +0.000 N 
ATOM     16  C   UNL     1       6.402   4.310  15.427  0.00  0.00    +0.000 A 
ATOM     17  N   UNL     1       5.284   3.839  15.945  0.00  0.00    +0.000 NA
ATOM     18  H   UNL     1       8.130   5.097  16.437  0.00  0.00    +0.000 HD
ENDROOT
BRANCH  16  19
ATOM     19  C   UNL     1       6.734   4.444  14.005  0.00  0.00    +0.000 A 
ATOM     20  C   UNL     1       6.206   3.595  13.018  0.00  0.00    +0.000 A 
ATOM     21  C   UNL     1       6.600   3.721  11.682  0.00  0.00    +0.000 A 
ATOM     22  C   UNL     1       7.517   4.702  11.312  0.00  0.00    +0.000 A 
ATOM     23  C   UNL     1       8.029   5.569  12.273  0.00  0.00    +0.000 A 
ATOM     24  C   UNL     1       7.638   5.441  13.608  0.00  0.00    +0.000 A 
ENDBRANCH  16  19
TORSDOF 1
ENDMDL
MODEL 4
REMARK VINA RESULT:      -8.4      0.090      1.008
REMARK  Name = 
REMARK  1 active torsions:
REMARK  status: ('A' for Active; 'I' for Inactive)
REMARK    1  A    between atoms: C_16  and  C_17
REMARK                            x       y       z     vdW  Elec       q    Type
REMARK                         _______ _______ _______ _____ _____    ______ ____
ROOT
ATOM      1  O   UNL     1       3.804   2.114  17.714  0.00  0.00    +0.000 OA
ATOM      2  C   UNL     1       3.759   3.036  18.517  0.00  0.00    +0.000 C 
ATOM      3  C   UNL     1       3.320   2.830  19.950  0.00  0.00    +0.000 C 
ATOM      4  C   UNL     1       1.932   2.160  20.076  0.00  0.00    +0.000 C 
ATOM      5  C   UNL     1       1.515   2.171  21.542  0.00  0.00    +0.000 C 
ATOM      6  C   UNL     1       1.240   3.443  21.871  0.00  0.00    +0.000 C 
ATOM      7  C   UNL     1       1.523   4.289  20.649  0.00  0.00    +0.000 C 
ATOM      8  C   UNL     1       1.013   3.289  19.598  0.00  0.00    +0.000 C 
ATOM      9  C   UNL     1       3.057   4.259  20.460  0.00  0.00    +0.000 C 
ATOM     10  C   UNL     1       3.567   5.159  19.374  0.00  0.00    +0.000 C 
ATOM     11  O   UNL     1       3.555   6.376  19.503  0.00  0.00    +0.000 OA
ATOM     12  N   UNL     1       3.995   4.378  18.327  0.00  0.00    +0.000 N 
ATOM     13  C   UNL     1       4.537   4.903  17.170  0.00  0.00    +0.000 A 
ATOM     14  N   UNL     1       4.681   6.210  16.905  0.00  0.00    +0.000 NA
ATOM     15  N   UNL     1       5.257   6.208  15.701  0.00  0.00    +0.000 N 
ATOM     16  C   UNL     1       5.485   4.943  15.246  0.00  0.00    +0.000 A 
ATOM     17  N   UNL     1       5.035   4.108  16.162  0.00  0.00    +0.000 NA
ATOM     18  H   UNL     1       5.468   7.093  15.257  0.00  0.00    +0.000 HD
ENDROOT
BRANCH  16  19
ATOM     19  C   UNL     1       6.090   4.603  13.954  0.00  0.00    +0.000 A 
ATOM     20  C   UNL     1       5.588   3.586  13.124  0.00  0.00    +0.000 A 
ATOM     21  C   UNL     1       6.235   3.254  11.930  0.00  0.00    +0.000 A 
ATOM     22  C   UNL     1       7.384   3.940  11.542  0.00  0.00    +0.000 A 
ATOM     23  C   UNL     1       7.878   4.968  12.339  0.00  0.00    +0.000 A 
ATOM     24  C   UNL     1       7.234   5.297  13.534  0.00  0.00    +0.000 A 
ENDBRANCH  16  19
TORSDOF 1
ENDMDL
MODEL 5
REMARK VINA RESULT:      -8.2      4.059      5.423
REMARK  Name = 
REMARK  1 active torsions:
REMARK  status: ('A' for Active; 'I' for Inactive)
REMARK    1  A    between atoms: C_16  and  C_17
REMARK                            x       y       z     vdW  Elec       q    Type
REMARK                         _______ _______ _______ _____ _____    ______ ____
ROOT
ATOM      1  O   UNL     1       3.960   6.660  19.023  0.00  0.00    +0.000 OA
ATOM      2  C   UNL     1       4.050   5.852  18.108  0.00  0.00    +0.000 C 
ATOM      3  C   UNL     1       2.944   4.868  17.798  0.00  0.00    +0.000 C 
ATOM      4  C   UNL     1       2.527   4.008  19.014  0.00  0.00    +0.000 C 
ATOM      5  C   UNL     1       1.549   2.939  18.544  0.00  0.00    +0.000 C 
ATOM      6  C   UNL     1       2.242   2.057  17.806  0.00  0.00    +0.000 C 
ATOM      7  C   UNL     1       3.667   2.562  17.734  0.00  0.00    +0.000 C 
ATOM      8  C   UNL     1       3.754   3.103  19.170  0.00  0.00    +0.000 C 
ATOM      9  C   UNL     1       3.619   3.842  16.869  0.00  0.00    +0.000 C 
ATOM     10  C   UNL     1       4.962   4.430  16.553  0.00  0.00    +0.000 C 
ATOM     11  O   UNL     1       5.730   3.873  15.778  0.00  0.00    +0.000 OA
ATOM     12  N   UNL     1       5.104   5.598  17.261  0.00  0.00    +0.000 N 
ATOM     13  C   UNL     1       6.230   6.395  17.182  0.00  0.00    +0.000 A 
ATOM     14  N   UNL     1       7.321   6.123  16.451  0.00  0.00    +0.000 NA
ATOM     15  N   UNL     1       8.105   7.178  16.684  0.00  0.00    +0.000 N 
ATOM     16  C   UNL     1       7.510   8.084  17.511  0.00  0.00    +0.000 A 
ATOM     17  N   UNL     1       6.326   7.603  17.835  0.00  0.00    +0.000 NA
ATOM     18  H   UNL     1       9.019   7.214  16.248  0.00  0.00    +0.000 HD
ENDROOT
BRANCH  16  19
ATOM     19  C   UNL     1       8.116   9.338  17.968  0.00  0.00    +0.000 A 
ATOM     20  C   UNL     1       7.869  10.573  17.344  0.00  0.00    +0.000 A 
ATOM     21  C   UNL     1       8.518  11.734  17.775  0.00  0.00    +0.000 A 
ATOM     22  C   UNL     1       9.412  11.682  18.841  0.00  0.00    +0.000 A 
ATOM     23  C   UNL     1       9.647  10.472  19.489  0.00  0.00    +0.000 A 
ATOM     24  C   UNL     1       9.002   9.311  19.056  0.00  0.00    +0.000 A 
ENDBRANCH  16  19
TORSDOF 1
ENDMDL
MODEL 6
REMARK VINA RESULT:      -8.1      4.049      5.412
REMARK  Name = 
REMARK  1 active torsions:
REMARK  status: ('A' for Active; 'I' for Inactive)
REMARK    1  A    between atoms: C_16  and  C_17
REMARK                            x       y       z     vdW  Elec       q    Type
REMARK                         _______ _______ _______ _____ _____    ______ ____
ROOT
ATOM      1  O   UNL     1       3.984   6.678  19.052  0.00  0.00    +0.000 OA
ATOM      2  C   UNL     1       4.051   5.875  18.131  0.00  0.00    +0.000 C 
ATOM      3  C   UNL     1       2.925   4.912  17.825  0.00  0.00    +0.000 C 
ATOM      4  C   UNL     1       2.506   4.051  19.040  0.00  0.00    +0.000 C 
ATOM      5  C   UNL     1       1.505   3.002  18.572  0.00  0.00    +0.000 C 
ATOM      6  C   UNL     1       2.175   2.114  17.821  0.00  0.00    +0.000 C 
ATOM      7  C   UNL     1       3.608   2.595  17.739  0.00  0.00    +0.000 C 
ATOM      8  C   UNL     1       3.719   3.124  19.177  0.00  0.00    +0.000 C 
ATOM      9  C   UNL     1       3.573   3.881  16.883  0.00  0.00    +0.000 C 
ATOM     10  C   UNL     1       4.923   4.448  16.557  0.00  0.00    +0.000 C 
ATOM     11  O   UNL     1       5.674   3.884  15.771  0.00  0.00    +0.000 OA
ATOM     12  N   UNL     1       5.091   5.609  17.272  0.00  0.00    +0.000 N 
ATOM     13  C   UNL     1       6.231   6.387  17.186  0.00  0.00    +0.000 A 
ATOM     14  N   UNL     1       7.309   6.102  16.442  0.00  0.00    +0.000 NA
ATOM     15  N   UNL     1       8.114   7.142  16.674  0.00  0.00    +0.000 N 
ATOM     16  C   UNL     1       7.543   8.052  17.514  0.00  0.00    +0.000 A 
ATOM     17  N   UNL     1       6.354   7.589  17.846  0.00  0.00    +0.000 NA
ATOM     18  H   UNL     1       9.024   7.166  16.230  0.00  0.00    +0.000 HD
ENDROOT
BRANCH  16  19
ATOM     19  C   UNL     1       8.174   9.293  17.973  0.00  0.00    +0.000 A 
ATOM     20  C   UNL     1       9.057   9.337  19.065  0.00  0.00    +0.000 A 
ATOM     21  C   UNL     1       9.586  10.554  19.508  0.00  0.00    +0.000 A 
ATOM     22  C   UNL     1       9.251  11.739  18.860  0.00  0.00    +0.000 A 
ATOM     23  C   UNL     1       8.400  11.710  17.759  0.00  0.00    +0.000 A 
ATOM     24  C   UNL     1       7.868  10.496  17.320  0.00  0.00    +0.000 A 
ENDBRANCH  16  19
TORSDOF 1
ENDMDL
MODEL 7
REMARK VINA RESULT:      -7.9      4.880      6.472
REMARK  Name = 
REMARK  1 active torsions:
REMARK  status: ('A' for Active; 'I' for Inactive)
REMARK    1  A    between atoms: C_16  and  C_17
REMARK                            x       y       z     vdW  Elec       q    Type
REMARK                         _______ _______ _______ _____ _____    ______ ____
ROOT
ATOM      1  O   UNL     1       2.021  10.025  17.391  0.00  0.00    +0.000 OA
ATOM      2  C   UNL     1       1.283   9.779  18.335  0.00  0.00    +0.000 C 
ATOM      3  C   UNL     1       0.104  10.662  18.682  0.00  0.00    +0.000 C 
ATOM      4  C   UNL     1       0.489  12.145  18.888  0.00  0.00    +0.000 C 
ATOM      5  C   UNL     1      -0.730  12.898  19.409  0.00  0.00    +0.000 C 
ATOM      6  C   UNL     1      -0.946  12.489  20.669  0.00  0.00    +0.000 C 
ATOM      7  C   UNL     1       0.089  11.427  20.974  0.00  0.00    +0.000 C 
ATOM      8  C   UNL     1       1.258  12.070  20.211  0.00  0.00    +0.000 C 
ATOM      9  C   UNL     1      -0.286  10.209  20.100  0.00  0.00    +0.000 C 
ATOM     10  C   UNL     1       0.539   8.983  20.357  0.00  0.00    +0.000 C 
ATOM     11  O   UNL     1       0.416   8.343  21.394  0.00  0.00    +0.000 OA
ATOM     12  N   UNL     1       1.367   8.782  19.279  0.00  0.00    +0.000 N 
ATOM     13  C   UNL     1       2.250   7.722  19.196  0.00  0.00    +0.000 A 
ATOM     14  N   UNL     1       2.437   6.793  20.145  0.00  0.00    +0.000 NA
ATOM     15  N   UNL     1       3.354   5.991  19.599  0.00  0.00    +0.000 N 
ATOM     16  C   UNL     1       3.705   6.395  18.345  0.00  0.00    +0.000 A 
ATOM     17  N   UNL     1       3.016   7.488  18.076  0.00  0.00    +0.000 NA
ATOM     18  H   UNL     1       3.688   5.196  20.130  0.00  0.00    +0.000 HD
ENDROOT
BRANCH  16  19
ATOM     19  C   UNL     1       4.695   5.736  17.488  0.00  0.00    +0.000 A 
ATOM     20  C   UNL     1       4.444   4.517  16.835  0.00  0.00    +0.000 A 
ATOM     21  C   UNL     1       5.440   3.893  16.078  0.00  0.00    +0.000 A 
ATOM     22  C   UNL     1       6.696   4.481  15.954  0.00  0.00    +0.000 A 
ATOM     23  C   UNL     1       6.953   5.702  16.571  0.00  0.00    +0.000 A 
ATOM     24  C   UNL     1       5.959   6.324  17.330  0.00  0.00    +0.000 A 
ENDBRANCH  16  19
TORSDOF 1
ENDMDL
MODEL 8
REMARK VINA RESULT:      -7.8      4.886      6.417
REMARK  Name = 
REMARK  1 active torsions:
REMARK  status: ('A' for Active; 'I' for Inactive)
REMARK    1  A    between atoms: C_16  and  C_17
REMARK                            x       y       z     vdW  Elec       q    Type
REMARK                         _______ _______ _______ _____ _____    ______ ____
ROOT
ATOM      1  O   UNL     1       2.015   9.988  17.431  0.00  0.00    +0.000 OA
ATOM      2  C   UNL     1       1.267   9.756  18.372  0.00  0.00    +0.000 C 
ATOM      3  C   UNL     1       0.087  10.646  18.694  0.00  0.00    +0.000 C 
ATOM      4  C   UNL     1       0.472  12.132  18.884  0.00  0.00    +0.000 C 
ATOM      5  C   UNL     1      -0.750  12.894  19.382  0.00  0.00    +0.000 C 
ATOM      6  C   UNL     1      -0.979  12.503  20.645  0.00  0.00    +0.000 C 
ATOM      7  C   UNL     1       0.051  11.444  20.976  0.00  0.00    +0.000 C 
ATOM      8  C   UNL     1       1.229  12.074  20.215  0.00  0.00    +0.000 C 
ATOM      9  C   UNL     1      -0.318  10.214  20.115  0.00  0.00    +0.000 C 
ATOM     10  C   UNL     1       0.502   8.990  20.397  0.00  0.00    +0.000 C 
ATOM     11  O   UNL     1       0.368   8.365  21.442  0.00  0.00    +0.000 OA
ATOM     12  N   UNL     1       1.340   8.773  19.331  0.00  0.00    +0.000 N 
ATOM     13  C   UNL     1       2.222   7.710  19.270  0.00  0.00    +0.000 A 
ATOM     14  N   UNL     1       2.398   6.795  20.234  0.00  0.00    +0.000 NA
ATOM     15  N   UNL     1       3.319   5.983  19.708  0.00  0.00    +0.000 N 
ATOM     16  C   UNL     1       3.682   6.369  18.452  0.00  0.00    +0.000 A 
ATOM     17  N   UNL     1       2.998   7.459  18.161  0.00  0.00    +0.000 NA
ATOM     18  H   UNL     1       3.646   5.195  20.254  0.00  0.00    +0.000 HD
ENDROOT
BRANCH  16  19
ATOM     19  C   UNL     1       4.679   5.696  17.615  0.00  0.00    +0.000 A 
ATOM     20  C   UNL     1       5.986   6.185  17.447  0.00  0.00    +0.000 A 
ATOM     21  C   UNL     1       6.884   5.544  16.588  0.00  0.00    +0.000 A 
ATOM     22  C   UNL     1       6.495   4.401  15.894  0.00  0.00    +0.000 A 
ATOM     23  C   UNL     1       5.214   3.887  16.070  0.00  0.00    +0.000 A 
ATOM     24  C   UNL     1       4.315   4.529  16.925  0.00  0.00    +0.000 A 
ENDBRANCH  16  19
TORSDOF 1
ENDMDL
MODEL 9
REMARK VINA RESULT:      -7.7      3.480      7.858
REMARK  Name = 
REMARK  1 active torsions:
REMARK  status: ('A' for Active; 'I' for Inactive)
REMARK    1  A    between atoms: C_16  and  C_17
REMARK                            x       y       z     vdW  Elec       q    Type
REMARK                         _______ _______ _______ _____ _____    ______ ____
ROOT
ATOM      1  O   UNL     1       4.051   7.724  17.042  0.00  0.00    +0.000 OA
ATOM      2  C   UNL     1       4.539   6.689  17.476  0.00  0.00    +0.000 C 
ATOM      3  C   UNL     1       5.733   6.031  16.821  0.00  0.00    +0.000 C 
ATOM      4  C   UNL     1       5.526   5.740  15.317  0.00  0.00    +0.000 C 
ATOM      5  C   UNL     1       6.705   4.918  14.811  0.00  0.00    +0.000 C 
ATOM      6  C   UNL     1       6.599   3.692  15.347  0.00  0.00    +0.000 C 
ATOM      7  C   UNL     1       5.386   3.707  16.252  0.00  0.00    +0.000 C 
ATOM      8  C   UNL     1       4.499   4.604  15.374  0.00  0.00    +0.000 C 
ATOM      9  C   UNL     1       5.758   4.622  17.442  0.00  0.00    +0.000 C 
ATOM     10  C   UNL     1       4.735   4.662  18.538  0.00  0.00    +0.000 C 
ATOM     11  O   UNL     1       4.553   3.697  19.270  0.00  0.00    +0.000 OA
ATOM     12  N   UNL     1       4.125   5.893  18.519  0.00  0.00    +0.000 N 
ATOM     13  C   UNL     1       3.139   6.258  19.415  0.00  0.00    +0.000 A 
ATOM     14  N   UNL     1       2.634   5.469  20.375  0.00  0.00    +0.000 NA
ATOM     15  N   UNL     1       1.745   6.264  20.976  0.00  0.00    +0.000 N 
ATOM     16  C   UNL     1       1.719   7.510  20.423  0.00  0.00    +0.000 A 
ATOM     17  N   UNL     1       2.593   7.522  19.436  0.00  0.00    +0.000 NA
ATOM     18  H   UNL     1       1.203   5.896  21.748  0.00  0.00    +0.000 HD
ENDROOT
BRANCH  16  19
ATOM     19  C   UNL     1       0.843   8.606  20.847  0.00  0.00    +0.000 A 
ATOM     20  C   UNL     1       0.488   9.668  19.998  0.00  0.00    +0.000 A 
ATOM     21  C   UNL     1      -0.300  10.725  20.465  0.00  0.00    +0.000 A 
ATOM     22  C   UNL     1      -0.753  10.731  21.781  0.00  0.00    +0.000 A 
ATOM     23  C   UNL     1      -0.434   9.674  22.628  0.00  0.00    +0.000 A 
ATOM     24  C   UNL     1       0.356   8.620  22.163  0.00  0.00    +0.000 A 
ENDBRANCH  16  19
TORSDOF 1
ENDMDL
