MODEL 1
REMARK VINA RESULT:      -6.5      0.000      0.000
REMARK  Name = 
REMARK  3 active torsions:
REMARK  status: ('A' for Active; 'I' for Inactive)
REMARK    1  A    between atoms: C_1  and  C_2
REMARK    2  A    between atoms: C_2  and  C_3
REMARK    3  A    between atoms: C_2  and  N_4
REMARK                            x       y       z     vdW  Elec       q    Type
REMARK                         _______ _______ _______ _____ _____    ______ ____
ROOT
ATOM      1  N   UNL     1       3.089   3.689  19.000  0.00  0.00    +0.000 N 
ATOM      2  C   UNL     1       2.862   4.774  18.195  0.00  0.00    +0.000 C 
ATOM      3  O   UNL     1       1.812   5.248  17.806  0.00  0.00    +0.000 OA
ATOM      4  C   UNL     1       4.168   5.351  17.888  0.00  0.00    +0.000 A 
ATOM      5  C   UNL     1       4.501   6.482  17.167  0.00  0.00    +0.000 A 
ATOM      6  C   UNL     1       5.856   6.822  17.103  0.00  0.00    +0.000 A 
ATOM      7  C   UNL     1       6.832   6.036  17.747  0.00  0.00    +0.000 A 
ATOM      8  C   UNL     1       6.469   4.895  18.472  0.00  0.00    +0.000 A 
ATOM      9  C   UNL     1       5.124   4.583  18.524  0.00  0.00    +0.000 A 
ATOM     10  C   UNL     1       4.428   3.521  19.245  0.00  0.00    +0.000 C 
ATOM     11  O   UNL     1       4.988   2.696  19.941  0.00  0.00    +0.000 OA
ENDROOT
BRANCH   1  13
ATOM     12  C   UNL     1       1.357   3.763  20.749  0.00  0.00    +0.000 C 
ATOM     13  C   UNL     1       2.051   2.915  19.680  0.00  0.00    +0.000 C 
ATOM     14  C   UNL     1       1.036   2.319  18.708  0.00  0.00    +0.000 C 
ENDBRANCH   1  13
TORSDOF 1
ENDMDL
MODEL 2
REMARK VINA RESULT:      -6.5      1.563      2.462
REMARK  Name = 
REMARK  3 active torsions:
REMARK  status: ('A' for Active; 'I' for Inactive)
REMARK    1  A    between atoms: C_1  and  C_2
REMARK    2  A    between atoms: C_2  and  C_3
REMARK    3  A    between atoms: C_2  and  N_4
REMARK                            x       y       z     vdW  Elec       q    Type
REMARK                         _______ _______ _______ _____ _____    ______ ____
ROOT
ATOM      1  N   UNL     1       2.808   4.205  19.287  0.00  0.00    +0.000 N 
ATOM      2  C   UNL     1       3.453   3.437  18.353  0.00  0.00    +0.000 C 
ATOM      3  O   UNL     1       3.458   2.230  18.206  0.00  0.00    +0.000 OA
ATOM      4  C   UNL     1       4.149   4.360  17.459  0.00  0.00    +0.000 A 
ATOM      5  C   UNL     1       4.896   4.114  16.323  0.00  0.00    +0.000 A 
ATOM      6  C   UNL     1       5.387   5.224  15.629  0.00  0.00    +0.000 A 
ATOM      7  C   UNL     1       5.129   6.534  16.081  0.00  0.00    +0.000 A 
ATOM      8  C   UNL     1       4.368   6.757  17.235  0.00  0.00    +0.000 A 
ATOM      9  C   UNL     1       3.890   5.643  17.899  0.00  0.00    +0.000 A 
ATOM     10  C   UNL     1       3.022   5.541  19.069  0.00  0.00    +0.000 C 
ATOM     11  O   UNL     1       2.579   6.502  19.668  0.00  0.00    +0.000 OA
ENDROOT
BRANCH   1  13
ATOM     12  C   UNL     1       0.715   2.943  19.590  0.00  0.00    +0.000 C 
ATOM     13  C   UNL     1       1.855   3.701  20.275  0.00  0.00    +0.000 C 
ATOM     14  C   UNL     1       2.523   2.839  21.344  0.00  0.00    +0.000 C 
ENDBRANCH   1  13
TORSDOF 1
ENDMDL
MODEL 3
REMARK VINA RESULT:      -6.4      1.609      2.265
REMARK  Name = 
REMARK  3 active torsions:
REMARK  status: ('A' for Active; 'I' for Inactive)
REMARK    1  A    between atoms: C_1  and  C_2
REMARK    2  A    between atoms: C_2  and  C_3
REMARK    3  A    between atoms: C_2  and  N_4
REMARK                            x       y       z     vdW  Elec       q    Type
REMARK                         _______ _______ _______ _____ _____    ______ ____
ROOT
ATOM      1  N   UNL     1       2.964   3.509  19.152  0.00  0.00    +0.000 N 
ATOM      2  C   UNL     1       3.635   2.971  18.084  0.00  0.00    +0.000 C 
ATOM      3  O   UNL     1       3.723   1.813  17.723  0.00  0.00    +0.000 OA
ATOM      4  C   UNL     1       4.236   4.088  17.360  0.00  0.00    +0.000 A 
ATOM      5  C   UNL     1       4.965   4.106  16.186  0.00  0.00    +0.000 A 
ATOM      6  C   UNL     1       5.354   5.356  15.695  0.00  0.00    +0.000 A 
ATOM      7  C   UNL     1       5.015   6.541  16.379  0.00  0.00    +0.000 A 
ATOM      8  C   UNL     1       4.276   6.496  17.567  0.00  0.00    +0.000 A 
ATOM      9  C   UNL     1       3.899   5.250  18.028  0.00  0.00    +0.000 A 
ATOM     10  C   UNL     1       3.075   4.875  19.174  0.00  0.00    +0.000 C 
ATOM     11  O   UNL     1       2.582   5.678  19.943  0.00  0.00    +0.000 OA
ENDROOT
BRANCH   1  13
ATOM     12  C   UNL     1       2.545   2.901  21.501  0.00  0.00    +0.000 C 
ATOM     13  C   UNL     1       2.080   2.766  20.049  0.00  0.00    +0.000 C 
ATOM     14  C   UNL     1       0.617   3.179  19.901  0.00  0.00    +0.000 C 
ENDBRANCH   1  13
TORSDOF 1
ENDMDL
MODEL 4
REMARK VINA RESULT:      -6.3      1.635      1.726
REMARK  Name = 
REMARK  3 active torsions:
REMARK  status: ('A' for Active; 'I' for Inactive)
REMARK    1  A    between atoms: C_1  and  C_2
REMARK    2  A    between atoms: C_2  and  C_3
REMARK    3  A    between atoms: C_2  and  N_4
REMARK                            x       y       z     vdW  Elec       q    Type
REMARK                         _______ _______ _______ _____ _____    ______ ____
ROOT
ATOM      1  N   UNL     1       2.725   3.595  18.904  0.00  0.00    +0.000 N 
ATOM      2  C   UNL     1       2.825   4.962  18.900  0.00  0.00    +0.000 C 
ATOM      3  O   UNL     1       2.341   5.780  19.658  0.00  0.00    +0.000 OA
ATOM      4  C   UNL     1       3.710   5.316  17.793  0.00  0.00    +0.000 A 
ATOM      5  C   UNL     1       4.186   6.547  17.385  0.00  0.00    +0.000 A 
ATOM      6  C   UNL     1       5.087   6.561  16.316  0.00  0.00    +0.000 A 
ATOM      7  C   UNL     1       5.482   5.363  15.685  0.00  0.00    +0.000 A 
ATOM      8  C   UNL     1       4.985   4.128  16.117  0.00  0.00    +0.000 A 
ATOM      9  C   UNL     1       4.101   4.141  17.179  0.00  0.00    +0.000 A 
ATOM     10  C   UNL     1       3.473   3.037  17.899  0.00  0.00    +0.000 C 
ATOM     11  O   UNL     1       3.652   1.865  17.629  0.00  0.00    +0.000 OA
ENDROOT
BRANCH   1  13
ATOM     12  C   UNL     1       2.882   2.845  21.244  0.00  0.00    +0.000 C 
ATOM     13  C   UNL     1       2.072   2.803  19.945  0.00  0.00    +0.000 C 
ATOM     14  C   UNL     1       0.627   3.232  20.186  0.00  0.00    +0.000 C 
ENDBRANCH   1  13
TORSDOF 1
ENDMDL
MODEL 5
REMARK VINA RESULT:      -6.3      0.231      2.349
REMARK  Name = 
REMARK  3 active torsions:
REMARK  status: ('A' for Active; 'I' for Inactive)
REMARK    1  A    between atoms: C_1  and  C_2
REMARK    2  A    between atoms: C_2  and  C_3
REMARK    3  A    between atoms: C_2  and  N_4
REMARK                            x       y       z     vdW  Elec       q    Type
REMARK                         _______ _______ _______ _____ _____    ______ ____
ROOT
ATOM      1  N   UNL     1       3.157   3.843  19.172  0.00  0.00    +0.000 N 
ATOM      2  C   UNL     1       4.498   3.597  19.312  0.00  0.00    +0.000 C 
ATOM      3  O   UNL     1       5.068   2.717  19.928  0.00  0.00    +0.000 OA
ATOM      4  C   UNL     1       5.195   4.599  18.509  0.00  0.00    +0.000 A 
ATOM      5  C   UNL     1       6.543   4.766  18.258  0.00  0.00    +0.000 A 
ATOM      6  C   UNL     1       6.907   5.792  17.380  0.00  0.00    +0.000 A 
ATOM      7  C   UNL     1       5.932   6.617  16.786  0.00  0.00    +0.000 A 
ATOM      8  C   UNL     1       4.571   6.428  17.057  0.00  0.00    +0.000 A 
ATOM      9  C   UNL     1       4.238   5.405  17.923  0.00  0.00    +0.000 A 
ATOM     10  C   UNL     1       2.930   4.912  18.344  0.00  0.00    +0.000 C 
ATOM     11  O   UNL     1       1.875   5.384  17.965  0.00  0.00    +0.000 OA
ENDROOT
BRANCH   1  13
ATOM     12  C   UNL     1       1.194   3.736  20.655  0.00  0.00    +0.000 C 
ATOM     13  C   UNL     1       2.088   2.978  19.670  0.00  0.00    +0.000 C 
ATOM     14  C   UNL     1       1.263   2.361  18.543  0.00  0.00    +0.000 C 
ENDBRANCH   1  13
TORSDOF 1
ENDMDL
MODEL 6
REMARK VINA RESULT:      -6.3      1.630      1.862
REMARK  Name = 
REMARK  3 active torsions:
REMARK  status: ('A' for Active; 'I' for Inactive)
REMARK    1  A    between atoms: C_1  and  C_2
REMARK    2  A    between atoms: C_2  and  C_3
REMARK    3  A    between atoms: C_2  and  N_4
REMARK                            x       y       z     vdW  Elec       q    Type
REMARK                         _______ _______ _______ _____ _____    ______ ____
ROOT
ATOM      1  N   UNL     1       2.619   4.243  19.017  0.00  0.00    +0.000 N 
ATOM      2  C   UNL     1       2.885   5.577  18.851  0.00  0.00    +0.000 C 
ATOM      3  O   UNL     1       2.518   6.531  19.510  0.00  0.00    +0.000 OA
ATOM      4  C   UNL     1       3.782   5.688  17.704  0.00  0.00    +0.000 A 
ATOM      5  C   UNL     1       4.396   6.795  17.150  0.00  0.00    +0.000 A 
ATOM      6  C   UNL     1       5.269   6.573  16.081  0.00  0.00    +0.000 A 
ATOM      7  C   UNL     1       5.503   5.272  15.594  0.00  0.00    +0.000 A 
ATOM      8  C   UNL     1       4.869   4.166  16.173  0.00  0.00    +0.000 A 
ATOM      9  C   UNL     1       4.015   4.411  17.231  0.00  0.00    +0.000 A 
ATOM     10  C   UNL     1       3.273   3.484  18.081  0.00  0.00    +0.000 C 
ATOM     11  O   UNL     1       3.303   2.275  17.950  0.00  0.00    +0.000 OA
ENDROOT
BRANCH   1  13
ATOM     12  C   UNL     1       0.690   2.857  19.666  0.00  0.00    +0.000 C 
ATOM     13  C   UNL     1       1.897   3.664  20.149  0.00  0.00    +0.000 C 
ATOM     14  C   UNL     1       2.798   2.819  21.046  0.00  0.00    +0.000 C 
ENDBRANCH   1  13
TORSDOF 1
ENDMDL
MODEL 7
REMARK VINA RESULT:      -6.2      1.729      4.799
REMARK  Name = 
REMARK  3 active torsions:
REMARK  status: ('A' for Active; 'I' for Inactive)
REMARK    1  A    between atoms: C_1  and  C_2
REMARK    2  A    between atoms: C_2  and  C_3
REMARK    3  A    between atoms: C_2  and  N_4
REMARK                            x       y       z     vdW  Elec       q    Type
REMARK                         _______ _______ _______ _____ _____    ______ ____
ROOT
ATOM      1  N   UNL     1       3.916   5.595  17.628  0.00  0.00    +0.000 N 
ATOM      2  C   UNL     1       3.864   4.281  17.241  0.00  0.00    +0.000 C 
ATOM      3  O   UNL     1       4.551   3.678  16.439  0.00  0.00    +0.000 OA
ATOM      4  C   UNL     1       2.810   3.652  18.032  0.00  0.00    +0.000 A 
ATOM      5  C   UNL     1       2.387   2.337  18.076  0.00  0.00    +0.000 A 
ATOM      6  C   UNL     1       1.385   2.019  18.998  0.00  0.00    +0.000 A 
ATOM      7  C   UNL     1       0.834   3.007  19.839  0.00  0.00    +0.000 A 
ATOM      8  C   UNL     1       1.280   4.332  19.776  0.00  0.00    +0.000 A 
ATOM      9  C   UNL     1       2.274   4.619  18.860  0.00  0.00    +0.000 A 
ATOM     10  C   UNL     1       2.992   5.864  18.604  0.00  0.00    +0.000 C 
ATOM     11  O   UNL     1       2.784   6.901  19.205  0.00  0.00    +0.000 OA
ENDROOT
BRANCH   1  13
ATOM     12  C   UNL     1       6.294   6.200  17.833  0.00  0.00    +0.000 C 
ATOM     13  C   UNL     1       4.940   6.553  17.213  0.00  0.00    +0.000 C 
ATOM     14  C   UNL     1       5.046   6.673  15.695  0.00  0.00    +0.000 C 
ENDBRANCH   1  13
TORSDOF 1
ENDMDL
MODEL 8
REMARK VINA RESULT:      -6.2      0.632      2.577
REMARK  Name = 
REMARK  3 active torsions:
REMARK  status: ('A' for Active; 'I' for Inactive)
REMARK    1  A    between atoms: C_1  and  C_2
REMARK    2  A    between atoms: C_2  and  C_3
REMARK    3  A    between atoms: C_2  and  N_4
REMARK                            x       y       z     vdW  Elec       q    Type
REMARK                         _______ _______ _______ _____ _____    ______ ____
ROOT
ATOM      1  N   UNL     1       3.266   4.204  19.224  0.00  0.00    +0.000 N 
ATOM      2  C   UNL     1       4.563   3.769  19.314  0.00  0.00    +0.000 C 
ATOM      3  O   UNL     1       5.013   2.764  19.828  0.00  0.00    +0.000 OA
ATOM      4  C   UNL     1       5.383   4.746  18.602  0.00  0.00    +0.000 A 
ATOM      5  C   UNL     1       6.741   4.757  18.344  0.00  0.00    +0.000 A 
ATOM      6  C   UNL     1       7.234   5.809  17.566  0.00  0.00    +0.000 A 
ATOM      7  C   UNL     1       6.374   6.812  17.075  0.00  0.00    +0.000 A 
ATOM      8  C   UNL     1       5.002   6.779  17.350  0.00  0.00    +0.000 A 
ATOM      9  C   UNL     1       4.539   5.726  18.116  0.00  0.00    +0.000 A 
ATOM     10  C   UNL     1       3.179   5.371  18.511  0.00  0.00    +0.000 C 
ATOM     11  O   UNL     1       2.195   6.015  18.200  0.00  0.00    +0.000 OA
ENDROOT
BRANCH   1  13
ATOM     12  C   UNL     1       1.987   2.129  18.875  0.00  0.00    +0.000 C 
ATOM     13  C   UNL     1       2.093   3.443  19.653  0.00  0.00    +0.000 C 
ATOM     14  C   UNL     1       2.080   3.191  21.159  0.00  0.00    +0.000 C 
ENDBRANCH   1  13
TORSDOF 1
ENDMDL
MODEL 9
REMARK VINA RESULT:      -6.2      1.981      2.159
REMARK  Name = 
REMARK  3 active torsions:
REMARK  status: ('A' for Active; 'I' for Inactive)
REMARK    1  A    between atoms: C_1  and  C_2
REMARK    2  A    between atoms: C_2  and  C_3
REMARK    3  A    between atoms: C_2  and  N_4
REMARK                            x       y       z     vdW  Elec       q    Type
REMARK                         _______ _______ _______ _____ _____    ______ ____
ROOT
ATOM      1  N   UNL     1       4.211   4.122  18.780  0.00  0.00    +0.000 N 
ATOM      2  C   UNL     1       3.821   3.850  17.494  0.00  0.00    +0.000 C 
ATOM      3  O   UNL     1       2.742   3.484  17.069  0.00  0.00    +0.000 OA
ATOM      4  C   UNL     1       4.969   4.135  16.638  0.00  0.00    +0.000 A 
ATOM      5  C   UNL     1       5.095   4.084  15.263  0.00  0.00    +0.000 A 
ATOM      6  C   UNL     1       6.319   4.487  14.719  0.00  0.00    +0.000 A 
ATOM      7  C   UNL     1       7.373   4.920  15.548  0.00  0.00    +0.000 A 
ATOM      8  C   UNL     1       7.221   4.963  16.938  0.00  0.00    +0.000 A 
ATOM      9  C   UNL     1       6.001   4.565  17.451  0.00  0.00    +0.000 A 
ATOM     10  C   UNL     1       5.508   4.563  18.825  0.00  0.00    +0.000 C 
ATOM     11  O   UNL     1       6.166   4.930  19.780  0.00  0.00    +0.000 OA
ENDROOT
BRANCH   1  13
ATOM     12  C   UNL     1       2.273   5.239  19.809  0.00  0.00    +0.000 C 
ATOM     13  C   UNL     1       3.323   4.134  19.942  0.00  0.00    +0.000 C 
ATOM     14  C   UNL     1       2.666   2.779  20.190  0.00  0.00    +0.000 C 
ENDBRANCH   1  13
TORSDOF 1
ENDMDL
