MODEL 1
REMARK VINA RESULT:      -9.9      0.000      0.000
REMARK  Name = 
REMARK  7 active torsions:
REMARK  status: ('A' for Active; 'I' for Inactive)
REMARK    1  A    between atoms: C_1  and  C_2
REMARK    2  A    between atoms: C_2  and  C_3
REMARK    3  A    between atoms: C_7  and  C_8
REMARK    4  A    between atoms: C_11  and  O_12
REMARK    5  A    between atoms: O_12  and  C_13
REMARK    6  A    between atoms: C_13  and  C_14
REMARK    7  A    between atoms: C_26  and  C_27
REMARK                            x       y       z     vdW  Elec       q    Type
REMARK                         _______ _______ _______ _____ _____    ______ ____
ROOT
ATOM      1  C   UNL     1       2.388   6.051  19.194  0.00  0.00    +0.000 A 
ATOM      2  C   UNL     1       1.991   6.807  20.307  0.00  0.00    +0.000 A 
ATOM      3  C   UNL     1       1.699   8.187  20.195  0.00  0.00    +0.000 A 
ATOM      4  C   UNL     1       1.782   8.840  18.966  0.00  0.00    +0.000 A 
ATOM      5  C   UNL     1       2.178   8.086  17.854  0.00  0.00    +0.000 A 
ATOM      6  C   UNL     1       2.482   6.714  17.964  0.00  0.00    +0.000 A 
ENDROOT
BRANCH   1  13
ATOM      7  C   UNL     1       3.712   1.529  18.080  0.00  0.00    +0.000 C 
ATOM      8  C   UNL     1       3.652   2.469  19.289  0.00  0.00    +0.000 C 
ATOM      9  C   UNL     1       4.651   2.002  20.353  0.00  0.00    +0.000 C 
ATOM     10  O   UNL     1       2.335   2.376  19.855  0.00  0.00    +0.000 OA
ATOM     11  C   UNL     1       1.747   3.609  19.874  0.00  0.00    +0.000 C 
ATOM     12  O   UNL     1       0.625   3.823  20.295  0.00  0.00    +0.000 OA
ATOM     13  C   UNL     1       2.663   4.612  19.299  0.00  0.00    +0.000 C 
ATOM     14  C   UNL     1       3.758   3.929  18.960  0.00  0.00    +0.000 C 
BRANCH  14  15
ATOM     15  C   UNL     1       4.975   4.502  18.384  0.00  0.00    +0.000 A 
ATOM     16  C   UNL     1       5.887   5.162  19.208  0.00  0.00    +0.000 A 
ATOM     17  C   UNL     1       7.019   5.706  18.629  0.00  0.00    +0.000 A 
ATOM     18  N   UNL     1       7.293   5.637  17.310  0.00  0.00    +0.000 NA
ATOM     19  C   UNL     1       6.386   5.001  16.533  0.00  0.00    +0.000 A 
ATOM     20  C   UNL     1       5.224   4.427  17.016  0.00  0.00    +0.000 A 
ENDBRANCH  14  15
ENDBRANCH   1  13
BRANCH   4  21
ATOM     21  O   UNL     1       1.481  10.160  18.714  0.00  0.00    +0.000 OA
BRANCH  21  22
ATOM     22  C   UNL     1       0.479  10.794  19.532  0.00  0.00    +0.000 C 
BRANCH  22  23
ATOM     23  C   UNL     1      -0.902  10.841  18.864  0.00  0.00    +0.000 A 
ATOM     24  C   UNL     1      -1.101  10.165  17.667  0.00  0.00    +0.000 A 
ATOM     25  C   UNL     1      -2.302  10.334  16.983  0.00  0.00    +0.000 A 
ATOM     26  C   UNL     1      -3.335  11.077  17.554  0.00  0.00    +0.000 A 
ATOM     27  C   UNL     1      -4.598  11.144  16.933  0.00  0.00    +0.000 A 
ATOM     28  C   UNL     1      -5.669  11.752  17.578  0.00  0.00    +0.000 A 
ATOM     29  C   UNL     1      -5.461  12.356  18.812  0.00  0.00    +0.000 A 
ATOM     30  C   UNL     1      -4.179  12.353  19.388  0.00  0.00    +0.000 A 
ATOM     31  C   UNL     1      -3.096  11.696  18.797  0.00  0.00    +0.000 A 
ATOM     32  N   UNL     1      -1.884  11.621  19.413  0.00  0.00    +0.000 NA
ENDBRANCH  22  23
ENDBRANCH  21  22
ENDBRANCH   4  21
TORSDOF 5
ENDMDL
MODEL 2
REMARK VINA RESULT:      -9.7      0.639      1.332
REMARK  Name = 
REMARK  7 active torsions:
REMARK  status: ('A' for Active; 'I' for Inactive)
REMARK    1  A    between atoms: C_1  and  C_2
REMARK    2  A    between atoms: C_2  and  C_3
REMARK    3  A    between atoms: C_7  and  C_8
REMARK    4  A    between atoms: C_11  and  O_12
REMARK    5  A    between atoms: O_12  and  C_13
REMARK    6  A    between atoms: C_13  and  C_14
REMARK    7  A    between atoms: C_26  and  C_27
REMARK                            x       y       z     vdW  Elec       q    Type
REMARK                         _______ _______ _______ _____ _____    ______ ____
ROOT
ATOM      1  C   UNL     1       2.456   6.053  19.166  0.00  0.00    +0.000 A 
ATOM      2  C   UNL     1       2.037   6.827  20.258  0.00  0.00    +0.000 A 
ATOM      3  C   UNL     1       1.778   8.212  20.125  0.00  0.00    +0.000 A 
ATOM      4  C   UNL     1       1.917   8.852  18.894  0.00  0.00    +0.000 A 
ATOM      5  C   UNL     1       2.335   8.080  17.802  0.00  0.00    +0.000 A 
ATOM      6  C   UNL     1       2.606   6.702  17.934  0.00  0.00    +0.000 A 
ENDROOT
BRANCH   1  13
ATOM      7  C   UNL     1       3.684   1.487  18.123  0.00  0.00    +0.000 C 
ATOM      8  C   UNL     1       3.636   2.444  19.319  0.00  0.00    +0.000 C 
ATOM      9  C   UNL     1       4.616   1.969  20.398  0.00  0.00    +0.000 C 
ATOM     10  O   UNL     1       2.313   2.389  19.876  0.00  0.00    +0.000 OA
ATOM     11  C   UNL     1       1.753   3.636  19.873  0.00  0.00    +0.000 C 
ATOM     12  O   UNL     1       0.633   3.881  20.283  0.00  0.00    +0.000 OA
ATOM     13  C   UNL     1       2.696   4.610  19.292  0.00  0.00    +0.000 C 
ATOM     14  C   UNL     1       3.778   3.897  18.972  0.00  0.00    +0.000 C 
BRANCH  14  15
ATOM     15  C   UNL     1       5.013   4.434  18.398  0.00  0.00    +0.000 A 
ATOM     16  C   UNL     1       5.910   5.128  19.210  0.00  0.00    +0.000 A 
ATOM     17  C   UNL     1       7.059   5.637  18.633  0.00  0.00    +0.000 A 
ATOM     18  N   UNL     1       7.364   5.501  17.327  0.00  0.00    +0.000 NA
ATOM     19  C   UNL     1       6.471   4.833  16.559  0.00  0.00    +0.000 A 
ATOM     20  C   UNL     1       5.293   4.290  17.042  0.00  0.00    +0.000 A 
ENDBRANCH  14  15
ENDBRANCH   1  13
BRANCH   4  21
ATOM     21  O   UNL     1       1.653  10.176  18.621  0.00  0.00    +0.000 OA
BRANCH  21  22
ATOM     22  C   UNL     1       0.932  10.940  19.606  0.00  0.00    +0.000 C 
BRANCH  22  23
ATOM     23  C   UNL     1      -0.513  11.248  19.189  0.00  0.00    +0.000 A 
ATOM     24  C   UNL     1      -1.321  11.994  20.036  0.00  0.00    +0.000 A 
ATOM     25  C   UNL     1      -2.672  12.141  19.733  0.00  0.00    +0.000 A 
ATOM     26  C   UNL     1      -3.178  11.646  18.531  0.00  0.00    +0.000 A 
ATOM     27  C   UNL     1      -4.510  11.904  18.153  0.00  0.00    +0.000 A 
ATOM     28  C   UNL     1      -4.967  11.547  16.890  0.00  0.00    +0.000 A 
ATOM     29  C   UNL     1      -4.113  10.866  16.030  0.00  0.00    +0.000 A 
ATOM     30  C   UNL     1      -2.810  10.543  16.445  0.00  0.00    +0.000 A 
ATOM     31  C   UNL     1      -2.299  10.943  17.683  0.00  0.00    +0.000 A 
ATOM     32  N   UNL     1      -1.004  10.706  18.032  0.00  0.00    +0.000 NA
ENDBRANCH  22  23
ENDBRANCH  21  22
ENDBRANCH   4  21
TORSDOF 5
ENDMDL
MODEL 3
REMARK VINA RESULT:      -9.7      0.126      1.193
REMARK  Name = 
REMARK  7 active torsions:
REMARK  status: ('A' for Active; 'I' for Inactive)
REMARK    1  A    between atoms: C_1  and  C_2
REMARK    2  A    between atoms: C_2  and  C_3
REMARK    3  A    between atoms: C_7  and  C_8
REMARK    4  A    between atoms: C_11  and  O_12
REMARK    5  A    between atoms: O_12  and  C_13
REMARK    6  A    between atoms: C_13  and  C_14
REMARK    7  A    between atoms: C_26  and  C_27
REMARK                            x       y       z     vdW  Elec       q    Type
REMARK                         _______ _______ _______ _____ _____    ______ ____
ROOT
ATOM      1  C   UNL     1       2.334   5.997  19.147  0.00  0.00    +0.000 A 
ATOM      2  C   UNL     1       2.443   6.655  17.913  0.00  0.00    +0.000 A 
ATOM      3  C   UNL     1       2.177   8.039  17.789  0.00  0.00    +0.000 A 
ATOM      4  C   UNL     1       1.811   8.801  18.899  0.00  0.00    +0.000 A 
ATOM      5  C   UNL     1       1.701   8.144  20.132  0.00  0.00    +0.000 A 
ATOM      6  C   UNL     1       1.953   6.762  20.256  0.00  0.00    +0.000 A 
ENDROOT
BRANCH   1  13
ATOM      7  C   UNL     1       3.769   1.482  18.146  0.00  0.00    +0.000 C 
ATOM      8  C   UNL     1       3.674   2.446  19.333  0.00  0.00    +0.000 C 
ATOM      9  C   UNL     1       4.671   2.024  20.419  0.00  0.00    +0.000 C 
ATOM     10  O   UNL     1       2.354   2.336  19.887  0.00  0.00    +0.000 OA
ATOM     11  C   UNL     1       1.738   3.556  19.872  0.00  0.00    +0.000 C 
ATOM     12  O   UNL     1       0.607   3.754  20.277  0.00  0.00    +0.000 OA
ATOM     13  C   UNL     1       2.638   4.567  19.286  0.00  0.00    +0.000 C 
ATOM     14  C   UNL     1       3.752   3.901  18.974  0.00  0.00    +0.000 C 
BRANCH  14  15
ATOM     15  C   UNL     1       4.963   4.488  18.400  0.00  0.00    +0.000 A 
ATOM     16  C   UNL     1       5.226   4.341  17.038  0.00  0.00    +0.000 A 
ATOM     17  C   UNL     1       6.388   4.893  16.531  0.00  0.00    +0.000 A 
ATOM     18  N   UNL     1       7.285   5.568  17.278  0.00  0.00    +0.000 NA
ATOM     19  C   UNL     1       7.011   5.687  18.598  0.00  0.00    +0.000 A 
ATOM     20  C   UNL     1       5.878   5.168  19.201  0.00  0.00    +0.000 A 
ENDBRANCH  14  15
ENDBRANCH   1  13
BRANCH   4  21
ATOM     21  O   UNL     1       1.571  10.157  18.923  0.00  0.00    +0.000 OA
BRANCH  21  22
ATOM     22  C   UNL     1       0.491  10.640  19.744  0.00  0.00    +0.000 C 
BRANCH  22  23
ATOM     23  C   UNL     1      -0.841  10.737  18.990  0.00  0.00    +0.000 A 
ATOM     24  C   UNL     1      -0.976  10.100  17.763  0.00  0.00    +0.000 A 
ATOM     25  C   UNL     1      -2.126  10.316  17.008  0.00  0.00    +0.000 A 
ATOM     26  C   UNL     1      -3.179  11.066  17.533  0.00  0.00    +0.000 A 
ATOM     27  C   UNL     1      -4.397  11.179  16.834  0.00  0.00    +0.000 A 
ATOM     28  C   UNL     1      -5.495  11.793  17.427  0.00  0.00    +0.000 A 
ATOM     29  C   UNL     1      -5.354  12.357  18.689  0.00  0.00    +0.000 A 
ATOM     30  C   UNL     1      -4.113  12.308  19.345  0.00  0.00    +0.000 A 
ATOM     31  C   UNL     1      -3.008  11.644  18.807  0.00  0.00    +0.000 A 
ATOM     32  N   UNL     1      -1.840  11.523  19.497  0.00  0.00    +0.000 NA
ENDBRANCH  22  23
ENDBRANCH  21  22
ENDBRANCH   4  21
TORSDOF 5
ENDMDL
MODEL 4
REMARK VINA RESULT:      -9.7      0.667      1.806
REMARK  Name = 
REMARK  7 active torsions:
REMARK  status: ('A' for Active; 'I' for Inactive)
REMARK    1  A    between atoms: C_1  and  C_2
REMARK    2  A    between atoms: C_2  and  C_3
REMARK    3  A    between atoms: C_7  and  C_8
REMARK    4  A    between atoms: C_11  and  O_12
REMARK    5  A    between atoms: O_12  and  C_13
REMARK    6  A    between atoms: C_13  and  C_14
REMARK    7  A    between atoms: C_26  and  C_27
REMARK                            x       y       z     vdW  Elec       q    Type
REMARK                         _______ _______ _______ _____ _____    ______ ____
ROOT
ATOM      1  C   UNL     1       2.391   6.030  19.078  0.00  0.00    +0.000 A 
ATOM      2  C   UNL     1       2.557   6.678  17.844  0.00  0.00    +0.000 A 
ATOM      3  C   UNL     1       2.328   8.066  17.704  0.00  0.00    +0.000 A 
ATOM      4  C   UNL     1       1.943   8.844  18.796  0.00  0.00    +0.000 A 
ATOM      5  C   UNL     1       1.777   8.198  20.028  0.00  0.00    +0.000 A 
ATOM      6  C   UNL     1       1.992   6.812  20.169  0.00  0.00    +0.000 A 
ENDROOT
BRANCH   1  13
ATOM      7  C   UNL     1       3.713   1.467  18.138  0.00  0.00    +0.000 C 
ATOM      8  C   UNL     1       3.637   2.448  19.314  0.00  0.00    +0.000 C 
ATOM      9  C   UNL     1       4.617   2.013  20.410  0.00  0.00    +0.000 C 
ATOM     10  O   UNL     1       2.311   2.379  19.861  0.00  0.00    +0.000 OA
ATOM     11  C   UNL     1       1.728   3.615  19.828  0.00  0.00    +0.000 C 
ATOM     12  O   UNL     1       0.600   3.847  20.224  0.00  0.00    +0.000 OA
ATOM     13  C   UNL     1       2.658   4.594  19.235  0.00  0.00    +0.000 C 
ATOM     14  C   UNL     1       3.755   3.896  18.938  0.00  0.00    +0.000 C 
BRANCH  14  15
ATOM     15  C   UNL     1       4.984   4.444  18.364  0.00  0.00    +0.000 A 
ATOM     16  C   UNL     1       5.263   4.253  17.011  0.00  0.00    +0.000 A 
ATOM     17  C   UNL     1       6.441   4.769  16.504  0.00  0.00    +0.000 A 
ATOM     18  N   UNL     1       7.340   5.449  17.244  0.00  0.00    +0.000 NA
ATOM     19  C   UNL     1       7.051   5.610  18.556  0.00  0.00    +0.000 A 
ATOM     20  C   UNL     1       5.901   5.130  19.158  0.00  0.00    +0.000 A 
ENDBRANCH  14  15
ENDBRANCH   1  13
BRANCH   4  21
ATOM     21  O   UNL     1       1.735  10.205  18.804  0.00  0.00    +0.000 OA
BRANCH  21  22
ATOM     22  C   UNL     1       0.873  10.753  19.819  0.00  0.00    +0.000 C 
BRANCH  22  23
ATOM     23  C   UNL     1      -0.527  11.101  19.296  0.00  0.00    +0.000 A 
ATOM     24  C   UNL     1      -1.357  11.911  20.061  0.00  0.00    +0.000 A 
ATOM     25  C   UNL     1      -2.678  12.099  19.663  0.00  0.00    +0.000 A 
ATOM     26  C   UNL     1      -3.124  11.579  18.448  0.00  0.00    +0.000 A 
ATOM     27  C   UNL     1      -4.417  11.876  17.973  0.00  0.00    +0.000 A 
ATOM     28  C   UNL     1      -4.805  11.489  16.695  0.00  0.00    +0.000 A 
ATOM     29  C   UNL     1      -3.926  10.743  15.919  0.00  0.00    +0.000 A 
ATOM     30  C   UNL     1      -2.668  10.384  16.432  0.00  0.00    +0.000 A 
ATOM     31  C   UNL     1      -2.222  10.811  17.686  0.00  0.00    +0.000 A 
ATOM     32  N   UNL     1      -0.964  10.535  18.129  0.00  0.00    +0.000 NA
ENDBRANCH  22  23
ENDBRANCH  21  22
ENDBRANCH   4  21
TORSDOF 5
ENDMDL
MODEL 5
REMARK VINA RESULT:      -9.2      1.496      2.328
REMARK  Name = 
REMARK  7 active torsions:
REMARK  status: ('A' for Active; 'I' for Inactive)
REMARK    1  A    between atoms: C_1  and  C_2
REMARK    2  A    between atoms: C_2  and  C_3
REMARK    3  A    between atoms: C_7  and  C_8
REMARK    4  A    between atoms: C_11  and  O_12
REMARK    5  A    between atoms: O_12  and  C_13
REMARK    6  A    between atoms: C_13  and  C_14
REMARK    7  A    between atoms: C_26  and  C_27
REMARK                            x       y       z     vdW  Elec       q    Type
REMARK                         _______ _______ _______ _____ _____    ______ ____
ROOT
ATOM      1  C   UNL     1       2.384   6.021  19.254  0.00  0.00    +0.000 A 
ATOM      2  C   UNL     1       1.999   6.752  20.388  0.00  0.00    +0.000 A 
ATOM      3  C   UNL     1       1.704   8.133  20.310  0.00  0.00    +0.000 A 
ATOM      4  C   UNL     1       1.772   8.814  19.095  0.00  0.00    +0.000 A 
ATOM      5  C   UNL     1       2.157   8.085  17.962  0.00  0.00    +0.000 A 
ATOM      6  C   UNL     1       2.463   6.711  18.038  0.00  0.00    +0.000 A 
ENDROOT
BRANCH   1  13
ATOM      7  C   UNL     1       3.730   1.532  18.034  0.00  0.00    +0.000 C 
ATOM      8  C   UNL     1       3.656   2.440  19.267  0.00  0.00    +0.000 C 
ATOM      9  C   UNL     1       4.647   1.948  20.328  0.00  0.00    +0.000 C 
ATOM     10  O   UNL     1       2.334   2.329  19.818  0.00  0.00    +0.000 OA
ATOM     11  C   UNL     1       1.743   3.561  19.863  0.00  0.00    +0.000 C 
ATOM     12  O   UNL     1       0.616   3.761  20.280  0.00  0.00    +0.000 OA
ATOM     13  C   UNL     1       2.661   4.580  19.323  0.00  0.00    +0.000 C 
ATOM     14  C   UNL     1       3.761   3.909  18.977  0.00  0.00    +0.000 C 
BRANCH  14  15
ATOM     15  C   UNL     1       4.982   4.499  18.428  0.00  0.00    +0.000 A 
ATOM     16  C   UNL     1       5.255   4.385  17.065  0.00  0.00    +0.000 A 
ATOM     17  C   UNL     1       6.427   4.939  16.582  0.00  0.00    +0.000 A 
ATOM     18  N   UNL     1       7.323   5.586  17.354  0.00  0.00    +0.000 NA
ATOM     19  C   UNL     1       7.039   5.673  18.674  0.00  0.00    +0.000 A 
ATOM     20  C   UNL     1       5.897   5.150  19.253  0.00  0.00    +0.000 A 
ENDBRANCH  14  15
ENDBRANCH   1  13
BRANCH   4  21
ATOM     21  O   UNL     1       1.467  10.138  18.876  0.00  0.00    +0.000 OA
BRANCH  21  22
ATOM     22  C   UNL     1       0.238  10.447  18.191  0.00  0.00    +0.000 C 
BRANCH  22  23
ATOM     23  C   UNL     1      -0.824  11.063  19.111  0.00  0.00    +0.000 A 
ATOM     24  C   UNL     1      -2.000  11.554  18.558  0.00  0.00    +0.000 A 
ATOM     25  C   UNL     1      -2.892  12.252  19.367  0.00  0.00    +0.000 A 
ATOM     26  C   UNL     1      -2.664  12.350  20.740  0.00  0.00    +0.000 A 
ATOM     27  C   UNL     1      -3.625  12.937  21.587  0.00  0.00    +0.000 A 
ATOM     28  C   UNL     1      -3.468  12.894  22.967  0.00  0.00    +0.000 A 
ATOM     29  C   UNL     1      -2.316  12.328  23.499  0.00  0.00    +0.000 A 
ATOM     30  C   UNL     1      -1.326  11.816  22.644  0.00  0.00    +0.000 A 
ATOM     31  C   UNL     1      -1.480  11.785  21.255  0.00  0.00    +0.000 A 
ATOM     32  N   UNL     1      -0.555  11.199  20.446  0.00  0.00    +0.000 NA
ENDBRANCH  22  23
ENDBRANCH  21  22
ENDBRANCH   4  21
TORSDOF 5
ENDMDL
MODEL 6
REMARK VINA RESULT:      -9.2      1.160      1.652
REMARK  Name = 
REMARK  7 active torsions:
REMARK  status: ('A' for Active; 'I' for Inactive)
REMARK    1  A    between atoms: C_1  and  C_2
REMARK    2  A    between atoms: C_2  and  C_3
REMARK    3  A    between atoms: C_7  and  C_8
REMARK    4  A    between atoms: C_11  and  O_12
REMARK    5  A    between atoms: O_12  and  C_13
REMARK    6  A    between atoms: C_13  and  C_14
REMARK    7  A    between atoms: C_26  and  C_27
REMARK                            x       y       z     vdW  Elec       q    Type
REMARK                         _______ _______ _______ _____ _____    ______ ____
ROOT
ATOM      1  C   UNL     1       2.383   6.159  19.119  0.00  0.00    +0.000 A 
ATOM      2  C   UNL     1       1.998   6.936  20.222  0.00  0.00    +0.000 A 
ATOM      3  C   UNL     1       1.723   8.318  20.091  0.00  0.00    +0.000 A 
ATOM      4  C   UNL     1       1.812   8.952  18.852  0.00  0.00    +0.000 A 
ATOM      5  C   UNL     1       2.196   8.177  17.750  0.00  0.00    +0.000 A 
ATOM      6  C   UNL     1       2.483   6.802  17.879  0.00  0.00    +0.000 A 
ENDROOT
BRANCH   1  13
ATOM      7  C   UNL     1       3.655   1.606  18.072  0.00  0.00    +0.000 C 
ATOM      8  C   UNL     1       3.602   2.563  19.268  0.00  0.00    +0.000 C 
ATOM      9  C   UNL     1       4.591   2.098  20.342  0.00  0.00    +0.000 C 
ATOM     10  O   UNL     1       2.282   2.494  19.830  0.00  0.00    +0.000 OA
ATOM     11  C   UNL     1       1.709   3.734  19.830  0.00  0.00    +0.000 C 
ATOM     12  O   UNL     1       0.588   3.968  20.244  0.00  0.00    +0.000 OA
ATOM     13  C   UNL     1       2.639   4.718  19.245  0.00  0.00    +0.000 C 
ATOM     14  C   UNL     1       3.727   4.017  18.920  0.00  0.00    +0.000 C 
BRANCH  14  15
ATOM     15  C   UNL     1       4.953   4.567  18.341  0.00  0.00    +0.000 A 
ATOM     16  C   UNL     1       5.872   5.224  19.159  0.00  0.00    +0.000 A 
ATOM     17  C   UNL     1       7.013   5.747  18.577  0.00  0.00    +0.000 A 
ATOM     18  N   UNL     1       7.289   5.659  17.261  0.00  0.00    +0.000 NA
ATOM     19  C   UNL     1       6.376   5.026  16.488  0.00  0.00    +0.000 A 
ATOM     20  C   UNL     1       5.205   4.473  16.974  0.00  0.00    +0.000 A 
ENDBRANCH  14  15
ENDBRANCH   1  13
BRANCH   4  21
ATOM     21  O   UNL     1       1.528  10.272  18.581  0.00  0.00    +0.000 OA
BRANCH  21  22
ATOM     22  C   UNL     1       1.251  11.146  19.691  0.00  0.00    +0.000 C 
BRANCH  22  23
ATOM     23  C   UNL     1      -0.237  11.500  19.822  0.00  0.00    +0.000 A 
ATOM     24  C   UNL     1      -1.039  11.495  18.689  0.00  0.00    +0.000 A 
ATOM     25  C   UNL     1      -2.347  11.965  18.779  0.00  0.00    +0.000 A 
ATOM     26  C   UNL     1      -2.879  12.323  20.018  0.00  0.00    +0.000 A 
ATOM     27  C   UNL     1      -4.238  12.672  20.141  0.00  0.00    +0.000 A 
ATOM     28  C   UNL     1      -4.803  12.875  21.395  0.00  0.00    +0.000 A 
ATOM     29  C   UNL     1      -3.993  12.799  22.522  0.00  0.00    +0.000 A 
ATOM     30  C   UNL     1      -2.621  12.528  22.383  0.00  0.00    +0.000 A 
ATOM     31  C   UNL     1      -2.034  12.256  21.145  0.00  0.00    +0.000 A 
ATOM     32  N   UNL     1      -0.724  11.900  21.037  0.00  0.00    +0.000 NA
ENDBRANCH  22  23
ENDBRANCH  21  22
ENDBRANCH   4  21
TORSDOF 5
ENDMDL
MODEL 7
REMARK VINA RESULT:      -9.1      0.675      1.519
REMARK  Name = 
REMARK  7 active torsions:
REMARK  status: ('A' for Active; 'I' for Inactive)
REMARK    1  A    between atoms: C_1  and  C_2
REMARK    2  A    between atoms: C_2  and  C_3
REMARK    3  A    between atoms: C_7  and  C_8
REMARK    4  A    between atoms: C_11  and  O_12
REMARK    5  A    between atoms: O_12  and  C_13
REMARK    6  A    between atoms: C_13  and  C_14
REMARK    7  A    between atoms: C_26  and  C_27
REMARK                            x       y       z     vdW  Elec       q    Type
REMARK                         _______ _______ _______ _____ _____    ______ ____
ROOT
ATOM      1  C   UNL     1       2.254   6.147  19.423  0.00  0.00    +0.000 A 
ATOM      2  C   UNL     1       1.864   6.784  20.611  0.00  0.00    +0.000 A 
ATOM      3  C   UNL     1       1.544   8.161  20.639  0.00  0.00    +0.000 A 
ATOM      4  C   UNL     1       1.593   8.932  19.478  0.00  0.00    +0.000 A 
ATOM      5  C   UNL     1       1.983   8.298  18.291  0.00  0.00    +0.000 A 
ATOM      6  C   UNL     1       2.314   6.927  18.262  0.00  0.00    +0.000 A 
ENDROOT
BRANCH   1  13
ATOM      7  C   UNL     1       3.639   1.781  17.853  0.00  0.00    +0.000 C 
ATOM      8  C   UNL     1       3.585   2.598  19.149  0.00  0.00    +0.000 C 
ATOM      9  C   UNL     1       4.612   2.051  20.146  0.00  0.00    +0.000 C 
ATOM     10  O   UNL     1       2.281   2.425  19.725  0.00  0.00    +0.000 OA
ATOM     11  C   UNL     1       1.670   3.638  19.874  0.00  0.00    +0.000 C 
ATOM     12  O   UNL     1       0.553   3.788  20.333  0.00  0.00    +0.000 OA
ATOM     13  C   UNL     1       2.557   4.710  19.383  0.00  0.00    +0.000 C 
ATOM     14  C   UNL     1       3.658   4.086  18.962  0.00  0.00    +0.000 C 
BRANCH  14  15
ATOM     15  C   UNL     1       4.853   4.735  18.424  0.00  0.00    +0.000 A 
ATOM     16  C   UNL     1       5.018   4.851  17.044  0.00  0.00    +0.000 A 
ATOM     17  C   UNL     1       6.168   5.455  16.569  0.00  0.00    +0.000 A 
ATOM     18  N   UNL     1       7.142   5.940  17.364  0.00  0.00    +0.000 NA
ATOM     19  C   UNL     1       6.962   5.805  18.699  0.00  0.00    +0.000 A 
ATOM     20  C   UNL     1       5.850   5.214  19.271  0.00  0.00    +0.000 A 
ENDBRANCH  14  15
ENDBRANCH   1  13
BRANCH   4  21
ATOM     21  O   UNL     1       1.264  10.264  19.361  0.00  0.00    +0.000 OA
BRANCH  21  22
ATOM     22  C   UNL     1       0.533  10.681  18.192  0.00  0.00    +0.000 C 
BRANCH  22  23
ATOM     23  C   UNL     1      -0.864  11.226  18.519  0.00  0.00    +0.000 A 
ATOM     24  C   UNL     1      -1.078  11.864  19.734  0.00  0.00    +0.000 A 
ATOM     25  C   UNL     1      -2.375  12.219  20.096  0.00  0.00    +0.000 A 
ATOM     26  C   UNL     1      -3.426  12.044  19.197  0.00  0.00    +0.000 A 
ATOM     27  C   UNL     1      -4.717  12.521  19.501  0.00  0.00    +0.000 A 
ATOM     28  C   UNL     1      -5.725  12.487  18.543  0.00  0.00    +0.000 A 
ATOM     29  C   UNL     1      -5.462  11.911  17.307  0.00  0.00    +0.000 A 
ATOM     30  C   UNL     1      -4.195  11.366  17.040  0.00  0.00    +0.000 A 
ATOM     31  C   UNL     1      -3.141  11.441  17.955  0.00  0.00    +0.000 A 
ATOM     32  N   UNL     1      -1.893  10.995  17.646  0.00  0.00    +0.000 NA
ENDBRANCH  22  23
ENDBRANCH  21  22
ENDBRANCH   4  21
TORSDOF 5
ENDMDL
MODEL 8
REMARK VINA RESULT:      -9.0      1.648      2.713
REMARK  Name = 
REMARK  7 active torsions:
REMARK  status: ('A' for Active; 'I' for Inactive)
REMARK    1  A    between atoms: C_1  and  C_2
REMARK    2  A    between atoms: C_2  and  C_3
REMARK    3  A    between atoms: C_7  and  C_8
REMARK    4  A    between atoms: C_11  and  O_12
REMARK    5  A    between atoms: O_12  and  C_13
REMARK    6  A    between atoms: C_13  and  C_14
REMARK    7  A    between atoms: C_26  and  C_27
REMARK                            x       y       z     vdW  Elec       q    Type
REMARK                         _______ _______ _______ _____ _____    ______ ____
ROOT
ATOM      1  C   UNL     1       2.213   6.148  19.290  0.00  0.00    +0.000 A 
ATOM      2  C   UNL     1       2.319   6.911  18.117  0.00  0.00    +0.000 A 
ATOM      3  C   UNL     1       2.044   8.298  18.112  0.00  0.00    +0.000 A 
ATOM      4  C   UNL     1       1.670   8.959  19.282  0.00  0.00    +0.000 A 
ATOM      5  C   UNL     1       1.563   8.198  20.454  0.00  0.00    +0.000 A 
ATOM      6  C   UNL     1       1.825   6.813  20.460  0.00  0.00    +0.000 A 
ENDROOT
BRANCH   1  13
ATOM      7  C   UNL     1       3.655   1.740  17.899  0.00  0.00    +0.000 C 
ATOM      8  C   UNL     1       3.576   2.604  19.163  0.00  0.00    +0.000 C 
ATOM      9  C   UNL     1       4.595   2.102  20.192  0.00  0.00    +0.000 C 
ATOM     10  O   UNL     1       2.266   2.440  19.729  0.00  0.00    +0.000 OA
ATOM     11  C   UNL     1       1.644   3.652  19.825  0.00  0.00    +0.000 C 
ATOM     12  O   UNL     1       0.519   3.809  20.264  0.00  0.00    +0.000 OA
ATOM     13  C   UNL     1       2.528   4.714  19.307  0.00  0.00    +0.000 C 
ATOM     14  C   UNL     1       3.639   4.084  18.922  0.00  0.00    +0.000 C 
BRANCH  14  15
ATOM     15  C   UNL     1       4.836   4.724  18.377  0.00  0.00    +0.000 A 
ATOM     16  C   UNL     1       5.015   4.796  16.995  0.00  0.00    +0.000 A 
ATOM     17  C   UNL     1       6.166   5.393  16.513  0.00  0.00    +0.000 A 
ATOM     18  N   UNL     1       7.129   5.909  17.302  0.00  0.00    +0.000 NA
ATOM     19  C   UNL     1       6.936   5.816  18.638  0.00  0.00    +0.000 A 
ATOM     20  C   UNL     1       5.821   5.236  19.218  0.00  0.00    +0.000 A 
ENDBRANCH  14  15
ENDBRANCH   1  13
BRANCH   4  21
ATOM     21  O   UNL     1       1.420  10.306  19.422  0.00  0.00    +0.000 OA
BRANCH  21  22
ATOM     22  C   UNL     1       0.117  10.796  19.054  0.00  0.00    +0.000 C 
BRANCH  22  23
ATOM     23  C   UNL     1      -0.677  11.348  20.245  0.00  0.00    +0.000 A 
ATOM     24  C   UNL     1      -0.196  11.151  21.533  0.00  0.00    +0.000 A 
ATOM     25  C   UNL     1      -0.990  11.513  22.618  0.00  0.00    +0.000 A 
ATOM     26  C   UNL     1      -2.200  12.176  22.411  0.00  0.00    +0.000 A 
ATOM     27  C   UNL     1      -2.946  12.665  23.501  0.00  0.00    +0.000 A 
ATOM     28  C   UNL     1      -4.068  13.459  23.289  0.00  0.00    +0.000 A 
ATOM     29  C   UNL     1      -4.485  13.705  21.986  0.00  0.00    +0.000 A 
ATOM     30  C   UNL     1      -3.780  13.147  20.906  0.00  0.00    +0.000 A 
ATOM     31  C   UNL     1      -2.613  12.399  21.081  0.00  0.00    +0.000 A 
ATOM     32  N   UNL     1      -1.888  11.946  20.021  0.00  0.00    +0.000 NA
ENDBRANCH  22  23
ENDBRANCH  21  22
ENDBRANCH   4  21
TORSDOF 5
ENDMDL
MODEL 9
REMARK VINA RESULT:      -9.0      1.561      2.424
REMARK  Name = 
REMARK  7 active torsions:
REMARK  status: ('A' for Active; 'I' for Inactive)
REMARK    1  A    between atoms: C_1  and  C_2
REMARK    2  A    between atoms: C_2  and  C_3
REMARK    3  A    between atoms: C_7  and  C_8
REMARK    4  A    between atoms: C_11  and  O_12
REMARK    5  A    between atoms: O_12  and  C_13
REMARK    6  A    between atoms: C_13  and  C_14
REMARK    7  A    between atoms: C_26  and  C_27
REMARK                            x       y       z     vdW  Elec       q    Type
REMARK                         _______ _______ _______ _____ _____    ______ ____
ROOT
ATOM      1  C   UNL     1       2.201   6.150  19.265  0.00  0.00    +0.000 A 
ATOM      2  C   UNL     1       2.249   6.882  18.070  0.00  0.00    +0.000 A 
ATOM      3  C   UNL     1       1.964   8.268  18.042  0.00  0.00    +0.000 A 
ATOM      4  C   UNL     1       1.639   8.957  19.210  0.00  0.00    +0.000 A 
ATOM      5  C   UNL     1       1.591   8.226  20.404  0.00  0.00    +0.000 A 
ATOM      6  C   UNL     1       1.862   6.843  20.434  0.00  0.00    +0.000 A 
ENDROOT
BRANCH   1  13
ATOM      7  C   UNL     1       3.674   1.730  17.945  0.00  0.00    +0.000 C 
ATOM      8  C   UNL     1       3.588   2.613  19.195  0.00  0.00    +0.000 C 
ATOM      9  C   UNL     1       4.610   2.134  20.232  0.00  0.00    +0.000 C 
ATOM     10  O   UNL     1       2.279   2.449  19.762  0.00  0.00    +0.000 OA
ATOM     11  C   UNL     1       1.649   3.659  19.839  0.00  0.00    +0.000 C 
ATOM     12  O   UNL     1       0.523   3.815  20.275  0.00  0.00    +0.000 OA
ATOM     13  C   UNL     1       2.526   4.718  19.305  0.00  0.00    +0.000 C 
ATOM     14  C   UNL     1       3.642   4.089  18.931  0.00  0.00    +0.000 C 
BRANCH  14  15
ATOM     15  C   UNL     1       4.834   4.729  18.376  0.00  0.00    +0.000 A 
ATOM     16  C   UNL     1       4.995   4.815  16.993  0.00  0.00    +0.000 A 
ATOM     17  C   UNL     1       6.142   5.410  16.501  0.00  0.00    +0.000 A 
ATOM     18  N   UNL     1       7.119   5.914  17.283  0.00  0.00    +0.000 NA
ATOM     19  C   UNL     1       6.943   5.808  18.621  0.00  0.00    +0.000 A 
ATOM     20  C   UNL     1       5.833   5.228  19.209  0.00  0.00    +0.000 A 
ENDBRANCH  14  15
ENDBRANCH   1  13
BRANCH   4  21
ATOM     21  O   UNL     1       1.388  10.306  19.326  0.00  0.00    +0.000 OA
BRANCH  21  22
ATOM     22  C   UNL     1       1.078  10.827  20.632  0.00  0.00    +0.000 C 
BRANCH  22  23
ATOM     23  C   UNL     1      -0.352  11.376  20.737  0.00  0.00    +0.000 A 
ATOM     24  C   UNL     1      -1.056  11.665  19.576  0.00  0.00    +0.000 A 
ATOM     25  C   UNL     1      -2.288  12.306  19.670  0.00  0.00    +0.000 A 
ATOM     26  C   UNL     1      -2.860  12.545  20.920  0.00  0.00    +0.000 A 
ATOM     27  C   UNL     1      -4.163  13.071  21.024  0.00  0.00    +0.000 A 
ATOM     28  C   UNL     1      -4.790  13.161  22.262  0.00  0.00    +0.000 A 
ATOM     29  C   UNL     1      -4.089  12.793  23.403  0.00  0.00    +0.000 A 
ATOM     30  C   UNL     1      -2.762  12.344  23.298  0.00  0.00    +0.000 A 
ATOM     31  C   UNL     1      -2.123  12.180  22.065  0.00  0.00    +0.000 A 
ATOM     32  N   UNL     1      -0.871  11.653  21.973  0.00  0.00    +0.000 NA
ENDBRANCH  22  23
ENDBRANCH  21  22
ENDBRANCH   4  21
TORSDOF 5
ENDMDL
