MODEL 1
REMARK VINA RESULT:      -7.7      0.000      0.000
REMARK  Name = 
REMARK  9 active torsions:
REMARK  status: ('A' for Active; 'I' for Inactive)
REMARK    1  A    between atoms: C_1  and  C_2
REMARK    2  A    between atoms: C_2  and  O_3
REMARK    3  A    between atoms: O_3  and  C_4
REMARK    4  A    between atoms: C_4  and  C_6
REMARK    5  A    between atoms: C_8  and  N_9
REMARK    6  A    between atoms: C_10  and  C_12
REMARK    7  A    between atoms: C_17  and  C_18
REMARK    8  A    between atoms: C_23  and  C_24
REMARK    9  A    between atoms: C_26  and  C_27
REMARK                            x       y       z     vdW  Elec       q    Type
REMARK                         _______ _______ _______ _____ _____    ______ ____
ROOT
ATOM      1  N   UNL     1       2.515   7.304  19.387  0.00  0.00    +0.000 N 
ATOM      2  C   UNL     1       1.871   8.329  18.711  0.00  0.00    +0.000 C 
ATOM      3  O   UNL     1       1.656   8.336  17.503  0.00  0.00    +0.000 OA
ATOM      4  H   UNL     1       2.225   7.117  20.340  0.00  0.00    +0.000 HD
ENDROOT
BRANCH   2   5
ATOM      5  C   UNL     1       1.338   9.458  19.534  0.00  0.00    +0.000 A 
ATOM      6  C   UNL     1       1.264  10.766  19.056  0.00  0.00    +0.000 A 
ATOM      7  C   UNL     1       0.632  11.751  19.826  0.00  0.00    +0.000 A 
ATOM      8  C   UNL     1       0.065  11.441  21.075  0.00  0.00    +0.000 A 
ATOM      9 CL   UNL     1      -0.723  12.739  21.898  0.00  0.00    +0.000 Cl
ATOM     10  C   UNL     1       0.135  10.142  21.583  0.00  0.00    +0.000 A 
ATOM     11  C   UNL     1       0.790   9.162  20.795  0.00  0.00    +0.000 A 
BRANCH  10  12
ATOM     12  C   UNL     1      -0.455   9.695  22.895  0.00  0.00    +0.000 C 
ATOM     13  F   UNL     1      -1.384  10.514  23.453  0.00  0.00    +0.000 F 
ATOM     14  F   UNL     1      -1.065   8.479  22.785  0.00  0.00    +0.000 F 
ATOM     15  F   UNL     1       0.505   9.531  23.849  0.00  0.00    +0.000 F 
ENDBRANCH  10  12
ENDBRANCH   2   5
BRANCH   1  18
ATOM     16  C   UNL     1       4.558   5.010  17.177  0.00  0.00    +0.000 A 
ATOM     17  S   UNL     1       4.218   6.653  17.552  0.00  0.00    +0.000 S 
ATOM     18  C   UNL     1       3.022   6.227  18.674  0.00  0.00    +0.000 A 
ATOM     19  C   UNL     1       2.757   4.875  18.673  0.00  0.00    +0.000 A 
ATOM     20  C   UNL     1       3.635   4.153  17.775  0.00  0.00    +0.000 A 
ATOM     21  C   UNL     1       3.589   2.670  17.535  0.00  0.00    +0.000 C 
BRANCH  16  22
ATOM     22  C   UNL     1       5.693   4.635  16.335  0.00  0.00    +0.000 C 
ATOM     23  O   UNL     1       5.666   3.768  15.469  0.00  0.00    +0.000 OA
BRANCH  22  24
ATOM     24  O   UNL     1       6.826   5.299  16.709  0.00  0.00    +0.000 OA
BRANCH  24  26
ATOM     25  C   UNL     1       7.796   5.768  18.849  0.00  0.00    +0.000 C 
ATOM     26  C   UNL     1       7.570   4.708  17.785  0.00  0.00    +0.000 C 
ENDBRANCH  24  26
ENDBRANCH  22  24
ENDBRANCH  16  22
BRANCH  19  27
ATOM     27  C   UNL     1       1.681   4.271  19.410  0.00  0.00    +0.000 C 
ATOM     28  N   UNL     1       0.774   3.765  19.931  0.00  0.00    +0.000 NA
ENDBRANCH  19  27
ENDBRANCH   1  18
TORSDOF 7
ENDMDL
MODEL 2
REMARK VINA RESULT:      -7.7      1.554      2.038
REMARK  Name = 
REMARK  9 active torsions:
REMARK  status: ('A' for Active; 'I' for Inactive)
REMARK    1  A    between atoms: C_1  and  C_2
REMARK    2  A    between atoms: C_2  and  O_3
REMARK    3  A    between atoms: O_3  and  C_4
REMARK    4  A    between atoms: C_4  and  C_6
REMARK    5  A    between atoms: C_8  and  N_9
REMARK    6  A    between atoms: C_10  and  C_12
REMARK    7  A    between atoms: C_17  and  C_18
REMARK    8  A    between atoms: C_23  and  C_24
REMARK    9  A    between atoms: C_26  and  C_27
REMARK                            x       y       z     vdW  Elec       q    Type
REMARK                         _______ _______ _______ _____ _____    ______ ____
ROOT
ATOM      1  N   UNL     1       2.734   7.492  17.866  0.00  0.00    +0.000 N 
ATOM      2  C   UNL     1       2.304   7.590  19.181  0.00  0.00    +0.000 C 
ATOM      3  O   UNL     1       2.656   6.838  20.084  0.00  0.00    +0.000 OA
ATOM      4  H   UNL     1       2.828   8.352  17.339  0.00  0.00    +0.000 HD
ENDROOT
BRANCH   2   5
ATOM      5  C   UNL     1       1.417   8.744  19.524  0.00  0.00    +0.000 A 
ATOM      6  C   UNL     1       0.864   9.580  18.554  0.00  0.00    +0.000 A 
ATOM      7  C   UNL     1      -0.064  10.560  18.932  0.00  0.00    +0.000 A 
ATOM      8  C   UNL     1      -0.452  10.712  20.274  0.00  0.00    +0.000 A 
ATOM      9 CL   UNL     1      -1.637  11.926  20.593  0.00  0.00    +0.000 Cl
ATOM     10  C   UNL     1       0.096   9.895  21.267  0.00  0.00    +0.000 A 
ATOM     11  C   UNL     1       1.042   8.919  20.868  0.00  0.00    +0.000 A 
BRANCH  10  12
ATOM     12  C   UNL     1      -0.263   9.956  22.729  0.00  0.00    +0.000 C 
ATOM     13  F   UNL     1      -1.366   9.262  23.113  0.00  0.00    +0.000 F 
ATOM     14  F   UNL     1       0.749   9.489  23.516  0.00  0.00    +0.000 F 
ATOM     15  F   UNL     1      -0.479  11.238  23.142  0.00  0.00    +0.000 F 
ENDBRANCH  10  12
ENDBRANCH   2   5
BRANCH   1  18
ATOM     16  C   UNL     1       5.669   5.327  16.859  0.00  0.00    +0.000 A 
ATOM     17  S   UNL     1       5.097   6.944  16.968  0.00  0.00    +0.000 S 
ATOM     18  C   UNL     1       3.566   6.446  17.494  0.00  0.00    +0.000 A 
ATOM     19  C   UNL     1       3.413   5.077  17.450  0.00  0.00    +0.000 A 
ATOM     20  C   UNL     1       4.636   4.411  17.050  0.00  0.00    +0.000 A 
ATOM     21  C   UNL     1       4.792   2.924  16.889  0.00  0.00    +0.000 C 
BRANCH  16  22
ATOM     22  C   UNL     1       7.077   5.028  16.602  0.00  0.00    +0.000 C 
ATOM     23  O   UNL     1       7.837   4.493  17.402  0.00  0.00    +0.000 OA
BRANCH  22  24
ATOM     24  O   UNL     1       7.474   5.519  15.391  0.00  0.00    +0.000 OA
BRANCH  24  26
ATOM     25  C   UNL     1       7.800   5.233  13.035  0.00  0.00    +0.000 C 
ATOM     26  C   UNL     1       6.971   4.824  14.240  0.00  0.00    +0.000 C 
ENDBRANCH  24  26
ENDBRANCH  22  24
ENDBRANCH  16  22
BRANCH  19  27
ATOM     27  C   UNL     1       2.166   4.403  17.688  0.00  0.00    +0.000 C 
ATOM     28  N   UNL     1       1.196   3.787  17.853  0.00  0.00    +0.000 NA
ENDBRANCH  19  27
ENDBRANCH   1  18
TORSDOF 7
ENDMDL
MODEL 3
REMARK VINA RESULT:      -7.6      1.095      1.732
REMARK  Name = 
REMARK  9 active torsions:
REMARK  status: ('A' for Active; 'I' for Inactive)
REMARK    1  A    between atoms: C_1  and  C_2
REMARK    2  A    between atoms: C_2  and  O_3
REMARK    3  A    between atoms: O_3  and  C_4
REMARK    4  A    between atoms: C_4  and  C_6
REMARK    5  A    between atoms: C_8  and  N_9
REMARK    6  A    between atoms: C_10  and  C_12
REMARK    7  A    between atoms: C_17  and  C_18
REMARK    8  A    between atoms: C_23  and  C_24
REMARK    9  A    between atoms: C_26  and  C_27
REMARK                            x       y       z     vdW  Elec       q    Type
REMARK                         _______ _______ _______ _____ _____    ______ ____
ROOT
ATOM      1  N   UNL     1       2.431   7.321  18.935  0.00  0.00    +0.000 N 
ATOM      2  C   UNL     1       2.031   8.470  18.269  0.00  0.00    +0.000 C 
ATOM      3  O   UNL     1       2.269   8.706  17.089  0.00  0.00    +0.000 OA
ATOM      4  H   UNL     1       1.824   6.968  19.665  0.00  0.00    +0.000 HD
ENDROOT
BRANCH   2   5
ATOM      5  C   UNL     1       1.183   9.438  19.030  0.00  0.00    +0.000 A 
ATOM      6  C   UNL     1       0.517  10.497  18.415  0.00  0.00    +0.000 A 
ATOM      7  C   UNL     1      -0.367  11.288  19.162  0.00  0.00    +0.000 A 
ATOM      8  C   UNL     1      -0.596  11.029  20.524  0.00  0.00    +0.000 A 
ATOM      9 CL   UNL     1      -1.743  12.051  21.312  0.00  0.00    +0.000 Cl
ATOM     10  C   UNL     1       0.067   9.981  21.168  0.00  0.00    +0.000 A 
ATOM     11  C   UNL     1       0.966   9.201  20.399  0.00  0.00    +0.000 A 
BRANCH  10  12
ATOM     12  C   UNL     1      -0.119   9.601  22.614  0.00  0.00    +0.000 C 
ATOM     13  F   UNL     1      -1.021   8.619  22.871  0.00  0.00    +0.000 F 
ATOM     14  F   UNL     1       1.048   9.175  23.178  0.00  0.00    +0.000 F 
ATOM     15  F   UNL     1      -0.517  10.666  23.367  0.00  0.00    +0.000 F 
ENDBRANCH  10  12
ENDBRANCH   2   5
BRANCH   1  18
ATOM     16  C   UNL     1       5.178   5.497  17.079  0.00  0.00    +0.000 A 
ATOM     17  S   UNL     1       4.564   7.047  17.497  0.00  0.00    +0.000 S 
ATOM     18  C   UNL     1       3.212   6.384  18.274  0.00  0.00    +0.000 A 
ATOM     19  C   UNL     1       3.122   5.020  18.102  0.00  0.00    +0.000 A 
ATOM     20  C   UNL     1       4.259   4.492  17.376  0.00  0.00    +0.000 A 
ATOM     21  C   UNL     1       4.450   3.045  17.012  0.00  0.00    +0.000 C 
BRANCH  16  22
ATOM     22  C   UNL     1       6.508   5.331  16.495  0.00  0.00    +0.000 C 
ATOM     23  O   UNL     1       7.491   4.915  17.099  0.00  0.00    +0.000 OA
BRANCH  22  24
ATOM     24  O   UNL     1       6.549   5.804  15.215  0.00  0.00    +0.000 OA
BRANCH  24  26
ATOM     25  C   UNL     1       5.941   3.965  13.805  0.00  0.00    +0.000 C 
ATOM     26  C   UNL     1       7.064   4.896  14.230  0.00  0.00    +0.000 C 
ENDBRANCH  24  26
ENDBRANCH  22  24
ENDBRANCH  16  22
BRANCH  19  27
ATOM     27  C   UNL     1       1.993   4.235  18.518  0.00  0.00    +0.000 C 
ATOM     28  N   UNL     1       1.037   3.631  18.788  0.00  0.00    +0.000 NA
ENDBRANCH  19  27
ENDBRANCH   1  18
TORSDOF 7
ENDMDL
MODEL 4
REMARK VINA RESULT:      -7.6      4.562      8.602
REMARK  Name = 
REMARK  9 active torsions:
REMARK  status: ('A' for Active; 'I' for Inactive)
REMARK    1  A    between atoms: C_1  and  C_2
REMARK    2  A    between atoms: C_2  and  O_3
REMARK    3  A    between atoms: O_3  and  C_4
REMARK    4  A    between atoms: C_4  and  C_6
REMARK    5  A    between atoms: C_8  and  N_9
REMARK    6  A    between atoms: C_10  and  C_12
REMARK    7  A    between atoms: C_17  and  C_18
REMARK    8  A    between atoms: C_23  and  C_24
REMARK    9  A    between atoms: C_26  and  C_27
REMARK                            x       y       z     vdW  Elec       q    Type
REMARK                         _______ _______ _______ _____ _____    ______ ____
ROOT
ATOM      1  N   UNL     1       1.097   8.704  19.284  0.00  0.00    +0.000 N 
ATOM      2  C   UNL     1       1.966   8.858  18.215  0.00  0.00    +0.000 C 
ATOM      3  O   UNL     1       2.176   9.921  17.640  0.00  0.00    +0.000 OA
ATOM      4  H   UNL     1       1.335   8.011  19.984  0.00  0.00    +0.000 HD
ENDROOT
BRANCH   2   5
ATOM      5  C   UNL     1       2.754   7.658  17.798  0.00  0.00    +0.000 A 
ATOM      6  C   UNL     1       4.013   7.755  17.206  0.00  0.00    +0.000 A 
ATOM      7  C   UNL     1       4.755   6.592  16.961  0.00  0.00    +0.000 A 
ATOM      8  C   UNL     1       4.253   5.325  17.307  0.00  0.00    +0.000 A 
ATOM      9 CL   UNL     1       5.291   3.982  16.993  0.00  0.00    +0.000 Cl
ATOM     10  C   UNL     1       2.990   5.199  17.892  0.00  0.00    +0.000 A 
ATOM     11  C   UNL     1       2.249   6.385  18.120  0.00  0.00    +0.000 A 
BRANCH  10  12
ATOM     12  C   UNL     1       2.365   3.898  18.323  0.00  0.00    +0.000 C 
ATOM     13  F   UNL     1       3.043   3.178  19.254  0.00  0.00    +0.000 F 
ATOM     14  F   UNL     1       1.120   4.086  18.848  0.00  0.00    +0.000 F 
ATOM     15  F   UNL     1       2.188   3.051  17.268  0.00  0.00    +0.000 F 
ENDBRANCH  10  12
ENDBRANCH   2   5
BRANCH   1  18
ATOM     16  C   UNL     1      -0.271  11.702  21.144  0.00  0.00    +0.000 A 
ATOM     17  S   UNL     1       0.786  10.350  21.255  0.00  0.00    +0.000 S 
ATOM     18  C   UNL     1       0.347   9.787  19.719  0.00  0.00    +0.000 A 
ATOM     19  C   UNL     1      -0.694  10.505  19.173  0.00  0.00    +0.000 A 
ATOM     20  C   UNL     1      -1.085  11.617  20.016  0.00  0.00    +0.000 A 
ATOM     21  C   UNL     1      -2.199  12.579  19.709  0.00  0.00    +0.000 C 
BRANCH  16  22
ATOM     22  C   UNL     1      -0.257  12.770  22.143  0.00  0.00    +0.000 C 
ATOM     23  O   UNL     1       0.437  13.779  22.080  0.00  0.00    +0.000 OA
BRANCH  22  24
ATOM     24  O   UNL     1      -1.037  12.451  23.218  0.00  0.00    +0.000 OA
BRANCH  24  26
ATOM     25  C   UNL     1      -3.394  12.380  23.640  0.00  0.00    +0.000 C 
ATOM     26  C   UNL     1      -2.191  13.281  23.420  0.00  0.00    +0.000 C 
ENDBRANCH  24  26
ENDBRANCH  22  24
ENDBRANCH  16  22
BRANCH  19  27
ATOM     27  C   UNL     1      -1.365  10.139  17.955  0.00  0.00    +0.000 C 
ATOM     28  N   UNL     1      -1.831   9.827  16.938  0.00  0.00    +0.000 NA
ENDBRANCH  19  27
ENDBRANCH   1  18
TORSDOF 7
ENDMDL
MODEL 5
REMARK VINA RESULT:      -7.5      1.486      2.002
REMARK  Name = 
REMARK  9 active torsions:
REMARK  status: ('A' for Active; 'I' for Inactive)
REMARK    1  A    between atoms: C_1  and  C_2
REMARK    2  A    between atoms: C_2  and  O_3
REMARK    3  A    between atoms: O_3  and  C_4
REMARK    4  A    between atoms: C_4  and  C_6
REMARK    5  A    between atoms: C_8  and  N_9
REMARK    6  A    between atoms: C_10  and  C_12
REMARK    7  A    between atoms: C_17  and  C_18
REMARK    8  A    between atoms: C_23  and  C_24
REMARK    9  A    between atoms: C_26  and  C_27
REMARK                            x       y       z     vdW  Elec       q    Type
REMARK                         _______ _______ _______ _____ _____    ______ ____
ROOT
ATOM      1  N   UNL     1       2.094   7.532  18.475  0.00  0.00    +0.000 N 
ATOM      2  C   UNL     1       1.790   8.101  19.701  0.00  0.00    +0.000 C 
ATOM      3  O   UNL     1       2.258   7.731  20.774  0.00  0.00    +0.000 OA
ATOM      4  H   UNL     1       2.103   8.140  17.665  0.00  0.00    +0.000 HD
ENDROOT
BRANCH   2   5
ATOM      5  C   UNL     1       0.895   9.299  19.693  0.00  0.00    +0.000 A 
ATOM      6  C   UNL     1       0.389   9.850  18.517  0.00  0.00    +0.000 A 
ATOM      7  C   UNL     1      -0.550  10.889  18.585  0.00  0.00    +0.000 A 
ATOM      8  C   UNL     1      -0.995  11.382  19.824  0.00  0.00    +0.000 A 
ATOM      9 CL   UNL     1      -2.187  12.630  19.763  0.00  0.00    +0.000 Cl
ATOM     10  C   UNL     1      -0.496  10.856  21.018  0.00  0.00    +0.000 A 
ATOM     11  C   UNL     1       0.462   9.815  20.928  0.00  0.00    +0.000 A 
BRANCH  10  12
ATOM     12  C   UNL     1      -0.918  11.292  22.397  0.00  0.00    +0.000 C 
ATOM     13  F   UNL     1      -2.253  11.410  22.614  0.00  0.00    +0.000 F 
ATOM     14  F   UNL     1      -0.471  10.433  23.357  0.00  0.00    +0.000 F 
ATOM     15  F   UNL     1      -0.388  12.506  22.724  0.00  0.00    +0.000 F 
ENDBRANCH  10  12
ENDBRANCH   2   5
BRANCH   1  18
ATOM     16  C   UNL     1       4.987   5.145  17.972  0.00  0.00    +0.000 A 
ATOM     17  S   UNL     1       4.342   6.673  17.524  0.00  0.00    +0.000 S 
ATOM     18  C   UNL     1       2.927   6.423  18.423  0.00  0.00    +0.000 A 
ATOM     19  C   UNL     1       2.851   5.148  18.939  0.00  0.00    +0.000 A 
ATOM     20  C   UNL     1       4.045   4.378  18.656  0.00  0.00    +0.000 A 
ATOM     21  C   UNL     1       4.264   2.949  19.068  0.00  0.00    +0.000 C 
BRANCH  16  22
ATOM     22  C   UNL     1       6.362   4.768  17.648  0.00  0.00    +0.000 C 
ATOM     23  O   UNL     1       7.236   4.525  18.474  0.00  0.00    +0.000 OA
BRANCH  22  24
ATOM     24  O   UNL     1       6.586   4.826  16.302  0.00  0.00    +0.000 OA
BRANCH  24  26
ATOM     25  C   UNL     1       6.231   4.084  14.052  0.00  0.00    +0.000 C 
ATOM     26  C   UNL     1       5.946   3.808  15.518  0.00  0.00    +0.000 C 
ENDBRANCH  24  26
ENDBRANCH  22  24
ENDBRANCH  16  22
BRANCH  19  27
ATOM     27  C   UNL     1       1.689   4.623  19.603  0.00  0.00    +0.000 C 
ATOM     28  N   UNL     1       0.796   4.195  20.211  0.00  0.00    +0.000 NA
ENDBRANCH  19  27
ENDBRANCH   1  18
TORSDOF 7
ENDMDL
MODEL 6
REMARK VINA RESULT:      -7.5      1.535      2.033
REMARK  Name = 
REMARK  9 active torsions:
REMARK  status: ('A' for Active; 'I' for Inactive)
REMARK    1  A    between atoms: C_1  and  C_2
REMARK    2  A    between atoms: C_2  and  O_3
REMARK    3  A    between atoms: O_3  and  C_4
REMARK    4  A    between atoms: C_4  and  C_6
REMARK    5  A    between atoms: C_8  and  N_9
REMARK    6  A    between atoms: C_10  and  C_12
REMARK    7  A    between atoms: C_17  and  C_18
REMARK    8  A    between atoms: C_23  and  C_24
REMARK    9  A    between atoms: C_26  and  C_27
REMARK                            x       y       z     vdW  Elec       q    Type
REMARK                         _______ _______ _______ _____ _____    ______ ____
ROOT
ATOM      1  N   UNL     1       2.612   7.452  17.854  0.00  0.00    +0.000 N 
ATOM      2  C   UNL     1       2.128   7.780  19.111  0.00  0.00    +0.000 C 
ATOM      3  O   UNL     1       2.434   7.197  20.146  0.00  0.00    +0.000 OA
ATOM      4  H   UNL     1       2.737   8.206  17.189  0.00  0.00    +0.000 HD
ENDROOT
BRANCH   2   5
ATOM      5  C   UNL     1       1.237   8.977  19.207  0.00  0.00    +0.000 A 
ATOM      6  C   UNL     1       0.648   9.566  18.089  0.00  0.00    +0.000 A 
ATOM      7  C   UNL     1      -0.281  10.602  18.260  0.00  0.00    +0.000 A 
ATOM      8  C   UNL     1      -0.633  11.055  19.544  0.00  0.00    +0.000 A 
ATOM      9 CL   UNL     1      -1.823  12.304  19.611  0.00  0.00    +0.000 Cl
ATOM     10  C   UNL     1      -0.049  10.490  20.680  0.00  0.00    +0.000 A 
ATOM     11  C   UNL     1       0.897   9.452  20.487  0.00  0.00    +0.000 A 
BRANCH  10  12
ATOM     12  C   UNL     1      -0.368  10.881  22.100  0.00  0.00    +0.000 C 
ATOM     13  F   UNL     1      -0.104  12.167  22.449  0.00  0.00    +0.000 F 
ATOM     14  F   UNL     1      -1.688  10.691  22.390  0.00  0.00    +0.000 F 
ATOM     15  F   UNL     1       0.313  10.113  22.998  0.00  0.00    +0.000 F 
ENDBRANCH  10  12
ENDBRANCH   2   5
BRANCH   1  18
ATOM     16  C   UNL     1       5.581   5.124  17.560  0.00  0.00    +0.000 A 
ATOM     17  S   UNL     1       5.077   6.765  17.472  0.00  0.00    +0.000 S 
ATOM     18  C   UNL     1       3.450   6.356  17.708  0.00  0.00    +0.000 A 
ATOM     19  C   UNL     1       3.244   4.993  17.702  0.00  0.00    +0.000 A 
ATOM     20  C   UNL     1       4.488   4.260  17.587  0.00  0.00    +0.000 A 
ATOM     21  C   UNL     1       4.601   2.761  17.535  0.00  0.00    +0.000 C 
BRANCH  16  22
ATOM     22  C   UNL     1       6.996   4.758  17.604  0.00  0.00    +0.000 C 
ATOM     23  O   UNL     1       7.741   4.953  18.558  0.00  0.00    +0.000 OA
BRANCH  22  24
ATOM     24  O   UNL     1       7.417   4.269  16.400  0.00  0.00    +0.000 OA
BRANCH  24  26
ATOM     25  C   UNL     1       6.372   4.013  14.260  0.00  0.00    +0.000 C 
ATOM     26  C   UNL     1       6.982   4.997  15.243  0.00  0.00    +0.000 C 
ENDBRANCH  24  26
ENDBRANCH  22  24
ENDBRANCH  16  22
BRANCH  19  27
ATOM     27  C   UNL     1       1.943   4.381  17.720  0.00  0.00    +0.000 C 
ATOM     28  N   UNL     1       0.876   3.926  17.661  0.00  0.00    +0.000 NA
ENDBRANCH  19  27
ENDBRANCH   1  18
TORSDOF 7
ENDMDL
MODEL 7
REMARK VINA RESULT:      -7.4      5.206      8.946
REMARK  Name = 
REMARK  9 active torsions:
REMARK  status: ('A' for Active; 'I' for Inactive)
REMARK    1  A    between atoms: C_1  and  C_2
REMARK    2  A    between atoms: C_2  and  O_3
REMARK    3  A    between atoms: O_3  and  C_4
REMARK    4  A    between atoms: C_4  and  C_6
REMARK    5  A    between atoms: C_8  and  N_9
REMARK    6  A    between atoms: C_10  and  C_12
REMARK    7  A    between atoms: C_17  and  C_18
REMARK    8  A    between atoms: C_23  and  C_24
REMARK    9  A    between atoms: C_26  and  C_27
REMARK                            x       y       z     vdW  Elec       q    Type
REMARK                         _______ _______ _______ _____ _____    ______ ____
ROOT
ATOM      1  N   UNL     1       0.757   9.102  19.340  0.00  0.00    +0.000 N 
ATOM      2  C   UNL     1       1.728   8.949  18.363  0.00  0.00    +0.000 C 
ATOM      3  O   UNL     1       1.926   9.744  17.451  0.00  0.00    +0.000 OA
ATOM      4  H   UNL     1       0.961   8.742  20.265  0.00  0.00    +0.000 HD
ENDROOT
BRANCH   2   5
ATOM      5  C   UNL     1       2.643   7.773  18.490  0.00  0.00    +0.000 A 
ATOM      6  C   UNL     1       2.592   6.895  19.573  0.00  0.00    +0.000 A 
ATOM      7  C   UNL     1       3.386   5.740  19.566  0.00  0.00    +0.000 A 
ATOM      8  C   UNL     1       4.231   5.448  18.482  0.00  0.00    +0.000 A 
ATOM      9 CL   UNL     1       5.117   3.969  18.583  0.00  0.00    +0.000 Cl
ATOM     10  C   UNL     1       4.310   6.316  17.391  0.00  0.00    +0.000 A 
ATOM     11  C   UNL     1       3.510   7.486  17.421  0.00  0.00    +0.000 A 
BRANCH  10  12
ATOM     12  C   UNL     1       5.163   6.091  16.169  0.00  0.00    +0.000 C 
ATOM     13  F   UNL     1       4.984   6.955  15.136  0.00  0.00    +0.000 F 
ATOM     14  F   UNL     1       6.494   6.153  16.464  0.00  0.00    +0.000 F 
ATOM     15  F   UNL     1       4.968   4.849  15.641  0.00  0.00    +0.000 F 
ENDBRANCH  10  12
ENDBRANCH   2   5
BRANCH   1  18
ATOM     16  C   UNL     1      -2.181  11.406  18.722  0.00  0.00    +0.000 A 
ATOM     17  S   UNL     1      -1.439   9.928  18.250  0.00  0.00    +0.000 S 
ATOM     18  C   UNL     1      -0.114  10.180  19.276  0.00  0.00    +0.000 A 
ATOM     19  C   UNL     1      -0.132  11.427  19.863  0.00  0.00    +0.000 A 
ATOM     20  C   UNL     1      -1.330  12.167  19.521  0.00  0.00    +0.000 A 
ATOM     21  C   UNL     1      -1.640  13.563  19.987  0.00  0.00    +0.000 C 
BRANCH  16  22
ATOM     22  C   UNL     1      -3.539  11.749  18.303  0.00  0.00    +0.000 C 
ATOM     23  O   UNL     1      -4.508  11.812  19.052  0.00  0.00    +0.000 OA
BRANCH  22  24
ATOM     24  O   UNL     1      -3.619  11.886  16.947  0.00  0.00    +0.000 OA
BRANCH  24  26
ATOM     25  C   UNL     1      -3.407  10.426  15.060  0.00  0.00    +0.000 C 
ATOM     26  C   UNL     1      -4.269  10.815  16.248  0.00  0.00    +0.000 C 
ENDBRANCH  24  26
ENDBRANCH  22  24
ENDBRANCH  16  22
BRANCH  19  27
ATOM     27  C   UNL     1       0.949  11.956  20.648  0.00  0.00    +0.000 C 
ATOM     28  N   UNL     1       1.808  12.460  21.246  0.00  0.00    +0.000 NA
ENDBRANCH  19  27
ENDBRANCH   1  18
TORSDOF 7
ENDMDL
MODEL 8
REMARK VINA RESULT:      -7.4      1.152      1.625
REMARK  Name = 
REMARK  9 active torsions:
REMARK  status: ('A' for Active; 'I' for Inactive)
REMARK    1  A    between atoms: C_1  and  C_2
REMARK    2  A    between atoms: C_2  and  O_3
REMARK    3  A    between atoms: O_3  and  C_4
REMARK    4  A    between atoms: C_4  and  C_6
REMARK    5  A    between atoms: C_8  and  N_9
REMARK    6  A    between atoms: C_10  and  C_12
REMARK    7  A    between atoms: C_17  and  C_18
REMARK    8  A    between atoms: C_23  and  C_24
REMARK    9  A    between atoms: C_26  and  C_27
REMARK                            x       y       z     vdW  Elec       q    Type
REMARK                         _______ _______ _______ _____ _____    ______ ____
ROOT
ATOM      1  N   UNL     1       2.462   6.945  19.965  0.00  0.00    +0.000 N 
ATOM      2  C   UNL     1       2.075   7.917  19.056  0.00  0.00    +0.000 C 
ATOM      3  O   UNL     1       2.284   7.860  17.849  0.00  0.00    +0.000 OA
ATOM      4  H   UNL     1       1.868   6.794  20.772  0.00  0.00    +0.000 HD
ENDROOT
BRANCH   2   5
ATOM      5  C   UNL     1       1.278   9.066  19.585  0.00  0.00    +0.000 A 
ATOM      6  C   UNL     1       0.836  10.110  18.774  0.00  0.00    +0.000 A 
ATOM      7  C   UNL     1      -0.018  11.087  19.304  0.00  0.00    +0.000 A 
ATOM      8  C   UNL     1      -0.441  11.029  20.643  0.00  0.00    +0.000 A 
ATOM      9 CL   UNL     1      -1.529  12.269  21.153  0.00  0.00    +0.000 Cl
ATOM     10  C   UNL     1      -0.005  10.000  21.481  0.00  0.00    +0.000 A 
ATOM     11  C   UNL     1       0.869   9.029  20.931  0.00  0.00    +0.000 A 
BRANCH  10  12
ATOM     12  C   UNL     1      -0.412   9.828  22.922  0.00  0.00    +0.000 C 
ATOM     13  F   UNL     1      -1.049  10.878  23.502  0.00  0.00    +0.000 F 
ATOM     14  F   UNL     1      -1.250   8.764  23.085  0.00  0.00    +0.000 F 
ATOM     15  F   UNL     1       0.662   9.568  23.721  0.00  0.00    +0.000 F 
ENDBRANCH  10  12
ENDBRANCH   2   5
BRANCH   1  18
ATOM     16  C   UNL     1       5.024   4.645  18.393  0.00  0.00    +0.000 A 
ATOM     17  S   UNL     1       4.384   6.241  18.383  0.00  0.00    +0.000 S 
ATOM     18  C   UNL     1       3.196   5.852  19.527  0.00  0.00    +0.000 A 
ATOM     19  C   UNL     1       3.164   4.505  19.815  0.00  0.00    +0.000 A 
ATOM     20  C   UNL     1       4.217   3.781  19.131  0.00  0.00    +0.000 A 
ATOM     21  C   UNL     1       4.439   2.297  19.224  0.00  0.00    +0.000 C 
BRANCH  16  22
ATOM     22  C   UNL     1       6.266   4.313  17.698  0.00  0.00    +0.000 C 
ATOM     23  O   UNL     1       7.390   4.434  18.174  0.00  0.00    +0.000 OA
BRANCH  22  24
ATOM     24  O   UNL     1       6.026   3.952  16.403  0.00  0.00    +0.000 OA
BRANCH  24  26
ATOM     25  C   UNL     1       6.330   4.190  14.039  0.00  0.00    +0.000 C 
ATOM     26  C   UNL     1       6.816   4.624  15.410  0.00  0.00    +0.000 C 
ENDBRANCH  24  26
ENDBRANCH  22  24
ENDBRANCH  16  22
BRANCH  19  27
ATOM     27  C   UNL     1       2.152   3.885  20.627  0.00  0.00    +0.000 C 
ATOM     28  N   UNL     1       1.393   3.325  21.304  0.00  0.00    +0.000 NA
ENDBRANCH  19  27
ENDBRANCH   1  18
TORSDOF 7
ENDMDL
MODEL 9
REMARK VINA RESULT:      -7.3      1.413      1.577
REMARK  Name = 
REMARK  9 active torsions:
REMARK  status: ('A' for Active; 'I' for Inactive)
REMARK    1  A    between atoms: C_1  and  C_2
REMARK    2  A    between atoms: C_2  and  O_3
REMARK    3  A    between atoms: O_3  and  C_4
REMARK    4  A    between atoms: C_4  and  C_6
REMARK    5  A    between atoms: C_8  and  N_9
REMARK    6  A    between atoms: C_10  and  C_12
REMARK    7  A    between atoms: C_17  and  C_18
REMARK    8  A    between atoms: C_23  and  C_24
REMARK    9  A    between atoms: C_26  and  C_27
REMARK                            x       y       z     vdW  Elec       q    Type
REMARK                         _______ _______ _______ _____ _____    ______ ____
ROOT
ATOM      1  N   UNL     1       2.089   7.463  18.478  0.00  0.00    +0.000 N 
ATOM      2  C   UNL     1       1.804   8.034  19.709  0.00  0.00    +0.000 C 
ATOM      3  O   UNL     1       2.276   7.654  20.776  0.00  0.00    +0.000 OA
ATOM      4  H   UNL     1       2.099   8.074  17.670  0.00  0.00    +0.000 HD
ENDROOT
BRANCH   2   5
ATOM      5  C   UNL     1       0.927   9.245  19.713  0.00  0.00    +0.000 A 
ATOM      6  C   UNL     1       0.433   9.817  18.541  0.00  0.00    +0.000 A 
ATOM      7  C   UNL     1      -0.491  10.869  18.620  0.00  0.00    +0.000 A 
ATOM      8  C   UNL     1      -0.932  11.354  19.863  0.00  0.00    +0.000 A 
ATOM      9 CL   UNL     1      -2.105  12.620  19.814  0.00  0.00    +0.000 Cl
ATOM     10  C   UNL     1      -0.444  10.806  21.052  0.00  0.00    +0.000 A 
ATOM     11  C   UNL     1       0.498   9.753  20.952  0.00  0.00    +0.000 A 
BRANCH  10  12
ATOM     12  C   UNL     1      -0.864  11.233  22.435  0.00  0.00    +0.000 C 
ATOM     13  F   UNL     1      -2.200  11.299  22.670  0.00  0.00    +0.000 F 
ATOM     14  F   UNL     1      -0.370  10.395  23.392  0.00  0.00    +0.000 F 
ATOM     15  F   UNL     1      -0.377  12.467  22.750  0.00  0.00    +0.000 F 
ENDBRANCH  10  12
ENDBRANCH   2   5
BRANCH   1  18
ATOM     16  C   UNL     1       4.921   5.024  17.892  0.00  0.00    +0.000 A 
ATOM     17  S   UNL     1       4.270   6.546  17.432  0.00  0.00    +0.000 S 
ATOM     18  C   UNL     1       2.905   6.343  18.415  0.00  0.00    +0.000 A 
ATOM     19  C   UNL     1       2.842   5.086  18.975  0.00  0.00    +0.000 A 
ATOM     20  C   UNL     1       4.009   4.291  18.650  0.00  0.00    +0.000 A 
ATOM     21  C   UNL     1       4.234   2.872  19.095  0.00  0.00    +0.000 C 
BRANCH  16  22
ATOM     22  C   UNL     1       6.272   4.619  17.504  0.00  0.00    +0.000 C 
ATOM     23  O   UNL     1       6.614   4.323  16.364  0.00  0.00    +0.000 OA
BRANCH  22  24
ATOM     24  O   UNL     1       7.086   4.504  18.594  0.00  0.00    +0.000 OA
BRANCH  24  26
ATOM     25  C   UNL     1       7.971   6.727  18.489  0.00  0.00    +0.000 C 
ATOM     26  C   UNL     1       7.272   5.701  19.364  0.00  0.00    +0.000 C 
ENDBRANCH  24  26
ENDBRANCH  22  24
ENDBRANCH  16  22
BRANCH  19  27
ATOM     27  C   UNL     1       1.712   4.597  19.718  0.00  0.00    +0.000 C 
ATOM     28  N   UNL     1       0.750   4.241  20.261  0.00  0.00    +0.000 NA
ENDBRANCH  19  27
ENDBRANCH   1  18
TORSDOF 7
ENDMDL
