MODEL 1
REMARK VINA RESULT:      -7.8      0.000      0.000
REMARK  Name = 
REMARK  5 active torsions:
REMARK  status: ('A' for Active; 'I' for Inactive)
REMARK    1  A    between atoms: C_1  and  C_2
REMARK    2  A    between atoms: C_7  and  C_8
REMARK    3  A    between atoms: C_13  and  C_14
REMARK    4  A    between atoms: C_14  and  O_16
REMARK    5  A    between atoms: C_21  and  C_22
REMARK                            x       y       z     vdW  Elec       q    Type
REMARK                         _______ _______ _______ _____ _____    ______ ____
ROOT
ATOM      1  C   UNL     1       4.333   5.411  17.928  0.00  0.00    +0.000 A 
ATOM      2  C   UNL     1       3.495   6.512  17.971  0.00  0.00    +0.000 A 
ATOM      3  N   UNL     1       2.842   6.569  19.185  0.00  0.00    +0.000 N 
ATOM      4  C   UNL     1       2.004   7.620  19.667  0.00  0.00    +0.000 A 
ATOM      5  C   UNL     1       1.789   8.752  18.887  0.00  0.00    +0.000 A 
ATOM      6  C   UNL     1       0.954   9.754  19.387  0.00  0.00    +0.000 A 
ATOM      7  C   UNL     1       0.408   9.630  20.661  0.00  0.00    +0.000 A 
ATOM      8  C   UNL     1       0.689   8.483  21.374  0.00  0.00    +0.000 A 
ATOM      9  N   UNL     1       1.456   7.476  20.900  0.00  0.00    +0.000 NA
ATOM     10  C   UNL     1       3.136   5.404  19.860  0.00  0.00    +0.000 A 
ATOM     11  C   UNL     1       4.030   4.664  19.110  0.00  0.00    +0.000 A 
ENDROOT
BRANCH   1  18
ATOM     12  C   UNL     1       7.282   6.311  17.895  0.00  0.00    +0.000 C 
ATOM     13  C   UNL     1       6.608   5.535  16.792  0.00  0.00    +0.000 A 
ATOM     14  C   UNL     1       7.412   5.200  15.683  0.00  0.00    +0.000 A 
ATOM     15  C   UNL     1       6.903   4.467  14.616  0.00  0.00    +0.000 A 
ATOM     16  C   UNL     1       5.571   4.077  14.625  0.00  0.00    +0.000 A 
ATOM     17  C   UNL     1       4.751   4.421  15.702  0.00  0.00    +0.000 A 
ATOM     18  C   UNL     1       5.244   5.139  16.807  0.00  0.00    +0.000 A 
ENDBRANCH   1  18
BRANCH   6  19
ATOM     19  C   UNL     1       0.675  10.990  18.616  0.00  0.00    +0.000 C 
ATOM     20  O   UNL     1      -0.406  11.547  18.643  0.00  0.00    +0.000 OA
BRANCH  19  21
ATOM     21  O   UNL     1       1.712  11.419  17.866  0.00  0.00    +0.000 OA
ATOM     22  H   UNL     1       2.035  12.319  18.048  0.00  0.00    +0.000 HD
ENDBRANCH  19  21
ENDBRANCH   6  19
BRANCH  11  23
ATOM     23  C   UNL     1       4.524   3.375  19.507  0.00  0.00    +0.000 C 
ATOM     24  N   UNL     1       4.898   2.340  19.874  0.00  0.00    +0.000 NA
ENDBRANCH  11  23
TORSDOF 4
ENDMDL
MODEL 2
REMARK VINA RESULT:      -7.6      4.377      7.610
REMARK  Name = 
REMARK  5 active torsions:
REMARK  status: ('A' for Active; 'I' for Inactive)
REMARK    1  A    between atoms: C_1  and  C_2
REMARK    2  A    between atoms: C_7  and  C_8
REMARK    3  A    between atoms: C_13  and  C_14
REMARK    4  A    between atoms: C_14  and  O_16
REMARK    5  A    between atoms: C_21  and  C_22
REMARK                            x       y       z     vdW  Elec       q    Type
REMARK                         _______ _______ _______ _____ _____    ______ ____
ROOT
ATOM      1  C   UNL     1       5.376   4.342  18.138  0.00  0.00    +0.000 A 
ATOM      2  C   UNL     1       5.158   4.208  16.777  0.00  0.00    +0.000 A 
ATOM      3  N   UNL     1       6.282   4.587  16.074  0.00  0.00    +0.000 N 
ATOM      4  C   UNL     1       6.504   4.464  14.668  0.00  0.00    +0.000 A 
ATOM      5  C   UNL     1       5.528   3.895  13.856  0.00  0.00    +0.000 A 
ATOM      6  C   UNL     1       5.776   3.803  12.485  0.00  0.00    +0.000 A 
ATOM      7  C   UNL     1       6.999   4.222  11.971  0.00  0.00    +0.000 A 
ATOM      8  C   UNL     1       7.918   4.758  12.850  0.00  0.00    +0.000 A 
ATOM      9  N   UNL     1       7.690   4.902  14.175  0.00  0.00    +0.000 NA
ATOM     10  C   UNL     1       7.168   5.127  16.981  0.00  0.00    +0.000 A 
ATOM     11  C   UNL     1       6.635   5.011  18.251  0.00  0.00    +0.000 A 
ENDROOT
BRANCH   1  18
ATOM     12  C   UNL     1       3.106   6.158  19.163  0.00  0.00    +0.000 C 
ATOM     13  C   UNL     1       3.343   4.740  19.617  0.00  0.00    +0.000 A 
ATOM     14  C   UNL     1       2.438   4.230  20.571  0.00  0.00    +0.000 A 
ATOM     15  C   UNL     1       2.546   2.927  21.046  0.00  0.00    +0.000 A 
ATOM     16  C   UNL     1       3.578   2.117  20.596  0.00  0.00    +0.000 A 
ATOM     17  C   UNL     1       4.501   2.611  19.671  0.00  0.00    +0.000 A 
ATOM     18  C   UNL     1       4.401   3.915  19.152  0.00  0.00    +0.000 A 
ENDBRANCH   1  18
BRANCH   6  19
ATOM     19  C   UNL     1       4.786   3.208  11.554  0.00  0.00    +0.000 C 
ATOM     20  O   UNL     1       3.829   3.831  11.134  0.00  0.00    +0.000 OA
BRANCH  19  21
ATOM     21  O   UNL     1       5.025   1.917  11.244  0.00  0.00    +0.000 OA
ATOM     22  H   UNL     1       4.438   1.515  10.580  0.00  0.00    +0.000 HD
ENDBRANCH  19  21
ENDBRANCH   6  19
BRANCH  11  23
ATOM     23  C   UNL     1       7.286   5.502  19.433  0.00  0.00    +0.000 C 
ATOM     24  N   UNL     1       7.769   5.884  20.416  0.00  0.00    +0.000 NA
ENDBRANCH  11  23
TORSDOF 4
ENDMDL
MODEL 3
REMARK VINA RESULT:      -7.4      4.574      7.674
REMARK  Name = 
REMARK  5 active torsions:
REMARK  status: ('A' for Active; 'I' for Inactive)
REMARK    1  A    between atoms: C_1  and  C_2
REMARK    2  A    between atoms: C_7  and  C_8
REMARK    3  A    between atoms: C_13  and  C_14
REMARK    4  A    between atoms: C_14  and  O_16
REMARK    5  A    between atoms: C_21  and  C_22
REMARK                            x       y       z     vdW  Elec       q    Type
REMARK                         _______ _______ _______ _____ _____    ______ ____
ROOT
ATOM      1  C   UNL     1       4.925   4.351  17.960  0.00  0.00    +0.000 A 
ATOM      2  C   UNL     1       4.767   4.228  16.590  0.00  0.00    +0.000 A 
ATOM      3  N   UNL     1       5.958   4.491  15.946  0.00  0.00    +0.000 N 
ATOM      4  C   UNL     1       6.240   4.336  14.555  0.00  0.00    +0.000 A 
ATOM      5  C   UNL     1       5.257   3.857  13.694  0.00  0.00    +0.000 A 
ATOM      6  C   UNL     1       5.567   3.731  12.338  0.00  0.00    +0.000 A 
ATOM      7  C   UNL     1       6.849   4.026  11.888  0.00  0.00    +0.000 A 
ATOM      8  C   UNL     1       7.769   4.477  12.814  0.00  0.00    +0.000 A 
ATOM      9  N   UNL     1       7.487   4.653  14.124  0.00  0.00    +0.000 NA
ATOM     10  C   UNL     1       6.843   4.949  16.898  0.00  0.00    +0.000 A 
ATOM     11  C   UNL     1       6.236   4.895  18.138  0.00  0.00    +0.000 A 
ENDROOT
BRANCH   1  18
ATOM     12  C   UNL     1       3.772   1.513  18.311  0.00  0.00    +0.000 C 
ATOM     13  C   UNL     1       3.339   2.721  19.103  0.00  0.00    +0.000 A 
ATOM     14  C   UNL     1       2.340   2.504  20.075  0.00  0.00    +0.000 A 
ATOM     15  C   UNL     1       1.878   3.541  20.880  0.00  0.00    +0.000 A 
ATOM     16  C   UNL     1       2.386   4.820  20.709  0.00  0.00    +0.000 A 
ATOM     17  C   UNL     1       3.356   5.062  19.733  0.00  0.00    +0.000 A 
ATOM     18  C   UNL     1       3.862   4.029  18.923  0.00  0.00    +0.000 A 
ENDBRANCH   1  18
BRANCH   6  19
ATOM     19  C   UNL     1       4.573   3.228  11.358  0.00  0.00    +0.000 C 
ATOM     20  O   UNL     1       3.720   3.943  10.867  0.00  0.00    +0.000 OA
BRANCH  19  21
ATOM     21  O   UNL     1       4.683   1.911  11.086  0.00  0.00    +0.000 OA
ATOM     22  H   UNL     1       4.320   1.299  11.751  0.00  0.00    +0.000 HD
ENDBRANCH  19  21
ENDBRANCH   6  19
BRANCH  11  23
ATOM     23  C   UNL     1       6.869   5.330  19.352  0.00  0.00    +0.000 C 
ATOM     24  N   UNL     1       7.420   5.648  20.322  0.00  0.00    +0.000 NA
ENDBRANCH  11  23
TORSDOF 4
ENDMDL
MODEL 4
REMARK VINA RESULT:      -7.3      2.669      7.514
REMARK  Name = 
REMARK  5 active torsions:
REMARK  status: ('A' for Active; 'I' for Inactive)
REMARK    1  A    between atoms: C_1  and  C_2
REMARK    2  A    between atoms: C_7  and  C_8
REMARK    3  A    between atoms: C_13  and  C_14
REMARK    4  A    between atoms: C_14  and  O_16
REMARK    5  A    between atoms: C_21  and  C_22
REMARK                            x       y       z     vdW  Elec       q    Type
REMARK                         _______ _______ _______ _____ _____    ______ ____
ROOT
ATOM      1  C   UNL     1       0.968   9.669  19.645  0.00  0.00    +0.000 A 
ATOM      2  C   UNL     1       1.904   8.931  18.941  0.00  0.00    +0.000 A 
ATOM      3  N   UNL     1       2.113   7.714  19.555  0.00  0.00    +0.000 N 
ATOM      4  C   UNL     1       2.894   6.623  19.066  0.00  0.00    +0.000 A 
ATOM      5  C   UNL     1       3.532   6.720  17.832  0.00  0.00    +0.000 A 
ATOM      6  C   UNL     1       4.296   5.637  17.393  0.00  0.00    +0.000 A 
ATOM      7  C   UNL     1       4.358   4.476  18.157  0.00  0.00    +0.000 A 
ATOM      8  C   UNL     1       3.680   4.458  19.359  0.00  0.00    +0.000 A 
ATOM      9  N   UNL     1       2.969   5.506  19.832  0.00  0.00    +0.000 NA
ATOM     10  C   UNL     1       1.433   7.740  20.753  0.00  0.00    +0.000 A 
ATOM     11  C   UNL     1       0.738   8.930  20.849  0.00  0.00    +0.000 A 
ENDROOT
BRANCH   1  18
ATOM     12  C   UNL     1      -1.730   9.991  18.189  0.00  0.00    +0.000 C 
ATOM     13  C   UNL     1      -0.796  11.125  18.526  0.00  0.00    +0.000 A 
ATOM     14  C   UNL     1      -1.218  12.415  18.147  0.00  0.00    +0.000 A 
ATOM     15  C   UNL     1      -0.447  13.540  18.426  0.00  0.00    +0.000 A 
ATOM     16  C   UNL     1       0.775  13.391  19.066  0.00  0.00    +0.000 A 
ATOM     17  C   UNL     1       1.224  12.118  19.427  0.00  0.00    +0.000 A 
ATOM     18  C   UNL     1       0.454  10.966  19.182  0.00  0.00    +0.000 A 
ENDBRANCH   1  18
BRANCH   6  19
ATOM     19  C   UNL     1       5.006   5.665  16.091  0.00  0.00    +0.000 C 
ATOM     20  O   UNL     1       5.290   6.703  15.523  0.00  0.00    +0.000 OA
BRANCH  19  21
ATOM     21  O   UNL     1       5.277   4.444  15.585  0.00  0.00    +0.000 OA
ATOM     22  H   UNL     1       5.962   3.926  16.044  0.00  0.00    +0.000 HD
ENDBRANCH  19  21
ENDBRANCH   6  19
BRANCH  11  23
ATOM     23  C   UNL     1      -0.055   9.298  21.989  0.00  0.00    +0.000 C 
ATOM     24  N   UNL     1      -0.659   9.633  22.920  0.00  0.00    +0.000 NA
ENDBRANCH  11  23
TORSDOF 4
ENDMDL
MODEL 5
REMARK VINA RESULT:      -7.2      2.825      3.897
REMARK  Name = 
REMARK  5 active torsions:
REMARK  status: ('A' for Active; 'I' for Inactive)
REMARK    1  A    between atoms: C_1  and  C_2
REMARK    2  A    between atoms: C_7  and  C_8
REMARK    3  A    between atoms: C_13  and  C_14
REMARK    4  A    between atoms: C_14  and  O_16
REMARK    5  A    between atoms: C_21  and  C_22
REMARK                            x       y       z     vdW  Elec       q    Type
REMARK                         _______ _______ _______ _____ _____    ______ ____
ROOT
ATOM      1  C   UNL     1       2.927   6.124  18.427  0.00  0.00    +0.000 A 
ATOM      2  C   UNL     1       2.260   6.871  19.384  0.00  0.00    +0.000 A 
ATOM      3  N   UNL     1       2.209   8.196  19.006  0.00  0.00    +0.000 N 
ATOM      4  C   UNL     1       1.493   9.251  19.651  0.00  0.00    +0.000 A 
ATOM      5  C   UNL     1       0.729   8.984  20.783  0.00  0.00    +0.000 A 
ATOM      6  C   UNL     1       0.054  10.043  21.392  0.00  0.00    +0.000 A 
ATOM      7  C   UNL     1       0.109  11.315  20.833  0.00  0.00    +0.000 A 
ATOM      8  C   UNL     1       0.876  11.488  19.698  0.00  0.00    +0.000 A 
ATOM      9  N   UNL     1       1.577  10.493  19.111  0.00  0.00    +0.000 NA
ATOM     10  C   UNL     1       2.994   8.330  17.882  0.00  0.00    +0.000 A 
ATOM     11  C   UNL     1       3.465   7.084  17.512  0.00  0.00    +0.000 A 
ENDROOT
BRANCH   1  18
ATOM     12  C   UNL     1       5.519   4.689  19.277  0.00  0.00    +0.000 C 
ATOM     13  C   UNL     1       4.236   3.993  18.900  0.00  0.00    +0.000 A 
ATOM     14  C   UNL     1       4.249   2.585  18.961  0.00  0.00    +0.000 A 
ATOM     15  C   UNL     1       3.116   1.837  18.656  0.00  0.00    +0.000 A 
ATOM     16  C   UNL     1       1.955   2.484  18.258  0.00  0.00    +0.000 A 
ATOM     17  C   UNL     1       1.929   3.878  18.164  0.00  0.00    +0.000 A 
ATOM     18  C   UNL     1       3.051   4.661  18.492  0.00  0.00    +0.000 A 
ENDBRANCH   1  18
BRANCH   6  19
ATOM     19  C   UNL     1      -0.781   9.839  22.602  0.00  0.00    +0.000 C 
ATOM     20  O   UNL     1      -1.264  10.765  23.226  0.00  0.00    +0.000 OA
BRANCH  19  21
ATOM     21  O   UNL     1      -0.929   8.546  22.959  0.00  0.00    +0.000 OA
ATOM     22  H   UNL     1      -0.580   8.295  23.833  0.00  0.00    +0.000 HD
ENDBRANCH  19  21
ENDBRANCH   6  19
BRANCH  11  23
ATOM     23  C   UNL     1       4.341   6.865  16.396  0.00  0.00    +0.000 C 
ATOM     24  N   UNL     1       5.090   6.683  15.529  0.00  0.00    +0.000 NA
ENDBRANCH  11  23
TORSDOF 4
ENDMDL
MODEL 6
REMARK VINA RESULT:      -7.1      1.126      1.244
REMARK  Name = 
REMARK  5 active torsions:
REMARK  status: ('A' for Active; 'I' for Inactive)
REMARK    1  A    between atoms: C_1  and  C_2
REMARK    2  A    between atoms: C_7  and  C_8
REMARK    3  A    between atoms: C_13  and  C_14
REMARK    4  A    between atoms: C_14  and  O_16
REMARK    5  A    between atoms: C_21  and  C_22
REMARK                            x       y       z     vdW  Elec       q    Type
REMARK                         _______ _______ _______ _____ _____    ______ ____
ROOT
ATOM      1  C   UNL     1       3.880   5.915  18.262  0.00  0.00    +0.000 A 
ATOM      2  C   UNL     1       3.308   7.170  18.136  0.00  0.00    +0.000 A 
ATOM      3  N   UNL     1       2.378   7.373  19.133  0.00  0.00    +0.000 N 
ATOM      4  C   UNL     1       1.677   8.582  19.428  0.00  0.00    +0.000 A 
ATOM      5  C   UNL     1       1.920   9.729  18.677  0.00  0.00    +0.000 A 
ATOM      6  C   UNL     1       1.208  10.889  18.987  0.00  0.00    +0.000 A 
ATOM      7  C   UNL     1       0.324  10.894  20.061  0.00  0.00    +0.000 A 
ATOM      8  C   UNL     1       0.157   9.718  20.765  0.00  0.00    +0.000 A 
ATOM      9  N   UNL     1       0.798   8.568  20.461  0.00  0.00    +0.000 NA
ATOM     10  C   UNL     1       2.230   6.178  19.802  0.00  0.00    +0.000 A 
ATOM     11  C   UNL     1       3.120   5.258  19.281  0.00  0.00    +0.000 A 
ENDROOT
BRANCH   1  18
ATOM     12  C   UNL     1       6.730   5.412  19.323  0.00  0.00    +0.000 C 
ATOM     13  C   UNL     1       6.294   5.196  17.896  0.00  0.00    +0.000 A 
ATOM     14  C   UNL     1       7.279   4.717  17.008  0.00  0.00    +0.000 A 
ATOM     15  C   UNL     1       6.986   4.460  15.673  0.00  0.00    +0.000 A 
ATOM     16  C   UNL     1       5.707   4.703  15.193  0.00  0.00    +0.000 A 
ATOM     17  C   UNL     1       4.723   5.203  16.050  0.00  0.00    +0.000 A 
ATOM     18  C   UNL     1       4.983   5.446  17.411  0.00  0.00    +0.000 A 
ENDBRANCH   1  18
BRANCH   6  19
ATOM     19  C   UNL     1       1.410  12.150  18.233  0.00  0.00    +0.000 C 
ATOM     20  O   UNL     1       0.639  13.088  18.309  0.00  0.00    +0.000 OA
BRANCH  19  21
ATOM     21  O   UNL     1       2.501  12.149  17.439  0.00  0.00    +0.000 OA
ATOM     22  H   UNL     1       2.354  11.945  16.499  0.00  0.00    +0.000 HD
ENDBRANCH  19  21
ENDBRANCH   6  19
BRANCH  11  23
ATOM     23  C   UNL     1       3.210   3.897  19.729  0.00  0.00    +0.000 C 
ATOM     24  N   UNL     1       3.329   2.809  20.114  0.00  0.00    +0.000 NA
ENDBRANCH  11  23
TORSDOF 4
ENDMDL
MODEL 7
REMARK VINA RESULT:      -7.1      1.640      2.776
REMARK  Name = 
REMARK  5 active torsions:
REMARK  status: ('A' for Active; 'I' for Inactive)
REMARK    1  A    between atoms: C_1  and  C_2
REMARK    2  A    between atoms: C_7  and  C_8
REMARK    3  A    between atoms: C_13  and  C_14
REMARK    4  A    between atoms: C_14  and  O_16
REMARK    5  A    between atoms: C_21  and  C_22
REMARK                            x       y       z     vdW  Elec       q    Type
REMARK                         _______ _______ _______ _____ _____    ______ ____
ROOT
ATOM      1  C   UNL     1       2.723   6.180  19.353  0.00  0.00    +0.000 A 
ATOM      2  C   UNL     1       2.241   7.451  19.088  0.00  0.00    +0.000 A 
ATOM      3  N   UNL     1       1.510   7.917  20.161  0.00  0.00    +0.000 N 
ATOM      4  C   UNL     1       0.969   9.228  20.333  0.00  0.00    +0.000 A 
ATOM      5  C   UNL     1       1.174  10.200  19.358  0.00  0.00    +0.000 A 
ATOM      6  C   UNL     1       0.619  11.466  19.556  0.00  0.00    +0.000 A 
ATOM      7  C   UNL     1      -0.069  11.746  20.732  0.00  0.00    +0.000 A 
ATOM      8  C   UNL     1      -0.210  10.729  21.654  0.00  0.00    +0.000 A 
ATOM      9  N   UNL     1       0.277   9.481  21.472  0.00  0.00    +0.000 NA
ATOM     10  C   UNL     1       1.381   6.873  21.051  0.00  0.00    +0.000 A 
ATOM     11  C   UNL     1       2.094   5.789  20.577  0.00  0.00    +0.000 A 
ENDROOT
BRANCH   1  18
ATOM     12  C   UNL     1       1.809   3.829  17.581  0.00  0.00    +0.000 C 
ATOM     13  C   UNL     1       3.209   4.387  17.613  0.00  0.00    +0.000 A 
ATOM     14  C   UNL     1       4.144   3.777  16.751  0.00  0.00    +0.000 A 
ATOM     15  C   UNL     1       5.460   4.223  16.680  0.00  0.00    +0.000 A 
ATOM     16  C   UNL     1       5.874   5.270  17.490  0.00  0.00    +0.000 A 
ATOM     17  C   UNL     1       4.970   5.870  18.371  0.00  0.00    +0.000 A 
ATOM     18  C   UNL     1       3.627   5.459  18.445  0.00  0.00    +0.000 A 
ENDBRANCH   1  18
BRANCH   6  19
ATOM     19  C   UNL     1       0.794  12.554  18.563  0.00  0.00    +0.000 C 
ATOM     20  O   UNL     1      -0.036  13.429  18.401  0.00  0.00    +0.000 OA
BRANCH  19  21
ATOM     21  O   UNL     1       1.932  12.468  17.844  0.00  0.00    +0.000 OA
ATOM     22  H   UNL     1       2.761  12.660  18.319  0.00  0.00    +0.000 HD
ENDBRANCH  19  21
ENDBRANCH   6  19
BRANCH  11  23
ATOM     23  C   UNL     1       2.148   4.519  21.246  0.00  0.00    +0.000 C 
ATOM     24  N   UNL     1       2.204   3.471  21.740  0.00  0.00    +0.000 NA
ENDBRANCH  11  23
TORSDOF 4
ENDMDL
MODEL 8
REMARK VINA RESULT:      -7.1      2.817      4.180
REMARK  Name = 
REMARK  5 active torsions:
REMARK  status: ('A' for Active; 'I' for Inactive)
REMARK    1  A    between atoms: C_1  and  C_2
REMARK    2  A    between atoms: C_7  and  C_8
REMARK    3  A    between atoms: C_13  and  C_14
REMARK    4  A    between atoms: C_14  and  O_16
REMARK    5  A    between atoms: C_21  and  C_22
REMARK                            x       y       z     vdW  Elec       q    Type
REMARK                         _______ _______ _______ _____ _____    ______ ____
ROOT
ATOM      1  C   UNL     1       3.038   6.121  18.652  0.00  0.00    +0.000 A 
ATOM      2  C   UNL     1       2.345   6.888  19.573  0.00  0.00    +0.000 A 
ATOM      3  N   UNL     1       2.206   8.180  19.112  0.00  0.00    +0.000 N 
ATOM      4  C   UNL     1       1.440   9.231  19.702  0.00  0.00    +0.000 A 
ATOM      5  C   UNL     1       0.713   8.994  20.865  0.00  0.00    +0.000 A 
ATOM      6  C   UNL     1      -0.014  10.049  21.420  0.00  0.00    +0.000 A 
ATOM      7  C   UNL     1      -0.046  11.283  20.778  0.00  0.00    +0.000 A 
ATOM      8  C   UNL     1       0.689  11.426  19.618  0.00  0.00    +0.000 A 
ATOM      9  N   UNL     1       1.438  10.437  19.082  0.00  0.00    +0.000 NA
ATOM     10  C   UNL     1       2.962   8.286  17.964  0.00  0.00    +0.000 A 
ATOM     11  C   UNL     1       3.501   7.049  17.666  0.00  0.00    +0.000 A 
ENDROOT
BRANCH   1  18
ATOM     12  C   UNL     1       1.153   3.998  17.452  0.00  0.00    +0.000 C 
ATOM     13  C   UNL     1       2.398   3.692  18.244  0.00  0.00    +0.000 A 
ATOM     14  C   UNL     1       2.703   2.327  18.424  0.00  0.00    +0.000 A 
ATOM     15  C   UNL     1       3.839   1.925  19.120  0.00  0.00    +0.000 A 
ATOM     16  C   UNL     1       4.677   2.882  19.674  0.00  0.00    +0.000 A 
ATOM     17  C   UNL     1       4.379   4.239  19.531  0.00  0.00    +0.000 A 
ATOM     18  C   UNL     1       3.252   4.675  18.809  0.00  0.00    +0.000 A 
ENDBRANCH   1  18
BRANCH   6  19
ATOM     19  C   UNL     1      -0.813   9.876  22.658  0.00  0.00    +0.000 C 
ATOM     20  O   UNL     1      -1.310  10.814  23.251  0.00  0.00    +0.000 OA
BRANCH  19  21
ATOM     21  O   UNL     1      -0.912   8.597  23.077  0.00  0.00    +0.000 OA
ATOM     22  H   UNL     1      -0.216   7.987  22.774  0.00  0.00    +0.000 HD
ENDBRANCH  19  21
ENDBRANCH   6  19
BRANCH  11  23
ATOM     23  C   UNL     1       4.369   6.810  16.548  0.00  0.00    +0.000 C 
ATOM     24  N   UNL     1       5.112   6.630  15.675  0.00  0.00    +0.000 NA
ENDBRANCH  11  23
TORSDOF 4
ENDMDL
MODEL 9
REMARK VINA RESULT:      -7.0      2.633      7.278
REMARK  Name = 
REMARK  5 active torsions:
REMARK  status: ('A' for Active; 'I' for Inactive)
REMARK    1  A    between atoms: C_1  and  C_2
REMARK    2  A    between atoms: C_7  and  C_8
REMARK    3  A    between atoms: C_13  and  C_14
REMARK    4  A    between atoms: C_14  and  O_16
REMARK    5  A    between atoms: C_21  and  C_22
REMARK                            x       y       z     vdW  Elec       q    Type
REMARK                         _______ _______ _______ _____ _____    ______ ____
ROOT
ATOM      1  C   UNL     1       0.865   9.175  19.459  0.00  0.00    +0.000 A 
ATOM      2  C   UNL     1       1.837   8.540  18.703  0.00  0.00    +0.000 A 
ATOM      3  N   UNL     1       2.356   7.466  19.397  0.00  0.00    +0.000 N 
ATOM      4  C   UNL     1       3.272   6.485  18.911  0.00  0.00    +0.000 A 
ATOM      5  C   UNL     1       3.724   6.545  17.596  0.00  0.00    +0.000 A 
ATOM      6  C   UNL     1       4.629   5.575  17.160  0.00  0.00    +0.000 A 
ATOM      7  C   UNL     1       5.012   4.548  18.017  0.00  0.00    +0.000 A 
ATOM      8  C   UNL     1       4.500   4.553  19.299  0.00  0.00    +0.000 A 
ATOM      9  N   UNL     1       3.659   5.503  19.764  0.00  0.00    +0.000 NA
ATOM     10  C   UNL     1       1.833   7.514  20.671  0.00  0.00    +0.000 A 
ATOM     11  C   UNL     1       0.933   8.560  20.748  0.00  0.00    +0.000 A 
ENDROOT
BRANCH   1  18
ATOM     12  C   UNL     1       1.458  12.129  20.111  0.00  0.00    +0.000 C 
ATOM     13  C   UNL     1       0.331  11.653  19.231  0.00  0.00    +0.000 A 
ATOM     14  C   UNL     1      -0.488  12.654  18.670  0.00  0.00    +0.000 A 
ATOM     15  C   UNL     1      -1.546  12.334  17.825  0.00  0.00    +0.000 A 
ATOM     16  C   UNL     1      -1.822  11.003  17.546  0.00  0.00    +0.000 A 
ATOM     17  C   UNL     1      -1.039   9.995  18.113  0.00  0.00    +0.000 A 
ATOM     18  C   UNL     1       0.053  10.289  18.949  0.00  0.00    +0.000 A 
ENDBRANCH   1  18
BRANCH   6  19
ATOM     19  C   UNL     1       5.157   5.572  15.774  0.00  0.00    +0.000 C 
ATOM     20  O   UNL     1       5.534   4.556  15.220  0.00  0.00    +0.000 OA
BRANCH  19  21
ATOM     21  O   UNL     1       5.209   6.792  15.200  0.00  0.00    +0.000 OA
ATOM     22  H   UNL     1       5.266   6.812  14.228  0.00  0.00    +0.000 HD
ENDBRANCH  19  21
ENDBRANCH   6  19
BRANCH  11  23
ATOM     23  C   UNL     1       0.227   8.913  21.948  0.00  0.00    +0.000 C 
ATOM     24  N   UNL     1      -0.352   9.247  22.897  0.00  0.00    +0.000 NA
ENDBRANCH  11  23
TORSDOF 4
ENDMDL
