MODEL 1
REMARK VINA RESULT:      -7.1      0.000      0.000
REMARK  Name = 
REMARK  13 active torsions:
REMARK  status: ('A' for Active; 'I' for Inactive)
REMARK    1  A    between atoms: CD1_1  and  CG_2
REMARK    2  A    between atoms: CG_2  and  CD2_3
REMARK    3  A    between atoms: CG_2  and  CB_4
REMARK    4  A    between atoms: CB_4  and  CA_5
REMARK    5  A    between atoms: CA_5  and  N_6
REMARK    6  A    between atoms: CA_5  and  C_34
REMARK    7  A    between atoms: C_7  and  C_9
REMARK    8  A    between atoms: C_9  and  C_10
REMARK    9  A    between atoms: C_12  and  O_13
REMARK   10  A    between atoms: C_19  and  O_20
REMARK   11  A    between atoms: N_26  and  C_27
REMARK   12  A    between atoms: C_27  and  C_28
REMARK   13  A    between atoms: C_34  and  OXT_36
REMARK                            x       y       z     vdW  Elec       q    Type
REMARK                         _______ _______ _______ _____ _____    ______ ____
ROOT
ATOM      1  C   UNK A   0       0.586   9.202  20.329  0.00  0.00    +0.000 C 
ATOM      2  C   UNK A   0      -0.419   9.868  19.304  0.00  0.00    +0.000 C 
ATOM      3  C   UNK A   0      -0.218  11.401  19.549  0.00  0.00    +0.000 C 
ATOM      4  C   UNK A   0      -0.908  12.663  18.982  0.00  0.00    +0.000 C 
ATOM      5  C   UNK A   0      -2.305  12.894  19.639  0.00  0.00    +0.000 C 
ATOM      6  C   UNK A   0      -2.140  13.335  21.067  0.00  0.00    +0.000 A 
ATOM      7  C   UNK A   0      -2.968  14.311  21.671  0.00  0.00    +0.000 A 
ATOM      8  C   UNK A   0      -2.641  14.851  22.921  0.00  0.00    +0.000 A 
ATOM      9  C   UNK A   0      -1.516  14.402  23.587  0.00  0.00    +0.000 A 
ATOM     10  C   UNK A   0      -0.758  13.373  23.059  0.00  0.00    +0.000 A 
ATOM     11  C   UNK A   0      -1.053  12.841  21.783  0.00  0.00    +0.000 A 
ATOM     12  C   UNK A   0      -0.116  11.756  21.155  0.00  0.00    +0.000 C 
ATOM     13  C   UNK A   0       1.269  12.452  21.179  0.00  0.00    +0.000 C 
ATOM     14  C   UNK A   0       1.259  13.619  20.103  0.00  0.00    +0.000 C 
ATOM     15  N   UNK A   0       0.015  13.812  19.308  0.00  0.00    +0.000 NA
ATOM     16  C   UNK A   0      -0.576  10.546  22.061  0.00  0.00    +0.000 C 
ATOM     17  C   UNK A   0      -0.192   9.170  21.582  0.00  0.00    +0.000 C 
ATOM     18  O   UNK A   0      -0.560   8.120  22.098  0.00  0.00    +0.000 OA
ENDROOT
BRANCH   3  19
ATOM     19  O   UNK A   0       1.094  11.413  18.830  0.00  0.00    +0.000 OA
ATOM     20  H   UNK A   0       1.662  12.087  19.253  0.00  0.00    +0.000 HD
ENDBRANCH   3  19
BRANCH   9  21
ATOM     21  O   UNK A   0      -1.082  14.959  24.754  0.00  0.00    +0.000 OA
ATOM     22  H   UNK A   0      -1.815  14.943  25.388  0.00  0.00    +0.000 HD
ENDBRANCH   9  21
BRANCH   1  23
ATOM     23  C   UNK A   0       1.715   8.200  20.257  0.00  0.00    +0.000 C 
BRANCH  23  25
ATOM     24  N   LEU A   1       2.468   6.258  19.039  0.00  0.00    +0.000 N 
ATOM     25  C   UNK A   0       2.162   7.596  18.977  0.00  0.00    +0.000 C 
ATOM     26  O   UNK A   0       2.337   8.285  17.978  0.00  0.00    +0.000 OA
ATOM     27  H   LEU A   1       2.669   5.874  19.963  0.00  0.00    +0.000 HD
BRANCH  24  28
ATOM     28  CA  LEU A   1       3.110   5.636  17.863  0.00  0.00    +0.000 C 
BRANCH  28  29
ATOM     29  C   LEU A   1       2.547   4.223  17.680  0.00  0.00    +0.000 C 
ATOM     30  O   LEU A   1       3.211   3.197  17.695  0.00  0.00    +0.000 OA
BRANCH  29  31
ATOM     31  OXT LEU A   1       1.213   4.201  17.436  0.00  0.00    +0.000 OA
ATOM     32  HXT LEU A   1       0.744   4.708  18.130  0.00  0.00    +0.000 HD
ENDBRANCH  29  31
ENDBRANCH  28  29
BRANCH  28  33
ATOM     33  CB  LEU A   1       4.646   5.681  17.987  0.00  0.00    +0.000 C 
BRANCH  33  35
ATOM     34  CD1 LEU A   1       6.792   6.933  17.336  0.00  0.00    +0.000 C 
ATOM     35  CG  LEU A   1       5.367   6.550  16.928  0.00  0.00    +0.000 C 
ATOM     36  CD2 LEU A   1       5.402   5.834  15.575  0.00  0.00    +0.000 C 
ENDBRANCH  33  35
ENDBRANCH  28  33
ENDBRANCH  24  28
ENDBRANCH  23  25
ENDBRANCH   1  23
BRANCH  15  37
ATOM     37  C   UNK A   0      -0.075  15.034  18.543  0.00  0.00    +0.000 C 
BRANCH  37  38
ATOM     38  C   UNK A   0      -0.270  16.213  19.443  0.00  0.00    +0.000 C 
ATOM     39  C   UNK A   0      -0.357  17.600  18.858  0.00  0.00    +0.000 C 
ATOM     40  C   UNK A   0      -1.581  16.963  19.453  0.00  0.00    +0.000 C 
ENDBRANCH  37  38
ENDBRANCH  15  37
TORSDOF 11
ENDMDL
MODEL 2
REMARK VINA RESULT:      -7.0      1.609      1.940
REMARK  Name = 
REMARK  13 active torsions:
REMARK  status: ('A' for Active; 'I' for Inactive)
REMARK    1  A    between atoms: CD1_1  and  CG_2
REMARK    2  A    between atoms: CG_2  and  CD2_3
REMARK    3  A    between atoms: CG_2  and  CB_4
REMARK    4  A    between atoms: CB_4  and  CA_5
REMARK    5  A    between atoms: CA_5  and  N_6
REMARK    6  A    between atoms: CA_5  and  C_34
REMARK    7  A    between atoms: C_7  and  C_9
REMARK    8  A    between atoms: C_9  and  C_10
REMARK    9  A    between atoms: C_12  and  O_13
REMARK   10  A    between atoms: C_19  and  O_20
REMARK   11  A    between atoms: N_26  and  C_27
REMARK   12  A    between atoms: C_27  and  C_28
REMARK   13  A    between atoms: C_34  and  OXT_36
REMARK                            x       y       z     vdW  Elec       q    Type
REMARK                         _______ _______ _______ _____ _____    ______ ____
ROOT
ATOM      1  C   UNK A   0       1.007   9.182  19.842  0.00  0.00    +0.000 C 
ATOM      2  C   UNK A   0      -0.054   9.804  18.846  0.00  0.00    +0.000 C 
ATOM      3  C   UNK A   0       0.024  11.338  19.151  0.00  0.00    +0.000 C 
ATOM      4  C   UNK A   0      -0.769  12.561  18.636  0.00  0.00    +0.000 C 
ATOM      5  C   UNK A   0      -2.177  12.653  19.303  0.00  0.00    +0.000 C 
ATOM      6  C   UNK A   0      -2.041  13.049  20.747  0.00  0.00    +0.000 A 
ATOM      7  C   UNK A   0      -2.942  13.931  21.391  0.00  0.00    +0.000 A 
ATOM      8  C   UNK A   0      -2.653  14.447  22.660  0.00  0.00    +0.000 A 
ATOM      9  C   UNK A   0      -1.492  14.065  23.306  0.00  0.00    +0.000 A 
ATOM     10  C   UNK A   0      -0.656  13.121  22.736  0.00  0.00    +0.000 A 
ATOM     11  C   UNK A   0      -0.913  12.617  21.441  0.00  0.00    +0.000 A 
ATOM     12  C   UNK A   0       0.104  11.637  20.769  0.00  0.00    +0.000 C 
ATOM     13  C   UNK A   0       1.428  12.442  20.818  0.00  0.00    +0.000 C 
ATOM     14  C   UNK A   0       1.320  13.645  19.789  0.00  0.00    +0.000 C 
ATOM     15  N   UNK A   0       0.059  13.767  19.005  0.00  0.00    +0.000 NA
ATOM     16  C   UNK A   0      -0.251  10.359  21.628  0.00  0.00    +0.000 C 
ATOM     17  C   UNK A   0       0.240   9.039  21.094  0.00  0.00    +0.000 C 
ATOM     18  O   UNK A   0      -0.040   7.943  21.569  0.00  0.00    +0.000 OA
ENDROOT
BRANCH   3  19
ATOM     19  O   UNK A   0       1.327  11.484  18.431  0.00  0.00    +0.000 OA
ATOM     20  H   UNK A   0       1.368  12.390  18.066  0.00  0.00    +0.000 HD
ENDBRANCH   3  19
BRANCH   9  21
ATOM     21  O   UNK A   0      -1.098  14.608  24.493  0.00  0.00    +0.000 OA
ATOM     22  H   UNK A   0      -1.736  15.298  24.737  0.00  0.00    +0.000 HD
ENDBRANCH   9  21
BRANCH   1  23
ATOM     23  C   UNK A   0       2.212   8.279  19.728  0.00  0.00    +0.000 C 
BRANCH  23  25
ATOM     24  N   LEU A   1       2.163   5.926  20.262  0.00  0.00    +0.000 N 
ATOM     25  C   UNK A   0       2.111   6.872  19.267  0.00  0.00    +0.000 C 
ATOM     26  O   UNK A   0       2.091   6.598  18.072  0.00  0.00    +0.000 OA
ATOM     27  H   LEU A   1       2.567   6.217  21.152  0.00  0.00    +0.000 HD
BRANCH  24  28
ATOM     28  CA  LEU A   1       2.273   4.507  19.867  0.00  0.00    +0.000 C 
BRANCH  28  29
ATOM     29  C   LEU A   1       1.668   3.636  20.973  0.00  0.00    +0.000 C 
ATOM     30  O   LEU A   1       2.192   3.411  22.053  0.00  0.00    +0.000 OA
BRANCH  29  31
ATOM     31  OXT LEU A   1       0.485   3.069  20.627  0.00  0.00    +0.000 OA
ATOM     32  HXT LEU A   1       0.393   3.071  19.652  0.00  0.00    +0.000 HD
ENDBRANCH  29  31
ENDBRANCH  28  29
BRANCH  28  33
ATOM     33  CB  LEU A   1       3.731   4.144  19.520  0.00  0.00    +0.000 C 
BRANCH  33  35
ATOM     34  CD1 LEU A   1       3.731   1.690  18.764  0.00  0.00    +0.000 C 
ATOM     35  CG  LEU A   1       3.900   3.152  18.344  0.00  0.00    +0.000 C 
ATOM     36  CD2 LEU A   1       2.913   3.474  17.219  0.00  0.00    +0.000 C 
ENDBRANCH  33  35
ENDBRANCH  28  33
ENDBRANCH  24  28
ENDBRANCH  23  25
ENDBRANCH   1  23
BRANCH  15  37
ATOM     37  C   UNK A   0      -0.133  15.007  18.288  0.00  0.00    +0.000 C 
BRANCH  37  38
ATOM     38  C   UNK A   0      -0.171  16.167  19.232  0.00  0.00    +0.000 C 
ATOM     39  C   UNK A   0      -0.520  17.542  18.720  0.00  0.00    +0.000 C 
ATOM     40  C   UNK A   0      -1.486  16.809  19.608  0.00  0.00    +0.000 C 
ENDBRANCH  37  38
ENDBRANCH  15  37
TORSDOF 11
ENDMDL
MODEL 3
REMARK VINA RESULT:      -6.8      1.057      1.380
REMARK  Name = 
REMARK  13 active torsions:
REMARK  status: ('A' for Active; 'I' for Inactive)
REMARK    1  A    between atoms: CD1_1  and  CG_2
REMARK    2  A    between atoms: CG_2  and  CD2_3
REMARK    3  A    between atoms: CG_2  and  CB_4
REMARK    4  A    between atoms: CB_4  and  CA_5
REMARK    5  A    between atoms: CA_5  and  N_6
REMARK    6  A    between atoms: CA_5  and  C_34
REMARK    7  A    between atoms: C_7  and  C_9
REMARK    8  A    between atoms: C_9  and  C_10
REMARK    9  A    between atoms: C_12  and  O_13
REMARK   10  A    between atoms: C_19  and  O_20
REMARK   11  A    between atoms: N_26  and  C_27
REMARK   12  A    between atoms: C_27  and  C_28
REMARK   13  A    between atoms: C_34  and  OXT_36
REMARK                            x       y       z     vdW  Elec       q    Type
REMARK                         _______ _______ _______ _____ _____    ______ ____
ROOT
ATOM      1  C   UNK A   0       0.915   9.156  20.088  0.00  0.00    +0.000 C 
ATOM      2  C   UNK A   0      -0.045   9.780  18.995  0.00  0.00    +0.000 C 
ATOM      3  C   UNK A   0       0.021  11.315  19.297  0.00  0.00    +0.000 C 
ATOM      4  C   UNK A   0      -0.709  12.543  18.704  0.00  0.00    +0.000 C 
ATOM      5  C   UNK A   0      -2.171  12.652  19.240  0.00  0.00    +0.000 C 
ATOM      6  C   UNK A   0      -2.163  13.058  20.687  0.00  0.00    +0.000 A 
ATOM      7  C   UNK A   0      -3.110  13.953  21.241  0.00  0.00    +0.000 A 
ATOM      8  C   UNK A   0      -2.932  14.475  22.528  0.00  0.00    +0.000 A 
ATOM      9  C   UNK A   0      -1.839  14.086  23.279  0.00  0.00    +0.000 A 
ATOM     10  C   UNK A   0      -0.964  13.131  22.794  0.00  0.00    +0.000 A 
ATOM     11  C   UNK A   0      -1.108  12.620  21.484  0.00  0.00    +0.000 A 
ATOM     12  C   UNK A   0      -0.043  11.626  20.913  0.00  0.00    +0.000 C 
ATOM     13  C   UNK A   0       1.279  12.417  21.078  0.00  0.00    +0.000 C 
ATOM     14  C   UNK A   0       1.277  13.614  20.035  0.00  0.00    +0.000 C 
ATOM     15  N   UNK A   0       0.094  13.743  19.139  0.00  0.00    +0.000 NA
ATOM     16  C   UNK A   0      -0.489  10.357  21.745  0.00  0.00    +0.000 C 
ATOM     17  C   UNK A   0       0.035   9.029  21.266  0.00  0.00    +0.000 C 
ATOM     18  O   UNK A   0      -0.297   7.939  21.721  0.00  0.00    +0.000 OA
ENDROOT
BRANCH   3  19
ATOM     19  O   UNK A   0       1.385  11.444  18.697  0.00  0.00    +0.000 OA
ATOM     20  H   UNK A   0       1.477  10.756  18.009  0.00  0.00    +0.000 HD
ENDBRANCH   3  19
BRANCH   9  21
ATOM     21  O   UNK A   0      -1.549  14.635  24.494  0.00  0.00    +0.000 OA
ATOM     22  H   UNK A   0      -0.875  14.084  24.922  0.00  0.00    +0.000 HD
ENDBRANCH   9  21
BRANCH   1  23
ATOM     23  C   UNK A   0       2.116   8.240  20.090  0.00  0.00    +0.000 C 
BRANCH  23  25
ATOM     24  N   LEU A   1       2.147   5.840  19.844  0.00  0.00    +0.000 N 
ATOM     25  C   UNK A   0       2.214   7.053  19.204  0.00  0.00    +0.000 C 
ATOM     26  O   UNK A   0       2.443   7.175  18.006  0.00  0.00    +0.000 OA
ATOM     27  H   LEU A   1       2.351   5.835  20.844  0.00  0.00    +0.000 HD
BRANCH  24  28
ATOM     28  CA  LEU A   1       2.440   4.622  19.060  0.00  0.00    +0.000 C 
BRANCH  28  29
ATOM     29  C   LEU A   1       1.232   3.682  19.135  0.00  0.00    +0.000 C 
ATOM     30  O   LEU A   1       0.864   2.942  18.235  0.00  0.00    +0.000 OA
BRANCH  29  31
ATOM     31  OXT LEU A   1       0.545   3.778  20.301  0.00  0.00    +0.000 OA
ATOM     32  HXT LEU A   1      -0.415   3.723  20.121  0.00  0.00    +0.000 HD
ENDBRANCH  29  31
ENDBRANCH  28  29
BRANCH  28  33
ATOM     33  CB  LEU A   1       3.760   3.975  19.521  0.00  0.00    +0.000 C 
BRANCH  33  35
ATOM     34  CD1 LEU A   1       4.568   4.442  17.129  0.00  0.00    +0.000 C 
ATOM     35  CG  LEU A   1       4.972   4.213  18.587  0.00  0.00    +0.000 C 
ATOM     36  CD2 LEU A   1       5.806   5.401  19.076  0.00  0.00    +0.000 C 
ENDBRANCH  33  35
ENDBRANCH  28  33
ENDBRANCH  24  28
ENDBRANCH  23  25
ENDBRANCH   1  23
BRANCH  15  37
ATOM     37  C   UNK A   0      -0.019  14.979  18.400  0.00  0.00    +0.000 C 
BRANCH  37  38
ATOM     38  C   UNK A   0      -0.593  16.062  19.258  0.00  0.00    +0.000 C 
ATOM     39  C   UNK A   0       0.213  17.305  19.540  0.00  0.00    +0.000 C 
ATOM     40  C   UNK A   0      -0.999  17.386  18.656  0.00  0.00    +0.000 C 
ENDBRANCH  37  38
ENDBRANCH  15  37
TORSDOF 11
ENDMDL
MODEL 4
REMARK VINA RESULT:      -6.7      0.844      1.056
REMARK  Name = 
REMARK  13 active torsions:
REMARK  status: ('A' for Active; 'I' for Inactive)
REMARK    1  A    between atoms: CD1_1  and  CG_2
REMARK    2  A    between atoms: CG_2  and  CD2_3
REMARK    3  A    between atoms: CG_2  and  CB_4
REMARK    4  A    between atoms: CB_4  and  CA_5
REMARK    5  A    between atoms: CA_5  and  N_6
REMARK    6  A    between atoms: CA_5  and  C_34
REMARK    7  A    between atoms: C_7  and  C_9
REMARK    8  A    between atoms: C_9  and  C_10
REMARK    9  A    between atoms: C_12  and  O_13
REMARK   10  A    between atoms: C_19  and  O_20
REMARK   11  A    between atoms: N_26  and  C_27
REMARK   12  A    between atoms: C_27  and  C_28
REMARK   13  A    between atoms: C_34  and  OXT_36
REMARK                            x       y       z     vdW  Elec       q    Type
REMARK                         _______ _______ _______ _____ _____    ______ ____
ROOT
ATOM      1  C   UNK A   0       0.743   9.160  20.163  0.00  0.00    +0.000 C 
ATOM      2  C   UNK A   0      -0.134   9.911  19.081  0.00  0.00    +0.000 C 
ATOM      3  C   UNK A   0       0.096  11.422  19.419  0.00  0.00    +0.000 C 
ATOM      4  C   UNK A   0      -0.491  12.735  18.850  0.00  0.00    +0.000 C 
ATOM      5  C   UNK A   0      -1.936  12.992  19.381  0.00  0.00    +0.000 C 
ATOM      6  C   UNK A   0      -1.895  13.361  20.838  0.00  0.00    +0.000 A 
ATOM      7  C   UNK A   0      -2.742  14.342  21.408  0.00  0.00    +0.000 A 
ATOM      8  C   UNK A   0      -2.519  14.811  22.707  0.00  0.00    +0.000 A 
ATOM      9  C   UNK A   0      -1.480  14.289  23.455  0.00  0.00    +0.000 A 
ATOM     10  C   UNK A   0      -0.711  13.254  22.952  0.00  0.00    +0.000 A 
ATOM     11  C   UNK A   0      -0.900  12.792  21.630  0.00  0.00    +0.000 A 
ATOM     12  C   UNK A   0       0.054  11.701  21.041  0.00  0.00    +0.000 C 
ATOM     13  C   UNK A   0       1.454  12.339  21.231  0.00  0.00    +0.000 C 
ATOM     14  C   UNK A   0       1.590  13.553  20.217  0.00  0.00    +0.000 C 
ATOM     15  N   UNK A   0       0.436  13.830  19.318  0.00  0.00    +0.000 NA
ATOM     16  C   UNK A   0      -0.533  10.470  21.841  0.00  0.00    +0.000 C 
ATOM     17  C   UNK A   0      -0.154   9.103  21.334  0.00  0.00    +0.000 C 
ATOM     18  O   UNK A   0      -0.607   8.047  21.761  0.00  0.00    +0.000 OA
ENDROOT
BRANCH   3  19
ATOM     19  O   UNK A   0       1.471  11.414  18.829  0.00  0.00    +0.000 OA
ATOM     20  H   UNK A   0       1.959  10.661  19.215  0.00  0.00    +0.000 HD
ENDBRANCH   3  19
BRANCH   9  21
ATOM     21  O   UNK A   0      -1.142  14.774  24.684  0.00  0.00    +0.000 OA
ATOM     22  H   UNK A   0      -1.155  15.743  24.641  0.00  0.00    +0.000 HD
ENDBRANCH   9  21
BRANCH   1  23
ATOM     23  C   UNK A   0       1.837   8.119  20.150  0.00  0.00    +0.000 C 
BRANCH  23  25
ATOM     24  N   LEU A   1       2.563   6.089  19.066  0.00  0.00    +0.000 N 
ATOM     25  C   UNK A   0       2.255   7.419  18.910  0.00  0.00    +0.000 C 
ATOM     26  O   UNK A   0       2.407   8.031  17.859  0.00  0.00    +0.000 OA
ATOM     27  H   LEU A   1       2.785   5.776  20.011  0.00  0.00    +0.000 HD
BRANCH  24  28
ATOM     28  CA  LEU A   1       3.179   5.380  17.925  0.00  0.00    +0.000 C 
BRANCH  28  29
ATOM     29  C   LEU A   1       2.398   4.087  17.666  0.00  0.00    +0.000 C 
ATOM     30  O   LEU A   1       2.869   2.961  17.720  0.00  0.00    +0.000 OA
BRANCH  29  31
ATOM     31  OXT LEU A   1       1.107   4.299  17.305  0.00  0.00    +0.000 OA
ATOM     32  HXT LEU A   1       1.038   4.311  16.328  0.00  0.00    +0.000 HD
ENDBRANCH  29  31
ENDBRANCH  28  29
BRANCH  28  33
ATOM     33  CB  LEU A   1       4.685   5.157  18.165  0.00  0.00    +0.000 C 
BRANCH  33  35
ATOM     34  CD1 LEU A   1       5.764   4.133  16.071  0.00  0.00    +0.000 C 
ATOM     35  CG  LEU A   1       5.589   5.388  16.929  0.00  0.00    +0.000 C 
ATOM     36  CD2 LEU A   1       5.038   6.523  16.061  0.00  0.00    +0.000 C 
ENDBRANCH  33  35
ENDBRANCH  28  33
ENDBRANCH  24  28
ENDBRANCH  23  25
ENDBRANCH   1  23
BRANCH  15  37
ATOM     37  C   UNK A   0       0.463  15.088  18.607  0.00  0.00    +0.000 C 
BRANCH  37  38
ATOM     38  C   UNK A   0       1.781  15.773  18.789  0.00  0.00    +0.000 C 
ATOM     39  C   UNK A   0       2.158  16.928  17.896  0.00  0.00    +0.000 C 
ATOM     40  C   UNK A   0       1.847  17.176  19.345  0.00  0.00    +0.000 C 
ENDBRANCH  37  38
ENDBRANCH  15  37
TORSDOF 11
ENDMDL
MODEL 5
REMARK VINA RESULT:      -6.7      0.800      1.229
REMARK  Name = 
REMARK  13 active torsions:
REMARK  status: ('A' for Active; 'I' for Inactive)
REMARK    1  A    between atoms: CD1_1  and  CG_2
REMARK    2  A    between atoms: CG_2  and  CD2_3
REMARK    3  A    between atoms: CG_2  and  CB_4
REMARK    4  A    between atoms: CB_4  and  CA_5
REMARK    5  A    between atoms: CA_5  and  N_6
REMARK    6  A    between atoms: CA_5  and  C_34
REMARK    7  A    between atoms: C_7  and  C_9
REMARK    8  A    between atoms: C_9  and  C_10
REMARK    9  A    between atoms: C_12  and  O_13
REMARK   10  A    between atoms: C_19  and  O_20
REMARK   11  A    between atoms: N_26  and  C_27
REMARK   12  A    between atoms: C_27  and  C_28
REMARK   13  A    between atoms: C_34  and  OXT_36
REMARK                            x       y       z     vdW  Elec       q    Type
REMARK                         _______ _______ _______ _____ _____    ______ ____
ROOT
ATOM      1  C   UNK A   0       0.676   9.367  20.136  0.00  0.00    +0.000 C 
ATOM      2  C   UNK A   0      -0.376  10.030  19.159  0.00  0.00    +0.000 C 
ATOM      3  C   UNK A   0      -0.220  11.560  19.450  0.00  0.00    +0.000 C 
ATOM      4  C   UNK A   0      -0.966  12.816  18.942  0.00  0.00    +0.000 C 
ATOM      5  C   UNK A   0      -2.353  12.978  19.639  0.00  0.00    +0.000 C 
ATOM      6  C   UNK A   0      -2.167  13.377  21.077  0.00  0.00    +0.000 A 
ATOM      7  C   UNK A   0      -3.012  14.305  21.733  0.00  0.00    +0.000 A 
ATOM      8  C   UNK A   0      -2.671  14.816  22.991  0.00  0.00    +0.000 A 
ATOM      9  C   UNK A   0      -1.515  14.385  23.614  0.00  0.00    +0.000 A 
ATOM     10  C   UNK A   0      -0.736  13.399  23.034  0.00  0.00    +0.000 A 
ATOM     11  C   UNK A   0      -1.046  12.898  21.749  0.00  0.00    +0.000 A 
ATOM     12  C   UNK A   0      -0.090  11.867  21.063  0.00  0.00    +0.000 C 
ATOM     13  C   UNK A   0       1.271  12.609  21.076  0.00  0.00    +0.000 C 
ATOM     14  C   UNK A   0       1.195  13.809  20.039  0.00  0.00    +0.000 C 
ATOM     15  N   UNK A   0      -0.075  13.984  19.283  0.00  0.00    +0.000 NA
ATOM     16  C   UNK A   0      -0.485  10.613  21.940  0.00  0.00    +0.000 C 
ATOM     17  C   UNK A   0      -0.068   9.268  21.406  0.00  0.00    +0.000 C 
ATOM     18  O   UNK A   0      -0.388   8.190  21.896  0.00  0.00    +0.000 OA
ENDROOT
BRANCH   3  19
ATOM     19  O   UNK A   0       1.072  11.641  18.699  0.00  0.00    +0.000 OA
ATOM     20  H   UNK A   0       1.488  10.757  18.723  0.00  0.00    +0.000 HD
ENDBRANCH   3  19
BRANCH   9  21
ATOM     21  O   UNK A   0      -1.070  14.918  24.788  0.00  0.00    +0.000 OA
ATOM     22  H   UNK A   0      -1.217  14.267  25.492  0.00  0.00    +0.000 HD
ENDBRANCH   9  21
BRANCH   1  23
ATOM     23  C   UNK A   0       1.835   8.407  20.003  0.00  0.00    +0.000 C 
BRANCH  23  25
ATOM     24  N   LEU A   1       2.213   6.258  18.972  0.00  0.00    +0.000 N 
ATOM     25  C   UNK A   0       2.073   7.610  18.774  0.00  0.00    +0.000 C 
ATOM     26  O   UNK A   0       2.233   8.156  17.687  0.00  0.00    +0.000 OA
ATOM     27  H   LEU A   1       2.456   5.954  19.915  0.00  0.00    +0.000 HD
BRANCH  24  28
ATOM     28  CA  LEU A   1       2.652   5.430  17.830  0.00  0.00    +0.000 C 
BRANCH  28  29
ATOM     29  C   LEU A   1       1.894   4.098  17.864  0.00  0.00    +0.000 C 
ATOM     30  O   LEU A   1       1.107   3.762  18.736  0.00  0.00    +0.000 OA
BRANCH  29  31
ATOM     31  OXT LEU A   1       2.218   3.266  16.843  0.00  0.00    +0.000 OA
ATOM     32  HXT LEU A   1       1.415   3.056  16.324  0.00  0.00    +0.000 HD
ENDBRANCH  29  31
ENDBRANCH  28  29
BRANCH  28  33
ATOM     33  CB  LEU A   1       4.185   5.272  17.822  0.00  0.00    +0.000 C 
BRANCH  33  35
ATOM     34  CD1 LEU A   1       4.753   3.395  19.480  0.00  0.00    +0.000 C 
ATOM     35  CG  LEU A   1       4.815   4.896  19.185  0.00  0.00    +0.000 C 
ATOM     36  CD2 LEU A   1       6.270   5.368  19.256  0.00  0.00    +0.000 C 
ENDBRANCH  33  35
ENDBRANCH  28  33
ENDBRANCH  24  28
ENDBRANCH  23  25
ENDBRANCH   1  23
BRANCH  15  37
ATOM     37  C   UNK A   0      -0.226  15.226  18.560  0.00  0.00    +0.000 C 
BRANCH  37  38
ATOM     38  C   UNK A   0      -0.400  16.374  19.505  0.00  0.00    +0.000 C 
ATOM     39  C   UNK A   0      -0.585  17.770  18.966  0.00  0.00    +0.000 C 
ATOM     40  C   UNK A   0      -1.735  17.068  19.631  0.00  0.00    +0.000 C 
ENDBRANCH  37  38
ENDBRANCH  15  37
TORSDOF 11
ENDMDL
MODEL 6
REMARK VINA RESULT:      -6.4      1.271      2.160
REMARK  Name = 
REMARK  13 active torsions:
REMARK  status: ('A' for Active; 'I' for Inactive)
REMARK    1  A    between atoms: CD1_1  and  CG_2
REMARK    2  A    between atoms: CG_2  and  CD2_3
REMARK    3  A    between atoms: CG_2  and  CB_4
REMARK    4  A    between atoms: CB_4  and  CA_5
REMARK    5  A    between atoms: CA_5  and  N_6
REMARK    6  A    between atoms: CA_5  and  C_34
REMARK    7  A    between atoms: C_7  and  C_9
REMARK    8  A    between atoms: C_9  and  C_10
REMARK    9  A    between atoms: C_12  and  O_13
REMARK   10  A    between atoms: C_19  and  O_20
REMARK   11  A    between atoms: N_26  and  C_27
REMARK   12  A    between atoms: C_27  and  C_28
REMARK   13  A    between atoms: C_34  and  OXT_36
REMARK                            x       y       z     vdW  Elec       q    Type
REMARK                         _______ _______ _______ _____ _____    ______ ____
ROOT
ATOM      1  C   UNK A   0       0.718   9.221  20.529  0.00  0.00    +0.000 C 
ATOM      2  C   UNK A   0      -0.186   9.806  19.369  0.00  0.00    +0.000 C 
ATOM      3  C   UNK A   0      -0.135  11.350  19.620  0.00  0.00    +0.000 C 
ATOM      4  C   UNK A   0      -0.834  12.556  18.949  0.00  0.00    +0.000 C 
ATOM      5  C   UNK A   0      -2.321  12.681  19.407  0.00  0.00    +0.000 C 
ATOM      6  C   UNK A   0      -2.386  13.136  20.839  0.00  0.00    +0.000 A 
ATOM      7  C   UNK A   0      -3.359  14.049  21.313  0.00  0.00    +0.000 A 
ATOM      8  C   UNK A   0      -3.247  14.615  22.588  0.00  0.00    +0.000 A 
ATOM      9  C   UNK A   0      -2.193  14.254  23.406  0.00  0.00    +0.000 A 
ATOM     10  C   UNK A   0      -1.295  13.284  22.999  0.00  0.00    +0.000 A 
ATOM     11  C   UNK A   0      -1.372  12.728  21.702  0.00  0.00    +0.000 A 
ATOM     12  C   UNK A   0      -0.280  11.716  21.220  0.00  0.00    +0.000 C 
ATOM     13  C   UNK A   0       1.032  12.515  21.423  0.00  0.00    +0.000 C 
ATOM     14  C   UNK A   0       1.082  13.676  20.341  0.00  0.00    +0.000 C 
ATOM     15  N   UNK A   0      -0.054  13.771  19.383  0.00  0.00    +0.000 NA
ATOM     16  C   UNK A   0      -0.767  10.476  22.071  0.00  0.00    +0.000 C 
ATOM     17  C   UNK A   0      -0.220   9.133  21.665  0.00  0.00    +0.000 C 
ATOM     18  O   UNK A   0      -0.575   8.059  22.140  0.00  0.00    +0.000 OA
ENDROOT
BRANCH   3  19
ATOM     19  O   UNK A   0       1.258  11.461  19.086  0.00  0.00    +0.000 OA
ATOM     20  H   UNK A   0       1.744  10.654  19.346  0.00  0.00    +0.000 HD
ENDBRANCH   3  19
BRANCH   9  21
ATOM     21  O   UNK A   0      -1.964  14.844  24.614  0.00  0.00    +0.000 OA
ATOM     22  H   UNK A   0      -2.747  15.368  24.849  0.00  0.00    +0.000 HD
ENDBRANCH   9  21
BRANCH   1  23
ATOM     23  C   UNK A   0       1.917   8.308  20.623  0.00  0.00    +0.000 C 
BRANCH  23  25
ATOM     24  N   LEU A   1       2.544   6.021  20.176  0.00  0.00    +0.000 N 
ATOM     25  C   UNK A   0       2.176   7.230  19.636  0.00  0.00    +0.000 C 
ATOM     26  O   UNK A   0       2.158   7.457  18.431  0.00  0.00    +0.000 OA
ATOM     27  H   LEU A   1       2.908   6.034  21.129  0.00  0.00    +0.000 HD
BRANCH  24  28
ATOM     28  CA  LEU A   1       3.014   4.964  19.256  0.00  0.00    +0.000 C 
BRANCH  28  29
ATOM     29  C   LEU A   1       4.386   5.363  18.702  0.00  0.00    +0.000 C 
ATOM     30  O   LEU A   1       4.637   5.548  17.521  0.00  0.00    +0.000 OA
BRANCH  29  31
ATOM     31  OXT LEU A   1       5.349   5.444  19.654  0.00  0.00    +0.000 OA
ATOM     32  HXT LEU A   1       5.074   4.935  20.444  0.00  0.00    +0.000 HD
ENDBRANCH  29  31
ENDBRANCH  28  29
BRANCH  28  33
ATOM     33  CB  LEU A   1       1.963   4.676  18.165  0.00  0.00    +0.000 C 
BRANCH  33  35
ATOM     34  CD1 LEU A   1       2.581   2.218  17.755  0.00  0.00    +0.000 C 
ATOM     35  CG  LEU A   1       1.468   3.211  18.098  0.00  0.00    +0.000 C 
ATOM     36  CD2 LEU A   1       0.811   2.801  19.419  0.00  0.00    +0.000 C 
ENDBRANCH  33  35
ENDBRANCH  28  33
ENDBRANCH  24  28
ENDBRANCH  23  25
ENDBRANCH   1  23
BRANCH  15  37
ATOM     37  C   UNK A   0      -0.130  14.982  18.597  0.00  0.00    +0.000 C 
BRANCH  37  38
ATOM     38  C   UNK A   0      -0.545  16.142  19.445  0.00  0.00    +0.000 C 
ATOM     39  C   UNK A   0       0.139  17.476  19.282  0.00  0.00    +0.000 C 
ATOM     40  C   UNK A   0      -1.287  17.310  18.839  0.00  0.00    +0.000 C 
ENDBRANCH  37  38
ENDBRANCH  15  37
TORSDOF 11
ENDMDL
MODEL 7
REMARK VINA RESULT:      -6.4      2.182      4.358
REMARK  Name = 
REMARK  13 active torsions:
REMARK  status: ('A' for Active; 'I' for Inactive)
REMARK    1  A    between atoms: CD1_1  and  CG_2
REMARK    2  A    between atoms: CG_2  and  CD2_3
REMARK    3  A    between atoms: CG_2  and  CB_4
REMARK    4  A    between atoms: CB_4  and  CA_5
REMARK    5  A    between atoms: CA_5  and  N_6
REMARK    6  A    between atoms: CA_5  and  C_34
REMARK    7  A    between atoms: C_7  and  C_9
REMARK    8  A    between atoms: C_9  and  C_10
REMARK    9  A    between atoms: C_12  and  O_13
REMARK   10  A    between atoms: C_19  and  O_20
REMARK   11  A    between atoms: N_26  and  C_27
REMARK   12  A    between atoms: C_27  and  C_28
REMARK   13  A    between atoms: C_34  and  OXT_36
REMARK                            x       y       z     vdW  Elec       q    Type
REMARK                         _______ _______ _______ _____ _____    ______ ____
ROOT
ATOM      1  C   UNK A   0       1.150  10.853  19.208  0.00  0.00    +0.000 C 
ATOM      2  C   UNK A   0       1.240  11.290  20.726  0.00  0.00    +0.000 C 
ATOM      3  C   UNK A   0       0.015  12.251  20.895  0.00  0.00    +0.000 C 
ATOM      4  C   UNK A   0      -0.494  13.121  22.068  0.00  0.00    +0.000 C 
ATOM      5  C   UNK A   0       0.356  14.420  22.227  0.00  0.00    +0.000 C 
ATOM      6  C   UNK A   0       0.076  15.365  21.092  0.00  0.00    +0.000 A 
ATOM      7  C   UNK A   0      -0.008  16.768  21.261  0.00  0.00    +0.000 A 
ATOM      8  C   UNK A   0      -0.489  17.585  20.231  0.00  0.00    +0.000 A 
ATOM      9  C   UNK A   0      -0.856  17.020  19.024  0.00  0.00    +0.000 A 
ATOM     10  C   UNK A   0      -0.678  15.665  18.807  0.00  0.00    +0.000 A 
ATOM     11  C   UNK A   0      -0.227  14.820  19.846  0.00  0.00    +0.000 A 
ATOM     12  C   UNK A   0      -0.141  13.276  19.615  0.00  0.00    +0.000 C 
ATOM     13  C   UNK A   0      -1.584  12.921  19.173  0.00  0.00    +0.000 C 
ATOM     14  C   UNK A   0      -2.540  13.066  20.433  0.00  0.00    +0.000 C 
ATOM     15  N   UNK A   0      -1.920  13.473  21.724  0.00  0.00    +0.000 NA
ATOM     16  C   UNK A   0       1.147  13.282  18.698  0.00  0.00    +0.000 C 
ATOM     17  C   UNK A   0       1.835  11.956  18.506  0.00  0.00    +0.000 C 
ATOM     18  O   UNK A   0       2.903  11.799  17.923  0.00  0.00    +0.000 OA
ENDROOT
BRANCH   3  19
ATOM     19  O   UNK A   0      -0.960  11.117  20.901  0.00  0.00    +0.000 OA
ATOM     20  H   UNK A   0      -1.513  11.192  20.098  0.00  0.00    +0.000 HD
ENDBRANCH   3  19
BRANCH   9  21
ATOM     21  O   UNK A   0      -1.431  17.741  18.019  0.00  0.00    +0.000 OA
ATOM     22  H   UNK A   0      -1.908  18.486  18.416  0.00  0.00    +0.000 HD
ENDBRANCH   9  21
BRANCH   1  23
ATOM     23  C   UNK A   0       1.105   9.548  18.448  0.00  0.00    +0.000 C 
BRANCH  23  25
ATOM     24  N   LEU A   1       2.381   7.578  17.891  0.00  0.00    +0.000 N 
ATOM     25  C   UNK A   0       1.840   8.340  18.898  0.00  0.00    +0.000 C 
ATOM     26  O   UNK A   0       1.857   8.012  20.079  0.00  0.00    +0.000 OA
ATOM     27  H   LEU A   1       1.990   7.705  16.957  0.00  0.00    +0.000 HD
BRANCH  24  28
ATOM     28  CA  LEU A   1       2.949   6.260  18.244  0.00  0.00    +0.000 C 
BRANCH  28  29
ATOM     29  C   LEU A   1       4.288   6.088  17.520  0.00  0.00    +0.000 C 
ATOM     30  O   LEU A   1       4.806   6.925  16.797  0.00  0.00    +0.000 OA
BRANCH  29  31
ATOM     31  OXT LEU A   1       4.849   4.866  17.707  0.00  0.00    +0.000 OA
ATOM     32  HXT LEU A   1       5.786   4.889  17.424  0.00  0.00    +0.000 HD
ENDBRANCH  29  31
ENDBRANCH  28  29
BRANCH  28  33
ATOM     33  CB  LEU A   1       1.938   5.132  17.959  0.00  0.00    +0.000 C 
BRANCH  33  35
ATOM     34  CD1 LEU A   1       1.242   2.868  18.951  0.00  0.00    +0.000 C 
ATOM     35  CG  LEU A   1       1.438   4.364  19.207  0.00  0.00    +0.000 C 
ATOM     36  CD2 LEU A   1       2.402   4.557  20.381  0.00  0.00    +0.000 C 
ENDBRANCH  33  35
ENDBRANCH  28  33
ENDBRANCH  24  28
ENDBRANCH  23  25
ENDBRANCH   1  23
BRANCH  15  37
ATOM     37  C   UNK A   0      -2.828  13.866  22.777  0.00  0.00    +0.000 C 
BRANCH  37  38
ATOM     38  C   UNK A   0      -3.727  12.730  23.155  0.00  0.00    +0.000 C 
ATOM     39  C   UNK A   0      -4.193  12.584  24.582  0.00  0.00    +0.000 C 
ATOM     40  C   UNK A   0      -5.172  12.981  23.513  0.00  0.00    +0.000 C 
ENDBRANCH  37  38
ENDBRANCH  15  37
TORSDOF 11
ENDMDL
MODEL 8
REMARK VINA RESULT:      -6.4      1.463      2.468
REMARK  Name = 
REMARK  13 active torsions:
REMARK  status: ('A' for Active; 'I' for Inactive)
REMARK    1  A    between atoms: CD1_1  and  CG_2
REMARK    2  A    between atoms: CG_2  and  CD2_3
REMARK    3  A    between atoms: CG_2  and  CB_4
REMARK    4  A    between atoms: CB_4  and  CA_5
REMARK    5  A    between atoms: CA_5  and  N_6
REMARK    6  A    between atoms: CA_5  and  C_34
REMARK    7  A    between atoms: C_7  and  C_9
REMARK    8  A    between atoms: C_9  and  C_10
REMARK    9  A    between atoms: C_12  and  O_13
REMARK   10  A    between atoms: C_19  and  O_20
REMARK   11  A    between atoms: N_26  and  C_27
REMARK   12  A    between atoms: C_27  and  C_28
REMARK   13  A    between atoms: C_34  and  OXT_36
REMARK                            x       y       z     vdW  Elec       q    Type
REMARK                         _______ _______ _______ _____ _____    ______ ____
ROOT
ATOM      1  C   UNK A   0       1.108   9.537  19.520  0.00  0.00    +0.000 C 
ATOM      2  C   UNK A   0      -0.035  10.158  18.619  0.00  0.00    +0.000 C 
ATOM      3  C   UNK A   0      -0.007  11.676  19.001  0.00  0.00    +0.000 C 
ATOM      4  C   UNK A   0      -0.882  12.886  18.597  0.00  0.00    +0.000 C 
ATOM      5  C   UNK A   0      -2.251  12.877  19.346  0.00  0.00    +0.000 C 
ATOM      6  C   UNK A   0      -2.048  13.205  20.800  0.00  0.00    +0.000 A 
ATOM      7  C   UNK A   0      -2.948  14.011  21.539  0.00  0.00    +0.000 A 
ATOM      8  C   UNK A   0      -2.609  14.474  22.816  0.00  0.00    +0.000 A 
ATOM      9  C   UNK A   0      -1.396  14.114  23.374  0.00  0.00    +0.000 A 
ATOM     10  C   UNK A   0      -0.554  13.241  22.709  0.00  0.00    +0.000 A 
ATOM     11  C   UNK A   0      -0.865  12.792  21.405  0.00  0.00    +0.000 A 
ATOM     12  C   UNK A   0       0.154  11.896  20.626  0.00  0.00    +0.000 C 
ATOM     13  C   UNK A   0       1.442  12.758  20.644  0.00  0.00    +0.000 C 
ATOM     14  C   UNK A   0       1.221  14.006  19.687  0.00  0.00    +0.000 C 
ATOM     15  N   UNK A   0      -0.087  14.109  18.983  0.00  0.00    +0.000 NA
ATOM     16  C   UNK A   0      -0.094  10.561  21.434  0.00  0.00    +0.000 C 
ATOM     17  C   UNK A   0       0.422   9.294  20.804  0.00  0.00    +0.000 C 
ATOM     18  O   UNK A   0       0.220   8.164  21.235  0.00  0.00    +0.000 OA
ENDROOT
BRANCH   3  19
ATOM     19  O   UNK A   0       1.244  11.920  18.218  0.00  0.00    +0.000 OA
ATOM     20  H   UNK A   0       1.158  12.788  17.777  0.00  0.00    +0.000 HD
ENDBRANCH   3  19
BRANCH   9  21
ATOM     21  O   UNK A   0      -0.958  14.615  24.565  0.00  0.00    +0.000 OA
ATOM     22  H   UNK A   0      -1.214  13.996  25.266  0.00  0.00    +0.000 HD
ENDBRANCH   9  21
BRANCH   1  23
ATOM     23  C   UNK A   0       2.343   8.698  19.291  0.00  0.00    +0.000 C 
BRANCH  23  25
ATOM     24  N   LEU A   1       2.604   6.492  20.232  0.00  0.00    +0.000 N 
ATOM     25  C   UNK A   0       2.284   7.225  19.116  0.00  0.00    +0.000 C 
ATOM     26  O   UNK A   0       2.065   6.727  18.017  0.00  0.00    +0.000 OA
ATOM     27  H   LEU A   1       3.141   6.968  20.957  0.00  0.00    +0.000 HD
BRANCH  24  28
ATOM     28  CA  LEU A   1       2.765   5.030  20.081  0.00  0.00    +0.000 C 
BRANCH  28  29
ATOM     29  C   LEU A   1       4.014   4.755  19.235  0.00  0.00    +0.000 C 
ATOM     30  O   LEU A   1       4.039   4.063  18.229  0.00  0.00    +0.000 OA
BRANCH  29  31
ATOM     31  OXT LEU A   1       5.142   5.315  19.741  0.00  0.00    +0.000 OA
ATOM     32  HXT LEU A   1       4.924   6.175  20.154  0.00  0.00    +0.000 HD
ENDBRANCH  29  31
ENDBRANCH  28  29
BRANCH  28  33
ATOM     33  CB  LEU A   1       1.481   4.390  19.518  0.00  0.00    +0.000 C 
BRANCH  33  35
ATOM     34  CD1 LEU A   1       1.513   1.835  19.265  0.00  0.00    +0.000 C 
ATOM     35  CG  LEU A   1       1.101   3.024  20.137  0.00  0.00    +0.000 C 
ATOM     36  CD2 LEU A   1       1.719   2.870  21.529  0.00  0.00    +0.000 C 
ENDBRANCH  33  35
ENDBRANCH  28  33
ENDBRANCH  24  28
ENDBRANCH  23  25
ENDBRANCH   1  23
BRANCH  15  37
ATOM     37  C   UNK A   0      -0.375  15.373  18.345  0.00  0.00    +0.000 C 
BRANCH  37  38
ATOM     38  C   UNK A   0      -0.536  16.458  19.363  0.00  0.00    +0.000 C 
ATOM     39  C   UNK A   0      -0.336  17.898  18.964  0.00  0.00    +0.000 C 
ATOM     40  C   UNK A   0      -1.714  17.402  19.299  0.00  0.00    +0.000 C 
ENDBRANCH  37  38
ENDBRANCH  15  37
TORSDOF 11
ENDMDL
MODEL 9
REMARK VINA RESULT:      -6.4      1.675      2.087
REMARK  Name = 
REMARK  13 active torsions:
REMARK  status: ('A' for Active; 'I' for Inactive)
REMARK    1  A    between atoms: CD1_1  and  CG_2
REMARK    2  A    between atoms: CG_2  and  CD2_3
REMARK    3  A    between atoms: CG_2  and  CB_4
REMARK    4  A    between atoms: CB_4  and  CA_5
REMARK    5  A    between atoms: CA_5  and  N_6
REMARK    6  A    between atoms: CA_5  and  C_34
REMARK    7  A    between atoms: C_7  and  C_9
REMARK    8  A    between atoms: C_9  and  C_10
REMARK    9  A    between atoms: C_12  and  O_13
REMARK   10  A    between atoms: C_19  and  O_20
REMARK   11  A    between atoms: N_26  and  C_27
REMARK   12  A    between atoms: C_27  and  C_28
REMARK   13  A    between atoms: C_34  and  OXT_36
REMARK                            x       y       z     vdW  Elec       q    Type
REMARK                         _______ _______ _______ _____ _____    ______ ____
ROOT
ATOM      1  C   UNK A   0       0.966   9.059  19.902  0.00  0.00    +0.000 C 
ATOM      2  C   UNK A   0      -0.087   9.678  18.897  0.00  0.00    +0.000 C 
ATOM      3  C   UNK A   0       0.010  11.215  19.179  0.00  0.00    +0.000 C 
ATOM      4  C   UNK A   0      -0.768  12.441  18.645  0.00  0.00    +0.000 C 
ATOM      5  C   UNK A   0      -2.174  12.559  19.312  0.00  0.00    +0.000 C 
ATOM      6  C   UNK A   0      -2.032  12.976  20.750  0.00  0.00    +0.000 A 
ATOM      7  C   UNK A   0      -2.922  13.879  21.381  0.00  0.00    +0.000 A 
ATOM      8  C   UNK A   0      -2.626  14.410  22.642  0.00  0.00    +0.000 A 
ATOM      9  C   UNK A   0      -1.469  14.023  23.293  0.00  0.00    +0.000 A 
ATOM     10  C   UNK A   0      -0.645  13.061  22.737  0.00  0.00    +0.000 A 
ATOM     11  C   UNK A   0      -0.910  12.541  21.450  0.00  0.00    +0.000 A 
ATOM     12  C   UNK A   0       0.095  11.538  20.792  0.00  0.00    +0.000 C 
ATOM     13  C   UNK A   0       1.429  12.327  20.829  0.00  0.00    +0.000 C 
ATOM     14  C   UNK A   0       1.335  13.516  19.780  0.00  0.00    +0.000 C 
ATOM     15  N   UNK A   0       0.076  13.641  18.996  0.00  0.00    +0.000 NA
ATOM     16  C   UNK A   0      -0.276  10.278  21.671  0.00  0.00    +0.000 C 
ATOM     17  C   UNK A   0       0.199   8.944  21.157  0.00  0.00    +0.000 C 
ATOM     18  O   UNK A   0      -0.094   7.859  21.649  0.00  0.00    +0.000 OA
ENDROOT
BRANCH   3  19
ATOM     19  O   UNK A   0       1.314  11.334  18.456  0.00  0.00    +0.000 OA
ATOM     20  H   UNK A   0       1.484  12.284  18.298  0.00  0.00    +0.000 HD
ENDBRANCH   3  19
BRANCH   9  21
ATOM     21  O   UNK A   0      -1.068  14.580  24.471  0.00  0.00    +0.000 OA
ATOM     22  H   UNK A   0      -0.159  14.899  24.362  0.00  0.00    +0.000 HD
ENDBRANCH   9  21
BRANCH   1  23
ATOM     23  C   UNK A   0       2.160   8.138  19.801  0.00  0.00    +0.000 C 
BRANCH  23  25
ATOM     24  N   LEU A   1       1.883   5.742  19.814  0.00  0.00    +0.000 N 
ATOM     25  C   UNK A   0       2.118   6.859  19.050  0.00  0.00    +0.000 C 
ATOM     26  O   UNK A   0       2.382   6.819  17.853  0.00  0.00    +0.000 OA
ATOM     27  H   LEU A   1       2.068   5.821  20.814  0.00  0.00    +0.000 HD
BRANCH  24  28
ATOM     28  CA  LEU A   1       2.029   4.418  19.172  0.00  0.00    +0.000 C 
BRANCH  28  29
ATOM     29  C   LEU A   1       0.928   3.490  19.696  0.00  0.00    +0.000 C 
ATOM     30  O   LEU A   1       0.218   2.781  18.998  0.00  0.00    +0.000 OA
BRANCH  29  31
ATOM     31  OXT LEU A   1       0.759   3.559  21.041  0.00  0.00    +0.000 OA
ATOM     32  HXT LEU A   1      -0.109   3.963  21.242  0.00  0.00    +0.000 HD
ENDBRANCH  29  31
ENDBRANCH  28  29
BRANCH  28  33
ATOM     33  CB  LEU A   1       3.454   3.865  19.371  0.00  0.00    +0.000 C 
BRANCH  33  35
ATOM     34  CD1 LEU A   1       3.660   1.642  18.102  0.00  0.00    +0.000 C 
ATOM     35  CG  LEU A   1       3.553   2.323  19.468  0.00  0.00    +0.000 C 
ATOM     36  CD2 LEU A   1       4.747   1.912  20.335  0.00  0.00    +0.000 C 
ENDBRANCH  33  35
ENDBRANCH  28  33
ENDBRANCH  24  28
ENDBRANCH  23  25
ENDBRANCH   1  23
BRANCH  15  37
ATOM     37  C   UNK A   0      -0.102  14.872  18.260  0.00  0.00    +0.000 C 
BRANCH  37  38
ATOM     38  C   UNK A   0      -0.089  16.050  19.183  0.00  0.00    +0.000 C 
ATOM     39  C   UNK A   0      -0.281  17.440  18.631  0.00  0.00    +0.000 C 
ATOM     40  C   UNK A   0      -1.359  16.815  19.470  0.00  0.00    +0.000 C 
ENDBRANCH  37  38
ENDBRANCH  15  37
TORSDOF 11
ENDMDL
