MODEL 1
REMARK VINA RESULT:      -8.0      0.000      0.000
REMARK  Name = 
REMARK  9 active torsions:
REMARK  status: ('A' for Active; 'I' for Inactive)
REMARK    1  A    between atoms: N_1  and  S_2
REMARK    2  A    between atoms: S_2  and  C_5
REMARK    3  A    between atoms: C_10  and  S_11
REMARK    4  A    between atoms: S_11  and  C_14
REMARK    5  A    between atoms: C_14  and  C_15
REMARK    6  A    between atoms: C_15  and  O_16
REMARK    7  A    between atoms: C_17  and  N_18
REMARK    8  A    between atoms: N_18  and  C_19
REMARK    9  A    between atoms: C_19  and  C_20
REMARK                            x       y       z     vdW  Elec       q    Type
REMARK                         _______ _______ _______ _____ _____    ______ ____
ROOT
ATOM      1  C   UNL     1       5.302   5.156  16.796  0.00  0.00    +0.000 A 
ATOM      2  C   UNL     1       4.874   3.847  16.781  0.00  0.00    +0.000 A 
ATOM      3  F   UNL     1       5.545   2.887  16.135  0.00  0.00    +0.000 F 
ATOM      4  C   UNL     1       3.729   3.498  17.485  0.00  0.00    +0.000 A 
ATOM      5  F   UNL     1       3.352   2.212  17.477  0.00  0.00    +0.000 F 
ATOM      6  C   UNL     1       3.005   4.452  18.208  0.00  0.00    +0.000 A 
ATOM      7  C   UNL     1       3.396   5.809  18.215  0.00  0.00    +0.000 A 
ATOM      8  C   UNL     1       4.585   6.115  17.508  0.00  0.00    +0.000 A 
ATOM      9  F   UNL     1       5.082   7.360  17.556  0.00  0.00    +0.000 F 
ENDROOT
BRANCH   1  10
ATOM     10  S   UNL     1       6.777   5.647  16.010  0.00  0.00    +0.000 S 
ATOM     11  O   UNL     1       7.244   6.900  16.551  0.00  0.00    +0.000 OA
ATOM     12  O   UNL     1       6.642   5.433  14.590  0.00  0.00    +0.000 OA
BRANCH  10  13
ATOM     13  N   UNL     1       7.886   4.510  16.566  0.00  0.00    +0.000 NA
ATOM     14  H   UNL     1       7.408   3.838  17.168  0.00  0.00    +0.000 HD
ATOM     15  H   UNL     1       8.668   4.982  17.022  0.00  0.00    +0.000 HD
ENDBRANCH  10  13
ENDBRANCH   1  10
BRANCH   6  16
ATOM     16  S   UNL     1       1.555   3.840  19.034  0.00  0.00    +0.000 S 
ATOM     17  O   UNL     1       1.082   4.880  19.935  0.00  0.00    +0.000 OA
ATOM     18  O   UNL     1       0.672   3.343  17.997  0.00  0.00    +0.000 OA
BRANCH  16  19
ATOM     19  C   UNL     1       2.115   2.475  20.023  0.00  0.00    +0.000 C 
BRANCH  19  20
ATOM     20  C   UNL     1       1.522   2.531  21.418  0.00  0.00    +0.000 C 
BRANCH  20  21
ATOM     21  O   UNL     1       2.278   3.436  22.222  0.00  0.00    +0.000 OA
ATOM     22  H   UNL     1       2.486   2.994  23.064  0.00  0.00    +0.000 HD
ENDBRANCH  20  21
ENDBRANCH  19  20
ENDBRANCH  16  19
ENDBRANCH   6  16
BRANCH   7  23
ATOM     23  N   UNL     1       2.739   6.767  18.986  0.00  0.00    +0.000 N 
ATOM     24  H   UNL     1       2.132   6.386  19.724  0.00  0.00    +0.000 HD
BRANCH  23  25
ATOM     25  C   UNL     1       2.173   8.002  18.446  0.00  0.00    +0.000 C 
BRANCH  25  26
ATOM     26  C   UNL     1       1.420   8.705  19.549  0.00  0.00    +0.000 A 
ATOM     27  C   UNL     1       1.447   8.198  20.858  0.00  0.00    +0.000 A 
ATOM     28  C   UNL     1       0.715   8.819  21.873  0.00  0.00    +0.000 A 
ATOM     29  C   UNL     1      -0.054   9.946  21.587  0.00  0.00    +0.000 A 
ATOM     30  C   UNL     1      -0.090  10.455  20.291  0.00  0.00    +0.000 A 
ATOM     31  C   UNL     1       0.641   9.838  19.275  0.00  0.00    +0.000 A 
ENDBRANCH  25  26
ENDBRANCH  23  25
ENDBRANCH   7  23
TORSDOF 9
ENDMDL
MODEL 2
REMARK VINA RESULT:      -7.7      0.686      1.234
REMARK  Name = 
REMARK  9 active torsions:
REMARK  status: ('A' for Active; 'I' for Inactive)
REMARK    1  A    between atoms: N_1  and  S_2
REMARK    2  A    between atoms: S_2  and  C_5
REMARK    3  A    between atoms: C_10  and  S_11
REMARK    4  A    between atoms: S_11  and  C_14
REMARK    5  A    between atoms: C_14  and  C_15
REMARK    6  A    between atoms: C_15  and  O_16
REMARK    7  A    between atoms: C_17  and  N_18
REMARK    8  A    between atoms: N_18  and  C_19
REMARK    9  A    between atoms: C_19  and  C_20
REMARK                            x       y       z     vdW  Elec       q    Type
REMARK                         _______ _______ _______ _____ _____    ______ ____
ROOT
ATOM      1  C   UNL     1       5.380   5.001  16.826  0.00  0.00    +0.000 A 
ATOM      2  C   UNL     1       4.909   3.706  16.813  0.00  0.00    +0.000 A 
ATOM      3  F   UNL     1       5.553   2.721  16.178  0.00  0.00    +0.000 F 
ATOM      4  C   UNL     1       3.746   3.400  17.506  0.00  0.00    +0.000 A 
ATOM      5  F   UNL     1       3.326   2.126  17.500  0.00  0.00    +0.000 F 
ATOM      6  C   UNL     1       3.047   4.381  18.217  0.00  0.00    +0.000 A 
ATOM      7  C   UNL     1       3.483   5.724  18.221  0.00  0.00    +0.000 A 
ATOM      8  C   UNL     1       4.688   5.987  17.526  0.00  0.00    +0.000 A 
ATOM      9  F   UNL     1       5.227   7.215  17.573  0.00  0.00    +0.000 F 
ENDROOT
BRANCH   1  10
ATOM     10  S   UNL     1       6.879   5.438  16.052  0.00  0.00    +0.000 S 
ATOM     11  O   UNL     1       6.655   5.760  14.664  0.00  0.00    +0.000 OA
ATOM     12  O   UNL     1       7.903   4.509  16.464  0.00  0.00    +0.000 OA
BRANCH  10  13
ATOM     13  N   UNL     1       7.248   6.913  16.772  0.00  0.00    +0.000 NA
ATOM     14  H   UNL     1       7.683   6.746  17.681  0.00  0.00    +0.000 HD
ATOM     15  H   UNL     1       6.410   7.495  16.823  0.00  0.00    +0.000 HD
ENDBRANCH  10  13
ENDBRANCH   1  10
BRANCH   6  16
ATOM     16  S   UNL     1       1.569   3.822  19.031  0.00  0.00    +0.000 S 
ATOM     17  O   UNL     1       1.131   4.875  19.934  0.00  0.00    +0.000 OA
ATOM     18  O   UNL     1       0.674   3.365  17.986  0.00  0.00    +0.000 OA
BRANCH  16  19
ATOM     19  C   UNL     1       2.069   2.431  20.017  0.00  0.00    +0.000 C 
BRANCH  19  20
ATOM     20  C   UNL     1       1.520   2.535  21.427  0.00  0.00    +0.000 C 
BRANCH  20  21
ATOM     21  O   UNL     1       2.270   3.503  22.161  0.00  0.00    +0.000 OA
ATOM     22  H   UNL     1       2.874   3.030  22.760  0.00  0.00    +0.000 HD
ENDBRANCH  20  21
ENDBRANCH  19  20
ENDBRANCH  16  19
ENDBRANCH   6  16
BRANCH   7  23
ATOM     23  N   UNL     1       2.850   6.708  18.981  0.00  0.00    +0.000 N 
ATOM     24  H   UNL     1       2.236   6.351  19.725  0.00  0.00    +0.000 HD
BRANCH  23  25
ATOM     25  C   UNL     1       2.315   7.949  18.426  0.00  0.00    +0.000 C 
BRANCH  25  26
ATOM     26  C   UNL     1       1.489   8.630  19.490  0.00  0.00    +0.000 A 
ATOM     27  C   UNL     1       0.734   9.772  19.176  0.00  0.00    +0.000 A 
ATOM     28  C   UNL     1       0.004  10.432  20.167  0.00  0.00    +0.000 A 
ATOM     29  C   UNL     1       0.027   9.962  21.479  0.00  0.00    +0.000 A 
ATOM     30  C   UNL     1       0.775   8.832  21.802  0.00  0.00    +0.000 A 
ATOM     31  C   UNL     1       1.505   8.169  20.814  0.00  0.00    +0.000 A 
ENDBRANCH  25  26
ENDBRANCH  23  25
ENDBRANCH   7  23
TORSDOF 9
ENDMDL
MODEL 3
REMARK VINA RESULT:      -7.5      1.840      4.670
REMARK  Name = 
REMARK  9 active torsions:
REMARK  status: ('A' for Active; 'I' for Inactive)
REMARK    1  A    between atoms: N_1  and  S_2
REMARK    2  A    between atoms: S_2  and  C_5
REMARK    3  A    between atoms: C_10  and  S_11
REMARK    4  A    between atoms: S_11  and  C_14
REMARK    5  A    between atoms: C_14  and  C_15
REMARK    6  A    between atoms: C_15  and  O_16
REMARK    7  A    between atoms: C_17  and  N_18
REMARK    8  A    between atoms: N_18  and  C_19
REMARK    9  A    between atoms: C_19  and  C_20
REMARK                            x       y       z     vdW  Elec       q    Type
REMARK                         _______ _______ _______ _____ _____    ______ ____
ROOT
ATOM      1  C   UNL     1       2.548   3.571  18.568  0.00  0.00    +0.000 A 
ATOM      2  C   UNL     1       3.497   3.042  17.721  0.00  0.00    +0.000 A 
ATOM      3  F   UNL     1       3.540   1.738  17.427  0.00  0.00    +0.000 F 
ATOM      4  C   UNL     1       4.422   3.888  17.124  0.00  0.00    +0.000 A 
ATOM      5  F   UNL     1       5.316   3.351  16.282  0.00  0.00    +0.000 F 
ATOM      6  C   UNL     1       4.405   5.266  17.367  0.00  0.00    +0.000 A 
ATOM      7  C   UNL     1       3.468   5.835  18.257  0.00  0.00    +0.000 A 
ATOM      8  C   UNL     1       2.526   4.941  18.822  0.00  0.00    +0.000 A 
ATOM      9  F   UNL     1       1.537   5.419  19.591  0.00  0.00    +0.000 F 
ENDROOT
BRANCH   1  10
ATOM     10  S   UNL     1       1.304   2.582  19.281  0.00  0.00    +0.000 S 
ATOM     11  O   UNL     1       0.180   2.461  18.385  0.00  0.00    +0.000 OA
ATOM     12  O   UNL     1       1.139   2.963  20.663  0.00  0.00    +0.000 OA
BRANCH  10  13
ATOM     13  N   UNL     1       2.005   1.052  19.283  0.00  0.00    +0.000 NA
ATOM     14  H   UNL     1       2.240   0.790  20.242  0.00  0.00    +0.000 HD
ATOM     15  H   UNL     1       2.806   1.036  18.649  0.00  0.00    +0.000 HD
ENDBRANCH  10  13
ENDBRANCH   1  10
BRANCH   6  16
ATOM     16  S   UNL     1       5.671   6.200  16.538  0.00  0.00    +0.000 S 
ATOM     17  O   UNL     1       5.342   6.238  15.122  0.00  0.00    +0.000 OA
ATOM     18  O   UNL     1       5.806   7.443  17.270  0.00  0.00    +0.000 OA
BRANCH  16  19
ATOM     19  C   UNL     1       7.160   5.250  16.727  0.00  0.00    +0.000 C 
BRANCH  19  20
ATOM     20  C   UNL     1       7.577   5.171  18.183  0.00  0.00    +0.000 C 
BRANCH  20  21
ATOM     21  O   UNL     1       7.963   6.467  18.640  0.00  0.00    +0.000 OA
ATOM     22  H   UNL     1       8.320   6.377  19.542  0.00  0.00    +0.000 HD
ENDBRANCH  20  21
ENDBRANCH  19  20
ENDBRANCH  16  19
ENDBRANCH   6  16
BRANCH   7  23
ATOM     23  N   UNL     1       3.379   7.212  18.461  0.00  0.00    +0.000 N 
ATOM     24  H   UNL     1       3.411   7.506  19.446  0.00  0.00    +0.000 HD
BRANCH  23  25
ATOM     25  C   UNL     1       2.508   8.097  17.691  0.00  0.00    +0.000 C 
BRANCH  25  26
ATOM     26  C   UNL     1       1.587   8.813  18.648  0.00  0.00    +0.000 A 
ATOM     27  C   UNL     1       1.618   8.511  20.019  0.00  0.00    +0.000 A 
ATOM     28  C   UNL     1       0.738   9.139  20.902  0.00  0.00    +0.000 A 
ATOM     29  C   UNL     1      -0.185  10.068  20.424  0.00  0.00    +0.000 A 
ATOM     30  C   UNL     1      -0.225  10.374  19.065  0.00  0.00    +0.000 A 
ATOM     31  C   UNL     1       0.654   9.749  18.179  0.00  0.00    +0.000 A 
ENDBRANCH  25  26
ENDBRANCH  23  25
ENDBRANCH   7  23
TORSDOF 9
ENDMDL
MODEL 4
REMARK VINA RESULT:      -7.4      1.943      4.699
REMARK  Name = 
REMARK  9 active torsions:
REMARK  status: ('A' for Active; 'I' for Inactive)
REMARK    1  A    between atoms: N_1  and  S_2
REMARK    2  A    between atoms: S_2  and  C_5
REMARK    3  A    between atoms: C_10  and  S_11
REMARK    4  A    between atoms: S_11  and  C_14
REMARK    5  A    between atoms: C_14  and  C_15
REMARK    6  A    between atoms: C_15  and  O_16
REMARK    7  A    between atoms: C_17  and  N_18
REMARK    8  A    between atoms: N_18  and  C_19
REMARK    9  A    between atoms: C_19  and  C_20
REMARK                            x       y       z     vdW  Elec       q    Type
REMARK                         _______ _______ _______ _____ _____    ______ ____
ROOT
ATOM      1  C   UNL     1       2.581   3.491  18.517  0.00  0.00    +0.000 A 
ATOM      2  C   UNL     1       3.507   2.877  17.701  0.00  0.00    +0.000 A 
ATOM      3  F   UNL     1       3.525   1.553  17.518  0.00  0.00    +0.000 F 
ATOM      4  C   UNL     1       4.432   3.655  17.019  0.00  0.00    +0.000 A 
ATOM      5  F   UNL     1       5.303   3.034  16.210  0.00  0.00    +0.000 F 
ATOM      6  C   UNL     1       4.441   5.048  17.145  0.00  0.00    +0.000 A 
ATOM      7  C   UNL     1       3.529   5.706  18.000  0.00  0.00    +0.000 A 
ATOM      8  C   UNL     1       2.584   4.878  18.654  0.00  0.00    +0.000 A 
ATOM      9  F   UNL     1       1.617   5.435  19.398  0.00  0.00    +0.000 F 
ENDROOT
BRANCH   1  10
ATOM     10  S   UNL     1       1.336   2.586  19.332  0.00  0.00    +0.000 S 
ATOM     11  O   UNL     1       1.909   1.477  20.054  0.00  0.00    +0.000 OA
ATOM     12  O   UNL     1       0.220   2.415  18.433  0.00  0.00    +0.000 OA
BRANCH  10  13
ATOM     13  N   UNL     1       0.830   3.652  20.531  0.00  0.00    +0.000 NA
ATOM     14  H   UNL     1       1.024   4.610  20.235  0.00  0.00    +0.000 HD
ATOM     15  H   UNL     1       1.266   3.406  21.422  0.00  0.00    +0.000 HD
ENDBRANCH  10  13
ENDBRANCH   1  10
BRANCH   6  16
ATOM     16  S   UNL     1       5.705   5.888  16.219  0.00  0.00    +0.000 S 
ATOM     17  O   UNL     1       6.273   4.938  15.275  0.00  0.00    +0.000 OA
ATOM     18  O   UNL     1       5.104   7.110  15.722  0.00  0.00    +0.000 OA
BRANCH  16  19
ATOM     19  C   UNL     1       6.963   6.300  17.402  0.00  0.00    +0.000 C 
BRANCH  19  20
ATOM     20  C   UNL     1       7.440   5.067  18.145  0.00  0.00    +0.000 C 
BRANCH  20  21
ATOM     21  O   UNL     1       8.097   4.186  17.235  0.00  0.00    +0.000 OA
ATOM     22  H   UNL     1       8.211   3.324  17.674  0.00  0.00    +0.000 HD
ENDBRANCH  20  21
ENDBRANCH  19  20
ENDBRANCH  16  19
ENDBRANCH   6  16
BRANCH   7  23
ATOM     23  N   UNL     1       3.464   7.096  18.088  0.00  0.00    +0.000 N 
ATOM     24  H   UNL     1       3.787   7.488  18.983  0.00  0.00    +0.000 HD
BRANCH  23  25
ATOM     25  C   UNL     1       2.372   7.899  17.542  0.00  0.00    +0.000 C 
BRANCH  25  26
ATOM     26  C   UNL     1       1.824   8.772  18.644  0.00  0.00    +0.000 A 
ATOM     27  C   UNL     1       1.674   8.262  19.943  0.00  0.00    +0.000 A 
ATOM     28  C   UNL     1       1.126   9.051  20.956  0.00  0.00    +0.000 A 
ATOM     29  C   UNL     1       0.717  10.355  20.679  0.00  0.00    +0.000 A 
ATOM     30  C   UNL     1       0.859  10.871  19.392  0.00  0.00    +0.000 A 
ATOM     31  C   UNL     1       1.408  10.085  18.378  0.00  0.00    +0.000 A 
ENDBRANCH  25  26
ENDBRANCH  23  25
ENDBRANCH   7  23
TORSDOF 9
ENDMDL
MODEL 5
REMARK VINA RESULT:      -7.3      1.951      4.700
REMARK  Name = 
REMARK  9 active torsions:
REMARK  status: ('A' for Active; 'I' for Inactive)
REMARK    1  A    between atoms: N_1  and  S_2
REMARK    2  A    between atoms: S_2  and  C_5
REMARK    3  A    between atoms: C_10  and  S_11
REMARK    4  A    between atoms: S_11  and  C_14
REMARK    5  A    between atoms: C_14  and  C_15
REMARK    6  A    between atoms: C_15  and  O_16
REMARK    7  A    between atoms: C_17  and  N_18
REMARK    8  A    between atoms: N_18  and  C_19
REMARK    9  A    between atoms: C_19  and  C_20
REMARK                            x       y       z     vdW  Elec       q    Type
REMARK                         _______ _______ _______ _____ _____    ______ ____
ROOT
ATOM      1  C   UNL     1       2.576   3.574  18.561  0.00  0.00    +0.000 A 
ATOM      2  C   UNL     1       3.599   3.042  17.806  0.00  0.00    +0.000 A 
ATOM      3  F   UNL     1       3.681   1.734  17.541  0.00  0.00    +0.000 F 
ATOM      4  C   UNL     1       4.561   3.889  17.274  0.00  0.00    +0.000 A 
ATOM      5  F   UNL     1       5.529   3.349  16.521  0.00  0.00    +0.000 F 
ATOM      6  C   UNL     1       4.509   5.271  17.490  0.00  0.00    +0.000 A 
ATOM      7  C   UNL     1       3.494   5.844  18.287  0.00  0.00    +0.000 A 
ATOM      8  C   UNL     1       2.518   4.947  18.786  0.00  0.00    +0.000 A 
ATOM      9  F   UNL     1       1.462   5.426  19.461  0.00  0.00    +0.000 F 
ENDROOT
BRANCH   1  10
ATOM     10  S   UNL     1       1.287   2.582  19.184  0.00  0.00    +0.000 S 
ATOM     11  O   UNL     1       1.794   1.296  19.597  0.00  0.00    +0.000 OA
ATOM     12  O   UNL     1       0.142   2.706  18.316  0.00  0.00    +0.000 OA
BRANCH  10  13
ATOM     13  N   UNL     1       0.888   3.357  20.623  0.00  0.00    +0.000 NA
ATOM     14  H   UNL     1       0.990   2.702  21.400  0.00  0.00    +0.000 HD
ATOM     15  H   UNL     1      -0.047   3.762  20.553  0.00  0.00    +0.000 HD
ENDBRANCH  10  13
ENDBRANCH   1  10
BRANCH   6  16
ATOM     16  S   UNL     1       5.830   6.206  16.754  0.00  0.00    +0.000 S 
ATOM     17  O   UNL     1       5.796   5.971  15.318  0.00  0.00    +0.000 OA
ATOM     18  O   UNL     1       5.701   7.559  17.255  0.00  0.00    +0.000 OA
BRANCH  16  19
ATOM     19  C   UNL     1       7.327   5.491  17.389  0.00  0.00    +0.000 C 
BRANCH  19  20
ATOM     20  C   UNL     1       7.689   6.087  18.735  0.00  0.00    +0.000 C 
BRANCH  20  21
ATOM     21  O   UNL     1       7.114   5.300  19.777  0.00  0.00    +0.000 OA
ATOM     22  H   UNL     1       6.401   4.760  19.392  0.00  0.00    +0.000 HD
ENDBRANCH  20  21
ENDBRANCH  19  20
ENDBRANCH  16  19
ENDBRANCH   6  16
BRANCH   7  23
ATOM     23  N   UNL     1       3.373   7.222  18.458  0.00  0.00    +0.000 N 
ATOM     24  H   UNL     1       3.383   7.540  19.436  0.00  0.00    +0.000 HD
BRANCH  23  25
ATOM     25  C   UNL     1       2.496   8.071  17.654  0.00  0.00    +0.000 C 
BRANCH  25  26
ATOM     26  C   UNL     1       1.546   8.790  18.580  0.00  0.00    +0.000 A 
ATOM     27  C   UNL     1       0.635   9.728  18.070  0.00  0.00    +0.000 A 
ATOM     28  C   UNL     1      -0.215  10.430  18.928  0.00  0.00    +0.000 A 
ATOM     29  C   UNL     1      -0.156  10.205  20.303  0.00  0.00    +0.000 A 
ATOM     30  C   UNL     1       0.747   9.278  20.820  0.00  0.00    +0.000 A 
ATOM     31  C   UNL     1       1.596   8.575  19.964  0.00  0.00    +0.000 A 
ENDBRANCH  25  26
ENDBRANCH  23  25
ENDBRANCH   7  23
TORSDOF 9
ENDMDL
MODEL 6
REMARK VINA RESULT:      -7.3      1.920      4.983
REMARK  Name = 
REMARK  9 active torsions:
REMARK  status: ('A' for Active; 'I' for Inactive)
REMARK    1  A    between atoms: N_1  and  S_2
REMARK    2  A    between atoms: S_2  and  C_5
REMARK    3  A    between atoms: C_10  and  S_11
REMARK    4  A    between atoms: S_11  and  C_14
REMARK    5  A    between atoms: C_14  and  C_15
REMARK    6  A    between atoms: C_15  and  O_16
REMARK    7  A    between atoms: C_17  and  N_18
REMARK    8  A    between atoms: N_18  and  C_19
REMARK    9  A    between atoms: C_19  and  C_20
REMARK                            x       y       z     vdW  Elec       q    Type
REMARK                         _______ _______ _______ _____ _____    ______ ____
ROOT
ATOM      1  C   UNL     1       2.535   3.590  18.602  0.00  0.00    +0.000 A 
ATOM      2  C   UNL     1       3.452   3.013  17.750  0.00  0.00    +0.000 A 
ATOM      3  F   UNL     1       3.454   1.701  17.491  0.00  0.00    +0.000 F 
ATOM      4  C   UNL     1       4.385   3.818  17.111  0.00  0.00    +0.000 A 
ATOM      5  F   UNL     1       5.247   3.235  16.266  0.00  0.00    +0.000 F 
ATOM      6  C   UNL     1       4.409   5.202  17.317  0.00  0.00    +0.000 A 
ATOM      7  C   UNL     1       3.506   5.819  18.210  0.00  0.00    +0.000 A 
ATOM      8  C   UNL     1       2.554   4.966  18.818  0.00  0.00    +0.000 A 
ATOM      9  F   UNL     1       1.594   5.490  19.595  0.00  0.00    +0.000 F 
ENDROOT
BRANCH   1  10
ATOM     10  S   UNL     1       1.281   2.653  19.367  0.00  0.00    +0.000 S 
ATOM     11  O   UNL     1       1.844   1.504  20.033  0.00  0.00    +0.000 OA
ATOM     12  O   UNL     1       0.166   2.537  18.458  0.00  0.00    +0.000 OA
BRANCH  10  13
ATOM     13  N   UNL     1       0.780   3.660  20.618  0.00  0.00    +0.000 NA
ATOM     14  H   UNL     1       1.337   4.516  20.607  0.00  0.00    +0.000 HD
ATOM     15  H   UNL     1       0.823   3.159  21.507  0.00  0.00    +0.000 HD
ENDBRANCH  10  13
ENDBRANCH   1  10
BRANCH   6  16
ATOM     16  S   UNL     1       5.680   6.079  16.437  0.00  0.00    +0.000 S 
ATOM     17  O   UNL     1       5.147   6.451  15.135  0.00  0.00    +0.000 OA
ATOM     18  O   UNL     1       6.156   7.115  17.332  0.00  0.00    +0.000 OA
BRANCH  16  19
ATOM     19  C   UNL     1       6.979   4.896  16.177  0.00  0.00    +0.000 C 
BRANCH  19  20
ATOM     20  C   UNL     1       7.155   4.593  14.701  0.00  0.00    +0.000 C 
BRANCH  20  21
ATOM     21  O   UNL     1       7.922   5.629  14.089  0.00  0.00    +0.000 OA
ATOM     22  H   UNL     1       8.731   5.231  13.719  0.00  0.00    +0.000 HD
ENDBRANCH  20  21
ENDBRANCH  19  20
ENDBRANCH  16  19
ENDBRANCH   6  16
BRANCH   7  23
ATOM     23  N   UNL     1       3.457   7.203  18.378  0.00  0.00    +0.000 N 
ATOM     24  H   UNL     1       3.497   7.522  19.356  0.00  0.00    +0.000 HD
BRANCH  23  25
ATOM     25  C   UNL     1       2.613   8.093  17.584  0.00  0.00    +0.000 C 
BRANCH  25  26
ATOM     26  C   UNL     1       1.661   8.804  18.514  0.00  0.00    +0.000 A 
ATOM     27  C   UNL     1       1.687   8.537  19.893  0.00  0.00    +0.000 A 
ATOM     28  C   UNL     1       0.778   9.159  20.752  0.00  0.00    +0.000 A 
ATOM     29  C   UNL     1      -0.168  10.047  20.241  0.00  0.00    +0.000 A 
ATOM     30  C   UNL     1      -0.203  10.317  18.875  0.00  0.00    +0.000 A 
ATOM     31  C   UNL     1       0.704   9.698  18.013  0.00  0.00    +0.000 A 
ENDBRANCH  25  26
ENDBRANCH  23  25
ENDBRANCH   7  23
TORSDOF 9
ENDMDL
MODEL 7
REMARK VINA RESULT:      -7.3      0.940      1.389
REMARK  Name = 
REMARK  9 active torsions:
REMARK  status: ('A' for Active; 'I' for Inactive)
REMARK    1  A    between atoms: N_1  and  S_2
REMARK    2  A    between atoms: S_2  and  C_5
REMARK    3  A    between atoms: C_10  and  S_11
REMARK    4  A    between atoms: S_11  and  C_14
REMARK    5  A    between atoms: C_14  and  C_15
REMARK    6  A    between atoms: C_15  and  O_16
REMARK    7  A    between atoms: C_17  and  N_18
REMARK    8  A    between atoms: N_18  and  C_19
REMARK    9  A    between atoms: C_19  and  C_20
REMARK                            x       y       z     vdW  Elec       q    Type
REMARK                         _______ _______ _______ _____ _____    ______ ____
ROOT
ATOM      1  C   UNL     1       4.994   5.029  16.919  0.00  0.00    +0.000 A 
ATOM      2  C   UNL     1       4.778   3.668  16.951  0.00  0.00    +0.000 A 
ATOM      3  F   UNL     1       5.625   2.801  16.387  0.00  0.00    +0.000 F 
ATOM      4  C   UNL     1       3.665   3.174  17.616  0.00  0.00    +0.000 A 
ATOM      5  F   UNL     1       3.494   1.844  17.656  0.00  0.00    +0.000 F 
ATOM      6  C   UNL     1       2.762   4.031  18.254  0.00  0.00    +0.000 A 
ATOM      7  C   UNL     1       2.935   5.432  18.210  0.00  0.00    +0.000 A 
ATOM      8  C   UNL     1       4.098   5.892  17.546  0.00  0.00    +0.000 A 
ATOM      9  F   UNL     1       4.392   7.201  17.554  0.00  0.00    +0.000 F 
ENDROOT
BRANCH   1  10
ATOM     10  S   UNL     1       6.416   5.713  16.181  0.00  0.00    +0.000 S 
ATOM     11  O   UNL     1       7.583   4.935  16.518  0.00  0.00    +0.000 OA
ATOM     12  O   UNL     1       6.382   7.146  16.343  0.00  0.00    +0.000 OA
BRANCH  10  13
ATOM     13  N   UNL     1       6.165   5.406  14.545  0.00  0.00    +0.000 NA
ATOM     14  H   UNL     1       5.244   4.985  14.418  0.00  0.00    +0.000 HD
ATOM     15  H   UNL     1       6.928   4.836  14.177  0.00  0.00    +0.000 HD
ENDBRANCH  10  13
ENDBRANCH   1  10
BRANCH   6  16
ATOM     16  S   UNL     1       1.381   3.232  19.040  0.00  0.00    +0.000 S 
ATOM     17  O   UNL     1       0.706   4.221  19.867  0.00  0.00    +0.000 OA
ATOM     18  O   UNL     1       0.643   2.562  17.988  0.00  0.00    +0.000 OA
BRANCH  16  19
ATOM     19  C   UNL     1       2.092   2.013  20.119  0.00  0.00    +0.000 C 
BRANCH  19  20
ATOM     20  C   UNL     1       2.842   2.666  21.264  0.00  0.00    +0.000 C 
BRANCH  20  21
ATOM     21  O   UNL     1       1.920   3.044  22.285  0.00  0.00    +0.000 OA
ATOM     22  H   UNL     1       1.868   2.318  22.932  0.00  0.00    +0.000 HD
ENDBRANCH  20  21
ENDBRANCH  19  20
ENDBRANCH  16  19
ENDBRANCH   6  16
BRANCH   7  23
ATOM     23  N   UNL     1       2.094   6.306  18.899  0.00  0.00    +0.000 N 
ATOM     24  H   UNL     1       1.523   6.917  18.300  0.00  0.00    +0.000 HD
BRANCH  23  25
ATOM     25  C   UNL     1       2.468   6.999  20.130  0.00  0.00    +0.000 C 
BRANCH  25  26
ATOM     26  C   UNL     1       1.581   8.210  20.284  0.00  0.00    +0.000 A 
ATOM     27  C   UNL     1       1.366   9.072  19.198  0.00  0.00    +0.000 A 
ATOM     28  C   UNL     1       0.583  10.218  19.348  0.00  0.00    +0.000 A 
ATOM     29  C   UNL     1       0.014  10.516  20.585  0.00  0.00    +0.000 A 
ATOM     30  C   UNL     1       0.223   9.669  21.671  0.00  0.00    +0.000 A 
ATOM     31  C   UNL     1       1.005   8.521  21.524  0.00  0.00    +0.000 A 
ENDBRANCH  25  26
ENDBRANCH  23  25
ENDBRANCH   7  23
TORSDOF 9
ENDMDL
MODEL 8
REMARK VINA RESULT:      -7.2      1.487      2.178
REMARK  Name = 
REMARK  9 active torsions:
REMARK  status: ('A' for Active; 'I' for Inactive)
REMARK    1  A    between atoms: N_1  and  S_2
REMARK    2  A    between atoms: S_2  and  C_5
REMARK    3  A    between atoms: C_10  and  S_11
REMARK    4  A    between atoms: S_11  and  C_14
REMARK    5  A    between atoms: C_14  and  C_15
REMARK    6  A    between atoms: C_15  and  O_16
REMARK    7  A    between atoms: C_17  and  N_18
REMARK    8  A    between atoms: N_18  and  C_19
REMARK    9  A    between atoms: C_19  and  C_20
REMARK                            x       y       z     vdW  Elec       q    Type
REMARK                         _______ _______ _______ _____ _____    ______ ____
ROOT
ATOM      1  C   UNL     1       5.106   5.741  17.579  0.00  0.00    +0.000 A 
ATOM      2  C   UNL     1       5.423   4.498  18.085  0.00  0.00    +0.000 A 
ATOM      3  F   UNL     1       6.526   3.840  17.714  0.00  0.00    +0.000 F 
ATOM      4  C   UNL     1       4.591   3.920  19.033  0.00  0.00    +0.000 A 
ATOM      5  F   UNL     1       4.937   2.723  19.529  0.00  0.00    +0.000 F 
ATOM      6  C   UNL     1       3.441   4.576  19.485  0.00  0.00    +0.000 A 
ATOM      7  C   UNL     1       3.070   5.834  18.962  0.00  0.00    +0.000 A 
ATOM      8  C   UNL     1       3.961   6.400  18.018  0.00  0.00    +0.000 A 
ATOM      9  F   UNL     1       3.736   7.639  17.555  0.00  0.00    +0.000 F 
ENDROOT
BRANCH   1  10
ATOM     10  S   UNL     1       6.150   6.564  16.453  0.00  0.00    +0.000 S 
ATOM     11  O   UNL     1       6.847   7.644  17.108  0.00  0.00    +0.000 OA
ATOM     12  O   UNL     1       5.439   6.757  15.213  0.00  0.00    +0.000 OA
BRANCH  10  13
ATOM     13  N   UNL     1       7.344   5.416  16.151  0.00  0.00    +0.000 NA
ATOM     14  H   UNL     1       6.973   4.485  16.343  0.00  0.00    +0.000 HD
ATOM     15  H   UNL     1       8.184   5.639  16.688  0.00  0.00    +0.000 HD
ENDBRANCH  10  13
ENDBRANCH   1  10
BRANCH   6  16
ATOM     16  S   UNL     1       2.480   3.685  20.686  0.00  0.00    +0.000 S 
ATOM     17  O   UNL     1       3.188   2.454  21.001  0.00  0.00    +0.000 OA
ATOM     18  O   UNL     1       2.181   4.625  21.749  0.00  0.00    +0.000 OA
BRANCH  16  19
ATOM     19  C   UNL     1       0.971   3.250  19.856  0.00  0.00    +0.000 C 
BRANCH  19  20
ATOM     20  C   UNL     1       1.253   2.617  18.507  0.00  0.00    +0.000 C 
BRANCH  20  21
ATOM     21  O   UNL     1       1.924   1.371  18.694  0.00  0.00    +0.000 OA
ATOM     22  H   UNL     1       2.104   1.263  19.645  0.00  0.00    +0.000 HD
ENDBRANCH  20  21
ENDBRANCH  19  20
ENDBRANCH  16  19
ENDBRANCH   6  16
BRANCH   7  23
ATOM     23  N   UNL     1       1.972   6.545  19.446  0.00  0.00    +0.000 N 
ATOM     24  H   UNL     1       1.234   6.727  18.752  0.00  0.00    +0.000 HD
BRANCH  23  25
ATOM     25  C   UNL     1       2.070   7.655  20.392  0.00  0.00    +0.000 C 
BRANCH  25  26
ATOM     26  C   UNL     1       1.147   8.756  19.933  0.00  0.00    +0.000 A 
ATOM     27  C   UNL     1       1.232   9.251  18.622  0.00  0.00    +0.000 A 
ATOM     28  C   UNL     1       0.411  10.301  18.206  0.00  0.00    +0.000 A 
ATOM     29  C   UNL     1      -0.498  10.870  19.098  0.00  0.00    +0.000 A 
ATOM     30  C   UNL     1      -0.589  10.388  20.402  0.00  0.00    +0.000 A 
ATOM     31  C   UNL     1       0.230   9.338  20.820  0.00  0.00    +0.000 A 
ENDBRANCH  25  26
ENDBRANCH  23  25
ENDBRANCH   7  23
TORSDOF 9
ENDMDL
MODEL 9
REMARK VINA RESULT:      -7.2      1.584      2.174
REMARK  Name = 
REMARK  9 active torsions:
REMARK  status: ('A' for Active; 'I' for Inactive)
REMARK    1  A    between atoms: N_1  and  S_2
REMARK    2  A    between atoms: S_2  and  C_5
REMARK    3  A    between atoms: C_10  and  S_11
REMARK    4  A    between atoms: S_11  and  C_14
REMARK    5  A    between atoms: C_14  and  C_15
REMARK    6  A    between atoms: C_15  and  O_16
REMARK    7  A    between atoms: C_17  and  N_18
REMARK    8  A    between atoms: N_18  and  C_19
REMARK    9  A    between atoms: C_19  and  C_20
REMARK                            x       y       z     vdW  Elec       q    Type
REMARK                         _______ _______ _______ _____ _____    ______ ____
ROOT
ATOM      1  C   UNL     1       5.079   5.629  17.408  0.00  0.00    +0.000 A 
ATOM      2  C   UNL     1       5.399   4.401  17.946  0.00  0.00    +0.000 A 
ATOM      3  F   UNL     1       6.489   3.724  17.571  0.00  0.00    +0.000 F 
ATOM      4  C   UNL     1       4.585   3.859  18.931  0.00  0.00    +0.000 A 
ATOM      5  F   UNL     1       4.936   2.677  19.457  0.00  0.00    +0.000 F 
ATOM      6  C   UNL     1       3.450   4.537  19.387  0.00  0.00    +0.000 A 
ATOM      7  C   UNL     1       3.075   5.781  18.833  0.00  0.00    +0.000 A 
ATOM      8  C   UNL     1       3.947   6.310  17.851  0.00  0.00    +0.000 A 
ATOM      9  F   UNL     1       3.720   7.535  17.354  0.00  0.00    +0.000 F 
ENDROOT
BRANCH   1  10
ATOM     10  S   UNL     1       6.102   6.409  16.233  0.00  0.00    +0.000 S 
ATOM     11  O   UNL     1       5.305   7.038  15.209  0.00  0.00    +0.000 OA
ATOM     12  O   UNL     1       7.198   5.528  15.912  0.00  0.00    +0.000 OA
BRANCH  10  13
ATOM     13  N   UNL     1       6.754   7.692  17.106  0.00  0.00    +0.000 NA
ATOM     14  H   UNL     1       7.687   7.902  16.750  0.00  0.00    +0.000 HD
ATOM     15  H   UNL     1       6.738   7.477  18.104  0.00  0.00    +0.000 HD
ENDBRANCH  10  13
ENDBRANCH   1  10
BRANCH   6  16
ATOM     16  S   UNL     1       2.511   3.692  20.638  0.00  0.00    +0.000 S 
ATOM     17  O   UNL     1       3.215   2.463  20.971  0.00  0.00    +0.000 OA
ATOM     18  O   UNL     1       2.248   4.665  21.679  0.00  0.00    +0.000 OA
BRANCH  16  19
ATOM     19  C   UNL     1       0.978   3.248  19.858  0.00  0.00    +0.000 C 
BRANCH  19  20
ATOM     20  C   UNL     1       1.219   2.575  18.521  0.00  0.00    +0.000 C 
BRANCH  20  21
ATOM     21  O   UNL     1       1.975   1.380  18.716  0.00  0.00    +0.000 OA
ATOM     22  H   UNL     1       2.003   0.896  17.872  0.00  0.00    +0.000 HD
ENDBRANCH  20  21
ENDBRANCH  19  20
ENDBRANCH  16  19
ENDBRANCH   6  16
BRANCH   7  23
ATOM     23  N   UNL     1       1.993   6.514  19.319  0.00  0.00    +0.000 N 
ATOM     24  H   UNL     1       1.271   6.735  18.619  0.00  0.00    +0.000 HD
BRANCH  23  25
ATOM     25  C   UNL     1       2.111   7.598  20.291  0.00  0.00    +0.000 C 
BRANCH  25  26
ATOM     26  C   UNL     1       1.220   8.734  19.852  0.00  0.00    +0.000 A 
ATOM     27  C   UNL     1       0.334   9.331  20.763  0.00  0.00    +0.000 A 
ATOM     28  C   UNL     1      -0.524  10.352  20.350  0.00  0.00    +0.000 A 
ATOM     29  C   UNL     1      -0.510  10.780  19.023  0.00  0.00    +0.000 A 
ATOM     30  C   UNL     1       0.363  10.193  18.111  0.00  0.00    +0.000 A 
ATOM     31  C   UNL     1       1.224   9.173  18.520  0.00  0.00    +0.000 A 
ENDBRANCH  25  26
ENDBRANCH  23  25
ENDBRANCH   7  23
TORSDOF 9
ENDMDL
