MODEL 1
REMARK VINA RESULT:      -8.6      0.000      0.000
REMARK  Name = 
REMARK  7 active torsions:
REMARK  status: ('A' for Active; 'I' for Inactive)
REMARK    1  A    between atoms: C_2  and  C_7
REMARK    2  A    between atoms: N_3  and  C_4
REMARK    3  A    between atoms: C_10  and  C_11
REMARK    4  A    between atoms: C_15  and  N_16
REMARK    5  A    between atoms: N_16  and  C_17
REMARK    6  A    between atoms: C_17  and  C_18
REMARK    7  A    between atoms: N_26  and  C_27
REMARK                            x       y       z     vdW  Elec       q    Type
REMARK                         _______ _______ _______ _____ _____    ______ ____
ROOT
ATOM      1  C   UNL     1       0.969   8.846  21.178  0.00  0.00    +0.000 A 
ATOM      2  C   UNL     1       1.107   9.004  22.540  0.00  0.00    +0.000 A 
ATOM      3  N   UNL     1       0.370  10.051  23.007  0.00  0.00    +0.000 NA
ATOM      4  C   UNL     1      -0.218  10.559  21.945  0.00  0.00    +0.000 A 
ATOM      5  C   UNL     1      -1.069  11.701  21.805  0.00  0.00    +0.000 A 
ATOM      6  C   UNL     1      -1.482  12.006  20.570  0.00  0.00    +0.000 A 
ATOM      7  C   UNL     1      -1.172  11.122  19.413  0.00  0.00    +0.000 A 
ATOM      8  N   UNL     1      -1.751  11.468  18.195  0.00  0.00    +0.000 N 
ATOM      9  N   UNL     1      -0.409  10.067  19.516  0.00  0.00    +0.000 NA
ATOM     10  N   UNL     1       0.085   9.844  20.791  0.00  0.00    +0.000 N 
ATOM     11  H   UNL     1      -1.916  12.448  18.021  0.00  0.00    +0.000 HD
ENDROOT
BRANCH   1  15
ATOM     12  C   UNL     1       2.746   6.004  18.524  0.00  0.00    +0.000 A 
ATOM     13  C   UNL     1       2.687   7.352  18.170  0.00  0.00    +0.000 A 
ATOM     14  C   UNL     1       2.133   8.277  19.060  0.00  0.00    +0.000 A 
ATOM     15  C   UNL     1       1.636   7.869  20.312  0.00  0.00    +0.000 A 
ATOM     16  C   UNL     1       1.708   6.517  20.653  0.00  0.00    +0.000 A 
ATOM     17  C   UNL     1       2.253   5.586  19.770  0.00  0.00    +0.000 A 
BRANCH  12  19
ATOM     18  O   UNL     1       2.730   4.021  17.259  0.00  0.00    +0.000 OA
ATOM     19  C   UNL     1       3.349   5.015  17.591  0.00  0.00    +0.000 C 
ATOM     20  N   UNL     1       4.647   5.310  17.188  0.00  0.00    +0.000 N 
ATOM     21  H   UNL     1       5.154   6.040  17.670  0.00  0.00    +0.000 HD
BRANCH  20  22
ATOM     22  C   UNL     1       5.383   4.455  16.320  0.00  0.00    +0.000 C 
ATOM     23  C   UNL     1       5.557   4.782  14.866  0.00  0.00    +0.000 C 
ATOM     24  C   UNL     1       6.726   4.887  15.793  0.00  0.00    +0.000 C 
ENDBRANCH  20  22
ENDBRANCH  12  19
ENDBRANCH   1  15
BRANCH   8  25
ATOM     25  C   UNL     1      -2.127  10.537  17.144  0.00  0.00    +0.000 C 
ATOM     26  C   UNL     1      -3.415   9.774  17.494  0.00  0.00    +0.000 C 
ATOM     27  C   UNL     1      -4.068   9.440  16.158  0.00  0.00    +0.000 C 
ATOM     28  C   UNL     1      -3.557  10.466  15.157  0.00  0.00    +0.000 C 
ATOM     29  C   UNL     1      -2.436  11.250  15.834  0.00  0.00    +0.000 C 
ENDBRANCH   8  25
BRANCH   5  30
ATOM     30  N   UNL     1      -1.469  12.481  22.881  0.00  0.00    +0.000 N 
ATOM     31  H   UNL     1      -1.395  12.035  23.788  0.00  0.00    +0.000 HD
BRANCH  30  32
ATOM     32  C   UNL     1      -2.136  13.769  22.760  0.00  0.00    +0.000 C 
BRANCH  32  33
ATOM     33  C   UNL     1      -3.611  13.719  23.182  0.00  0.00    +0.000 C 
ATOM     34  C   UNL     1      -3.917  12.601  24.188  0.00  0.00    +0.000 C 
ATOM     35  C   UNL     1      -5.406  12.541  24.505  0.00  0.00    +0.000 C 
ATOM     36  O   UNL     1      -6.167  12.400  23.305  0.00  0.00    +0.000 OA
ATOM     37  C   UNL     1      -6.000  13.513  22.427  0.00  0.00    +0.000 C 
ATOM     38  C   UNL     1      -4.551  13.633  21.973  0.00  0.00    +0.000 C 
ENDBRANCH  32  33
ENDBRANCH  30  32
ENDBRANCH   5  30
TORSDOF 7
ENDMDL
MODEL 2
REMARK VINA RESULT:      -8.5      0.396      1.221
REMARK  Name = 
REMARK  7 active torsions:
REMARK  status: ('A' for Active; 'I' for Inactive)
REMARK    1  A    between atoms: C_2  and  C_7
REMARK    2  A    between atoms: N_3  and  C_4
REMARK    3  A    between atoms: C_10  and  C_11
REMARK    4  A    between atoms: C_15  and  N_16
REMARK    5  A    between atoms: N_16  and  C_17
REMARK    6  A    between atoms: C_17  and  C_18
REMARK    7  A    between atoms: N_26  and  C_27
REMARK                            x       y       z     vdW  Elec       q    Type
REMARK                         _______ _______ _______ _____ _____    ______ ____
ROOT
ATOM      1  C   UNL     1       1.160   8.742  20.996  0.00  0.00    +0.000 A 
ATOM      2  C   UNL     1       1.366   8.857  22.354  0.00  0.00    +0.000 A 
ATOM      3  N   UNL     1       0.714   9.934  22.877  0.00  0.00    +0.000 NA
ATOM      4  C   UNL     1       0.112  10.503  21.853  0.00  0.00    +0.000 A 
ATOM      5  C   UNL     1      -0.674  11.695  21.778  0.00  0.00    +0.000 A 
ATOM      6  C   UNL     1      -1.120  12.055  20.569  0.00  0.00    +0.000 A 
ATOM      7  C   UNL     1      -0.914  11.185  19.380  0.00  0.00    +0.000 A 
ATOM      8  N   UNL     1      -1.523  11.594  18.196  0.00  0.00    +0.000 N 
ATOM      9  N   UNL     1      -0.212  10.084  19.425  0.00  0.00    +0.000 NA
ATOM     10  N   UNL     1       0.322   9.800  20.671  0.00  0.00    +0.000 N 
ATOM     11  H   UNL     1      -1.636  12.586  18.053  0.00  0.00    +0.000 HD
ENDROOT
BRANCH   1  15
ATOM     12  C   UNL     1       2.997   5.841  18.447  0.00  0.00    +0.000 A 
ATOM     13  C   UNL     1       2.478   5.459  19.685  0.00  0.00    +0.000 A 
ATOM     14  C   UNL     1       1.850   6.410  20.495  0.00  0.00    +0.000 A 
ATOM     15  C   UNL     1       1.730   7.750  20.080  0.00  0.00    +0.000 A 
ATOM     16  C   UNL     1       2.250   8.114  18.837  0.00  0.00    +0.000 A 
ATOM     17  C   UNL     1       2.884   7.174  18.023  0.00  0.00    +0.000 A 
BRANCH  12  19
ATOM     18  O   UNL     1       3.048   3.835  17.220  0.00  0.00    +0.000 OA
ATOM     19  C   UNL     1       3.650   4.834  17.572  0.00  0.00    +0.000 C 
ATOM     20  N   UNL     1       4.971   5.116  17.242  0.00  0.00    +0.000 N 
ATOM     21  H   UNL     1       5.452   5.853  17.741  0.00  0.00    +0.000 HD
BRANCH  20  22
ATOM     22  C   UNL     1       5.755   4.242  16.437  0.00  0.00    +0.000 C 
ATOM     23  C   UNL     1       5.684   4.289  14.939  0.00  0.00    +0.000 C 
ATOM     24  C   UNL     1       6.911   4.783  15.637  0.00  0.00    +0.000 C 
ENDBRANCH  20  22
ENDBRANCH  12  19
ENDBRANCH   1  15
BRANCH   8  25
ATOM     25  C   UNL     1      -1.999  10.714  17.143  0.00  0.00    +0.000 C 
ATOM     26  C   UNL     1      -3.125   9.792  17.636  0.00  0.00    +0.000 C 
ATOM     27  C   UNL     1      -3.980   9.495  16.410  0.00  0.00    +0.000 C 
ATOM     28  C   UNL     1      -3.757  10.647  15.439  0.00  0.00    +0.000 C 
ATOM     29  C   UNL     1      -2.608  11.490  15.982  0.00  0.00    +0.000 C 
ENDBRANCH   8  25
BRANCH   5  30
ATOM     30  N   UNL     1      -0.980  12.470  22.888  0.00  0.00    +0.000 N 
ATOM     31  H   UNL     1      -0.498  12.210  23.741  0.00  0.00    +0.000 HD
BRANCH  30  32
ATOM     32  C   UNL     1      -2.046  13.459  22.932  0.00  0.00    +0.000 C 
BRANCH  32  33
ATOM     33  C   UNL     1      -3.440  12.830  23.065  0.00  0.00    +0.000 C 
ATOM     34  C   UNL     1      -4.462  13.407  22.076  0.00  0.00    +0.000 C 
ATOM     35  C   UNL     1      -5.846  12.813  22.308  0.00  0.00    +0.000 C 
ATOM     36  O   UNL     1      -6.250  13.004  23.664  0.00  0.00    +0.000 OA
ATOM     37  C   UNL     1      -5.382  12.343  24.584  0.00  0.00    +0.000 C 
ATOM     38  C   UNL     1      -3.971  12.909  24.501  0.00  0.00    +0.000 C 
ENDBRANCH  32  33
ENDBRANCH  30  32
ENDBRANCH   5  30
TORSDOF 7
ENDMDL
MODEL 3
REMARK VINA RESULT:      -8.4      1.229      1.739
REMARK  Name = 
REMARK  7 active torsions:
REMARK  status: ('A' for Active; 'I' for Inactive)
REMARK    1  A    between atoms: C_2  and  C_7
REMARK    2  A    between atoms: N_3  and  C_4
REMARK    3  A    between atoms: C_10  and  C_11
REMARK    4  A    between atoms: C_15  and  N_16
REMARK    5  A    between atoms: N_16  and  C_17
REMARK    6  A    between atoms: C_17  and  C_18
REMARK    7  A    between atoms: N_26  and  C_27
REMARK                            x       y       z     vdW  Elec       q    Type
REMARK                         _______ _______ _______ _____ _____    ______ ____
ROOT
ATOM      1  C   UNL     1       0.306   9.840  21.148  0.00  0.00    +0.000 A 
ATOM      2  C   UNL     1       0.557  10.150  22.467  0.00  0.00    +0.000 A 
ATOM      3  N   UNL     1      -0.237  11.164  22.911  0.00  0.00    +0.000 NA
ATOM      4  C   UNL     1      -0.977  11.501  21.876  0.00  0.00    +0.000 A 
ATOM      5  C   UNL     1      -1.954  12.535  21.723  0.00  0.00    +0.000 A 
ATOM      6  C   UNL     1      -2.514  12.670  20.516  0.00  0.00    +0.000 A 
ATOM      7  C   UNL     1      -2.226  11.707  19.420  0.00  0.00    +0.000 A 
ATOM      8  N   UNL     1      -2.954  11.867  18.243  0.00  0.00    +0.000 N 
ATOM      9  N   UNL     1      -1.349  10.746  19.537  0.00  0.00    +0.000 NA
ATOM     10  N   UNL     1      -0.713  10.703  20.767  0.00  0.00    +0.000 N 
ATOM     11  H   UNL     1      -3.238  12.804  17.998  0.00  0.00    +0.000 HD
ENDROOT
BRANCH   1  15
ATOM     12  C   UNL     1       2.468   6.978  18.820  0.00  0.00    +0.000 A 
ATOM     13  C   UNL     1       2.045   6.657  20.111  0.00  0.00    +0.000 A 
ATOM     14  C   UNL     1       1.310   7.589  20.850  0.00  0.00    +0.000 A 
ATOM     15  C   UNL     1       0.986   8.849  20.310  0.00  0.00    +0.000 A 
ATOM     16  C   UNL     1       1.413   9.152  19.016  0.00  0.00    +0.000 A 
ATOM     17  C   UNL     1       2.151   8.231  18.272  0.00  0.00    +0.000 A 
BRANCH  12  19
ATOM     18  O   UNL     1       2.718   4.942  17.671  0.00  0.00    +0.000 OA
ATOM     19  C   UNL     1       3.234   5.988  18.020  0.00  0.00    +0.000 C 
ATOM     20  N   UNL     1       4.552   6.344  17.757  0.00  0.00    +0.000 N 
ATOM     21  H   UNL     1       4.955   7.126  18.256  0.00  0.00    +0.000 HD
BRANCH  20  22
ATOM     22  C   UNL     1       5.436   5.497  17.031  0.00  0.00    +0.000 C 
ATOM     23  C   UNL     1       5.682   5.702  15.565  0.00  0.00    +0.000 C 
ATOM     24  C   UNL     1       6.763   6.024  16.548  0.00  0.00    +0.000 C 
ENDBRANCH  20  22
ENDBRANCH  12  19
ENDBRANCH   1  15
BRANCH   8  25
ATOM     25  C   UNL     1      -3.328  10.802  17.329  0.00  0.00    +0.000 C 
ATOM     26  C   UNL     1      -4.256  11.309  16.214  0.00  0.00    +0.000 C 
ATOM     27  C   UNL     1      -3.991  10.403  15.017  0.00  0.00    +0.000 C 
ATOM     28  C   UNL     1      -2.589   9.842  15.201  0.00  0.00    +0.000 C 
ATOM     29  C   UNL     1      -2.122  10.222  16.603  0.00  0.00    +0.000 C 
ENDBRANCH   8  25
BRANCH   5  30
ATOM     30  N   UNL     1      -2.328  13.379  22.759  0.00  0.00    +0.000 N 
ATOM     31  H   UNL     1      -1.783  14.230  22.840  0.00  0.00    +0.000 HD
BRANCH  30  32
ATOM     32  C   UNL     1      -3.285  13.031  23.799  0.00  0.00    +0.000 C 
BRANCH  32  33
ATOM     33  C   UNL     1      -4.714  13.489  23.473  0.00  0.00    +0.000 C 
ATOM     34  C   UNL     1      -4.948  14.982  23.741  0.00  0.00    +0.000 C 
ATOM     35  C   UNL     1      -6.400  15.364  23.486  0.00  0.00    +0.000 C 
ATOM     36  O   UNL     1      -7.276  14.541  24.256  0.00  0.00    +0.000 OA
ATOM     37  C   UNL     1      -7.168  13.162  23.905  0.00  0.00    +0.000 C 
ATOM     38  C   UNL     1      -5.768  12.638  24.192  0.00  0.00    +0.000 C 
ENDBRANCH  32  33
ENDBRANCH  30  32
ENDBRANCH   5  30
TORSDOF 7
ENDMDL
MODEL 4
REMARK VINA RESULT:      -8.3      1.038      1.149
REMARK  Name = 
REMARK  7 active torsions:
REMARK  status: ('A' for Active; 'I' for Inactive)
REMARK    1  A    between atoms: C_2  and  C_7
REMARK    2  A    between atoms: N_3  and  C_4
REMARK    3  A    between atoms: C_10  and  C_11
REMARK    4  A    between atoms: C_15  and  N_16
REMARK    5  A    between atoms: N_16  and  C_17
REMARK    6  A    between atoms: C_17  and  C_18
REMARK    7  A    between atoms: N_26  and  C_27
REMARK                            x       y       z     vdW  Elec       q    Type
REMARK                         _______ _______ _______ _____ _____    ______ ____
ROOT
ATOM      1  C   UNL     1       1.050   8.805  21.187  0.00  0.00    +0.000 A 
ATOM      2  C   UNL     1       1.206   8.958  22.548  0.00  0.00    +0.000 A 
ATOM      3  N   UNL     1       0.507  10.028  23.022  0.00  0.00    +0.000 NA
ATOM      4  C   UNL     1      -0.075  10.555  21.966  0.00  0.00    +0.000 A 
ATOM      5  C   UNL     1      -0.891  11.722  21.835  0.00  0.00    +0.000 A 
ATOM      6  C   UNL     1      -1.306  12.041  20.605  0.00  0.00    +0.000 A 
ATOM      7  C   UNL     1      -1.035  11.149  19.444  0.00  0.00    +0.000 A 
ATOM      8  N   UNL     1      -1.615  11.513  18.231  0.00  0.00    +0.000 N 
ATOM      9  N   UNL     1      -0.305  10.071  19.539  0.00  0.00    +0.000 NA
ATOM     10  N   UNL     1       0.194   9.831  20.809  0.00  0.00    +0.000 N 
ATOM     11  H   UNL     1      -1.751  12.498  18.060  0.00  0.00    +0.000 HD
ENDROOT
BRANCH   1  15
ATOM     12  C   UNL     1       2.708   5.906  18.518  0.00  0.00    +0.000 A 
ATOM     13  C   UNL     1       2.655   7.250  18.148  0.00  0.00    +0.000 A 
ATOM     14  C   UNL     1       2.141   8.194  19.042  0.00  0.00    +0.000 A 
ATOM     15  C   UNL     1       1.678   7.809  20.315  0.00  0.00    +0.000 A 
ATOM     16  C   UNL     1       1.743   6.461  20.671  0.00  0.00    +0.000 A 
ATOM     17  C   UNL     1       2.249   5.511  19.784  0.00  0.00    +0.000 A 
BRANCH  12  19
ATOM     18  O   UNL     1       2.635   3.898  17.295  0.00  0.00    +0.000 OA
ATOM     19  C   UNL     1       3.270   4.898  17.581  0.00  0.00    +0.000 C 
ATOM     20  N   UNL     1       4.549   5.182  17.116  0.00  0.00    +0.000 N 
ATOM     21  H   UNL     1       5.077   5.919  17.562  0.00  0.00    +0.000 HD
BRANCH  20  22
ATOM     22  C   UNL     1       5.247   4.307  16.236  0.00  0.00    +0.000 C 
ATOM     23  C   UNL     1       5.578   4.718  14.831  0.00  0.00    +0.000 C 
ATOM     24  C   UNL     1       6.671   4.604  15.846  0.00  0.00    +0.000 C 
ENDBRANCH  20  22
ENDBRANCH  12  19
ENDBRANCH   1  15
BRANCH   8  25
ATOM     25  C   UNL     1      -2.030  10.596  17.184  0.00  0.00    +0.000 C 
ATOM     26  C   UNL     1      -3.252   9.764  17.607  0.00  0.00    +0.000 C 
ATOM     27  C   UNL     1      -3.992   9.438  16.316  0.00  0.00    +0.000 C 
ATOM     28  C   UNL     1      -3.606  10.514  15.311  0.00  0.00    +0.000 C 
ATOM     29  C   UNL     1      -2.471  11.329  15.924  0.00  0.00    +0.000 C 
ENDBRANCH   8  25
BRANCH   5  30
ATOM     30  N   UNL     1      -1.255  12.514  22.915  0.00  0.00    +0.000 N 
ATOM     31  H   UNL     1      -0.484  12.929  23.425  0.00  0.00    +0.000 HD
BRANCH  30  32
ATOM     32  C   UNL     1      -2.608  12.614  23.442  0.00  0.00    +0.000 C 
BRANCH  32  33
ATOM     33  C   UNL     1      -3.120  14.061  23.504  0.00  0.00    +0.000 C 
ATOM     34  C   UNL     1      -3.137  14.637  24.927  0.00  0.00    +0.000 C 
ATOM     35  C   UNL     1      -3.733  16.039  24.943  0.00  0.00    +0.000 C 
ATOM     36  O   UNL     1      -5.033  16.036  24.354  0.00  0.00    +0.000 OA
ATOM     37  C   UNL     1      -5.003  15.641  22.983  0.00  0.00    +0.000 C 
ATOM     38  C   UNL     1      -4.494  14.213  22.841  0.00  0.00    +0.000 C 
ENDBRANCH  32  33
ENDBRANCH  30  32
ENDBRANCH   5  30
TORSDOF 7
ENDMDL
MODEL 5
REMARK VINA RESULT:      -8.2      1.381      1.662
REMARK  Name = 
REMARK  7 active torsions:
REMARK  status: ('A' for Active; 'I' for Inactive)
REMARK    1  A    between atoms: C_2  and  C_7
REMARK    2  A    between atoms: N_3  and  C_4
REMARK    3  A    between atoms: C_10  and  C_11
REMARK    4  A    between atoms: C_15  and  N_16
REMARK    5  A    between atoms: N_16  and  C_17
REMARK    6  A    between atoms: C_17  and  C_18
REMARK    7  A    between atoms: N_26  and  C_27
REMARK                            x       y       z     vdW  Elec       q    Type
REMARK                         _______ _______ _______ _____ _____    ______ ____
ROOT
ATOM      1  C   UNL     1       0.766   9.138  21.170  0.00  0.00    +0.000 A 
ATOM      2  C   UNL     1       1.096   9.348  22.492  0.00  0.00    +0.000 A 
ATOM      3  N   UNL     1       0.384  10.376  23.035  0.00  0.00    +0.000 NA
ATOM      4  C   UNL     1      -0.380  10.820  22.060  0.00  0.00    +0.000 A 
ATOM      5  C   UNL     1      -1.299  11.915  22.018  0.00  0.00    +0.000 A 
ATOM      6  C   UNL     1      -1.904  12.158  20.851  0.00  0.00    +0.000 A 
ATOM      7  C   UNL     1      -1.724  11.251  19.685  0.00  0.00    +0.000 A 
ATOM      8  N   UNL     1      -2.494  11.528  18.557  0.00  0.00    +0.000 N 
ATOM      9  N   UNL     1      -0.903  10.237  19.700  0.00  0.00    +0.000 NA
ATOM     10  N   UNL     1      -0.215  10.080  20.893  0.00  0.00    +0.000 N 
ATOM     11  H   UNL     1      -2.732  12.493  18.384  0.00  0.00    +0.000 HD
ENDROOT
BRANCH   1  15
ATOM     12  C   UNL     1       2.639   6.300  18.578  0.00  0.00    +0.000 A 
ATOM     13  C   UNL     1       2.187   5.907  19.838  0.00  0.00    +0.000 A 
ATOM     14  C   UNL     1       1.546   6.836  20.664  0.00  0.00    +0.000 A 
ATOM     15  C   UNL     1       1.347   8.164  20.241  0.00  0.00    +0.000 A 
ATOM     16  C   UNL     1       1.801   8.539  18.976  0.00  0.00    +0.000 A 
ATOM     17  C   UNL     1       2.447   7.621  18.147  0.00  0.00    +0.000 A 
BRANCH  12  19
ATOM     18  O   UNL     1       2.734   4.290  17.359  0.00  0.00    +0.000 OA
ATOM     19  C   UNL     1       3.306   5.315  17.686  0.00  0.00    +0.000 C 
ATOM     20  N   UNL     1       4.603   5.650  17.313  0.00  0.00    +0.000 N 
ATOM     21  H   UNL     1       5.068   6.408  17.793  0.00  0.00    +0.000 HD
BRANCH  20  22
ATOM     22  C   UNL     1       5.396   4.804  16.488  0.00  0.00    +0.000 C 
ATOM     23  C   UNL     1       5.604   5.108  15.033  0.00  0.00    +0.000 C 
ATOM     24  C   UNL     1       6.739   5.273  15.993  0.00  0.00    +0.000 C 
ENDBRANCH  20  22
ENDBRANCH  12  19
ENDBRANCH   1  15
BRANCH   8  25
ATOM     25  C   UNL     1      -2.974  10.546  17.600  0.00  0.00    +0.000 C 
ATOM     26  C   UNL     1      -4.073  11.123  16.694  0.00  0.00    +0.000 C 
ATOM     27  C   UNL     1      -3.967  10.355  15.381  0.00  0.00    +0.000 C 
ATOM     28  C   UNL     1      -2.538   9.839  15.296  0.00  0.00    +0.000 C 
ATOM     29  C   UNL     1      -1.875  10.094  16.646  0.00  0.00    +0.000 C 
ENDBRANCH   8  25
BRANCH   5  30
ATOM     30  N   UNL     1      -1.574  12.712  23.120  0.00  0.00    +0.000 N 
ATOM     31  H   UNL     1      -2.335  12.390  23.706  0.00  0.00    +0.000 HD
BRANCH  30  32
ATOM     32  C   UNL     1      -0.985  14.022  23.355  0.00  0.00    +0.000 C 
BRANCH  32  33
ATOM     33  C   UNL     1      -2.036  15.126  23.540  0.00  0.00    +0.000 C 
ATOM     34  C   UNL     1      -2.895  14.940  24.799  0.00  0.00    +0.000 C 
ATOM     35  C   UNL     1      -3.976  16.010  24.887  0.00  0.00    +0.000 C 
ATOM     36  O   UNL     1      -4.767  16.021  23.699  0.00  0.00    +0.000 OA
ATOM     37  C   UNL     1      -3.996  16.341  22.542  0.00  0.00    +0.000 C 
ATOM     38  C   UNL     1      -2.921  15.291  22.299  0.00  0.00    +0.000 C 
ENDBRANCH  32  33
ENDBRANCH  30  32
ENDBRANCH   5  30
TORSDOF 7
ENDMDL
MODEL 6
REMARK VINA RESULT:      -8.2      1.603      2.234
REMARK  Name = 
REMARK  7 active torsions:
REMARK  status: ('A' for Active; 'I' for Inactive)
REMARK    1  A    between atoms: C_2  and  C_7
REMARK    2  A    between atoms: N_3  and  C_4
REMARK    3  A    between atoms: C_10  and  C_11
REMARK    4  A    between atoms: C_15  and  N_16
REMARK    5  A    between atoms: N_16  and  C_17
REMARK    6  A    between atoms: C_17  and  C_18
REMARK    7  A    between atoms: N_26  and  C_27
REMARK                            x       y       z     vdW  Elec       q    Type
REMARK                         _______ _______ _______ _____ _____    ______ ____
ROOT
ATOM      1  C   UNL     1       0.143  10.110  21.133  0.00  0.00    +0.000 A 
ATOM      2  C   UNL     1       0.369  10.455  22.449  0.00  0.00    +0.000 A 
ATOM      3  N   UNL     1      -0.460  11.455  22.861  0.00  0.00    +0.000 NA
ATOM      4  C   UNL     1      -1.196  11.748  21.809  0.00  0.00    +0.000 A 
ATOM      5  C   UNL     1      -2.200  12.750  21.622  0.00  0.00    +0.000 A 
ATOM      6  C   UNL     1      -2.749  12.842  20.406  0.00  0.00    +0.000 A 
ATOM      7  C   UNL     1      -2.419  11.864  19.335  0.00  0.00    +0.000 A 
ATOM      8  N   UNL     1      -3.137  11.978  18.146  0.00  0.00    +0.000 N 
ATOM      9  N   UNL     1      -1.517  10.932  19.483  0.00  0.00    +0.000 NA
ATOM     10  N   UNL     1      -0.895  10.935  20.721  0.00  0.00    +0.000 N 
ATOM     11  H   UNL     1      -3.445  12.900  17.877  0.00  0.00    +0.000 HD
ENDROOT
BRANCH   1  15
ATOM     12  C   UNL     1       2.416   7.266  18.891  0.00  0.00    +0.000 A 
ATOM     13  C   UNL     1       2.018   6.973  20.196  0.00  0.00    +0.000 A 
ATOM     14  C   UNL     1       1.247   7.897  20.908  0.00  0.00    +0.000 A 
ATOM     15  C   UNL     1       0.862   9.120  20.326  0.00  0.00    +0.000 A 
ATOM     16  C   UNL     1       1.264   9.395  19.018  0.00  0.00    +0.000 A 
ATOM     17  C   UNL     1       2.039   8.483  18.302  0.00  0.00    +0.000 A 
BRANCH  12  19
ATOM     18  O   UNL     1       4.282   6.609  17.619  0.00  0.00    +0.000 OA
ATOM     19  C   UNL     1       3.222   6.283  18.121  0.00  0.00    +0.000 C 
ATOM     20  N   UNL     1       2.647   5.022  18.005  0.00  0.00    +0.000 N 
ATOM     21  H   UNL     1       1.680   4.899  18.273  0.00  0.00    +0.000 HD
BRANCH  20  22
ATOM     22  C   UNL     1       3.270   3.970  17.275  0.00  0.00    +0.000 C 
ATOM     23  C   UNL     1       4.209   3.008  17.942  0.00  0.00    +0.000 C 
ATOM     24  C   UNL     1       2.856   2.540  17.506  0.00  0.00    +0.000 C 
ENDBRANCH  20  22
ENDBRANCH  12  19
ENDBRANCH   1  15
BRANCH   8  25
ATOM     25  C   UNL     1      -3.470  10.882  17.252  0.00  0.00    +0.000 C 
ATOM     26  C   UNL     1      -4.260  11.368  16.026  0.00  0.00    +0.000 C 
ATOM     27  C   UNL     1      -3.922  10.391  14.907  0.00  0.00    +0.000 C 
ATOM     28  C   UNL     1      -2.571   9.782  15.257  0.00  0.00    +0.000 C 
ATOM     29  C   UNL     1      -2.226  10.216  16.678  0.00  0.00    +0.000 C 
ENDBRANCH   8  25
BRANCH   5  30
ATOM     30  N   UNL     1      -2.611  13.605  22.634  0.00  0.00    +0.000 N 
ATOM     31  H   UNL     1      -2.263  13.379  23.559  0.00  0.00    +0.000 HD
BRANCH  30  32
ATOM     32  C   UNL     1      -3.621  14.641  22.476  0.00  0.00    +0.000 C 
BRANCH  32  33
ATOM     33  C   UNL     1      -5.049  14.124  22.709  0.00  0.00    +0.000 C 
ATOM     34  C   UNL     1      -6.072  15.247  22.927  0.00  0.00    +0.000 C 
ATOM     35  C   UNL     1      -7.451  14.679  23.239  0.00  0.00    +0.000 C 
ATOM     36  O   UNL     1      -7.386  13.794  24.356  0.00  0.00    +0.000 OA
ATOM     37  C   UNL     1      -6.548  12.666  24.102  0.00  0.00    +0.000 C 
ATOM     38  C   UNL     1      -5.111  13.103  23.851  0.00  0.00    +0.000 C 
ENDBRANCH  32  33
ENDBRANCH  30  32
ENDBRANCH   5  30
TORSDOF 7
ENDMDL
MODEL 7
REMARK VINA RESULT:      -8.1      1.239      1.770
REMARK  Name = 
REMARK  7 active torsions:
REMARK  status: ('A' for Active; 'I' for Inactive)
REMARK    1  A    between atoms: C_2  and  C_7
REMARK    2  A    between atoms: N_3  and  C_4
REMARK    3  A    between atoms: C_10  and  C_11
REMARK    4  A    between atoms: C_15  and  N_16
REMARK    5  A    between atoms: N_16  and  C_17
REMARK    6  A    between atoms: C_17  and  C_18
REMARK    7  A    between atoms: N_26  and  C_27
REMARK                            x       y       z     vdW  Elec       q    Type
REMARK                         _______ _______ _______ _____ _____    ______ ____
ROOT
ATOM      1  C   UNL     1       1.216   8.771  20.868  0.00  0.00    +0.000 A 
ATOM      2  C   UNL     1       1.451   8.952  22.214  0.00  0.00    +0.000 A 
ATOM      3  N   UNL     1       0.837  10.071  22.691  0.00  0.00    +0.000 NA
ATOM      4  C   UNL     1       0.229  10.600  21.650  0.00  0.00    +0.000 A 
ATOM      5  C   UNL     1      -0.528  11.808  21.525  0.00  0.00    +0.000 A 
ATOM      6  C   UNL     1      -0.989  12.115  20.308  0.00  0.00    +0.000 A 
ATOM      7  C   UNL     1      -0.828  11.178  19.163  0.00  0.00    +0.000 A 
ATOM      8  N   UNL     1      -1.450  11.540  17.971  0.00  0.00    +0.000 N 
ATOM      9  N   UNL     1      -0.153  10.063  19.253  0.00  0.00    +0.000 NA
ATOM     10  N   UNL     1       0.398   9.831  20.503  0.00  0.00    +0.000 N 
ATOM     11  H   UNL     1      -1.541  12.526  17.776  0.00  0.00    +0.000 HD
ENDROOT
BRANCH   1  15
ATOM     12  C   UNL     1       2.920   5.680  18.454  0.00  0.00    +0.000 A 
ATOM     13  C   UNL     1       2.330   5.368  19.679  0.00  0.00    +0.000 A 
ATOM     14  C   UNL     1       1.746   6.382  20.444  0.00  0.00    +0.000 A 
ATOM     15  C   UNL     1       1.742   7.717  19.996  0.00  0.00    +0.000 A 
ATOM     16  C   UNL     1       2.333   8.011  18.766  0.00  0.00    +0.000 A 
ATOM     17  C   UNL     1       2.923   7.008  17.998  0.00  0.00    +0.000 A 
BRANCH  12  19
ATOM     18  O   UNL     1       3.067   3.479  17.640  0.00  0.00    +0.000 OA
ATOM     19  C   UNL     1       3.528   4.606  17.625  0.00  0.00    +0.000 C 
ATOM     20  N   UNL     1       4.646   4.994  16.896  0.00  0.00    +0.000 N 
ATOM     21  H   UNL     1       5.078   5.884  17.102  0.00  0.00    +0.000 HD
BRANCH  20  22
ATOM     22  C   UNL     1       5.368   4.082  16.075  0.00  0.00    +0.000 C 
ATOM     23  C   UNL     1       5.625   4.376  14.626  0.00  0.00    +0.000 C 
ATOM     24  C   UNL     1       6.757   4.426  15.603  0.00  0.00    +0.000 C 
ENDBRANCH  20  22
ENDBRANCH  12  19
ENDBRANCH   1  15
BRANCH   8  25
ATOM     25  C   UNL     1      -1.968  10.619  16.974  0.00  0.00    +0.000 C 
ATOM     26  C   UNL     1      -3.113   9.759  17.534  0.00  0.00    +0.000 C 
ATOM     27  C   UNL     1      -3.996   9.422  16.339  0.00  0.00    +0.000 C 
ATOM     28  C   UNL     1      -3.755  10.511  15.303  0.00  0.00    +0.000 C 
ATOM     29  C   UNL     1      -2.572  11.348  15.781  0.00  0.00    +0.000 C 
ENDBRANCH   8  25
BRANCH   5  30
ATOM     30  N   UNL     1      -0.792  12.648  22.598  0.00  0.00    +0.000 N 
ATOM     31  H   UNL     1      -1.377  12.250  23.323  0.00  0.00    +0.000 HD
BRANCH  30  32
ATOM     32  C   UNL     1      -0.451  14.062  22.638  0.00  0.00    +0.000 C 
BRANCH  32  33
ATOM     33  C   UNL     1      -1.561  14.927  23.252  0.00  0.00    +0.000 C 
ATOM     34  C   UNL     1      -1.216  15.450  24.654  0.00  0.00    +0.000 C 
ATOM     35  C   UNL     1      -2.383  16.228  25.251  0.00  0.00    +0.000 C 
ATOM     36  O   UNL     1      -3.565  15.428  25.257  0.00  0.00    +0.000 OA
ATOM     37  C   UNL     1      -3.975  15.061  23.940  0.00  0.00    +0.000 C 
ATOM     38  C   UNL     1      -2.914  14.205  23.261  0.00  0.00    +0.000 C 
ENDBRANCH  32  33
ENDBRANCH  30  32
ENDBRANCH   5  30
TORSDOF 7
ENDMDL
MODEL 8
REMARK VINA RESULT:      -8.1      0.873      1.152
REMARK  Name = 
REMARK  7 active torsions:
REMARK  status: ('A' for Active; 'I' for Inactive)
REMARK    1  A    between atoms: C_2  and  C_7
REMARK    2  A    between atoms: N_3  and  C_4
REMARK    3  A    between atoms: C_10  and  C_11
REMARK    4  A    between atoms: C_15  and  N_16
REMARK    5  A    between atoms: N_16  and  C_17
REMARK    6  A    between atoms: C_17  and  C_18
REMARK    7  A    between atoms: N_26  and  C_27
REMARK                            x       y       z     vdW  Elec       q    Type
REMARK                         _______ _______ _______ _____ _____    ______ ____
ROOT
ATOM      1  C   UNL     1       0.832   8.984  21.248  0.00  0.00    +0.000 A 
ATOM      2  C   UNL     1       0.901   9.140  22.616  0.00  0.00    +0.000 A 
ATOM      3  N   UNL     1       0.154  10.196  23.045  0.00  0.00    +0.000 NA
ATOM      4  C   UNL     1      -0.372  10.712  21.954  0.00  0.00    +0.000 A 
ATOM      5  C   UNL     1      -1.200  11.863  21.771  0.00  0.00    +0.000 A 
ATOM      6  C   UNL     1      -1.544  12.173  20.516  0.00  0.00    +0.000 A 
ATOM      7  C   UNL     1      -1.185  11.287  19.377  0.00  0.00    +0.000 A 
ATOM      8  N   UNL     1      -1.696  11.639  18.129  0.00  0.00    +0.000 N 
ATOM      9  N   UNL     1      -0.442  10.222  19.518  0.00  0.00    +0.000 NA
ATOM     10  N   UNL     1      -0.018   9.993  20.816  0.00  0.00    +0.000 N 
ATOM     11  H   UNL     1      -1.839  12.621  17.948  0.00  0.00    +0.000 HD
ENDROOT
BRANCH   1  15
ATOM     12  C   UNL     1       2.701   6.103  18.700  0.00  0.00    +0.000 A 
ATOM     13  C   UNL     1       2.569   7.428  18.282  0.00  0.00    +0.000 A 
ATOM     14  C   UNL     1       1.986   8.368  19.138  0.00  0.00    +0.000 A 
ATOM     15  C   UNL     1       1.532   7.999  20.418  0.00  0.00    +0.000 A 
ATOM     16  C   UNL     1       1.677   6.671  20.823  0.00  0.00    +0.000 A 
ATOM     17  C   UNL     1       2.252   5.724  19.975  0.00  0.00    +0.000 A 
BRANCH  12  19
ATOM     18  O   UNL     1       2.691   4.163  17.372  0.00  0.00    +0.000 OA
ATOM     19  C   UNL     1       3.336   5.101  17.805  0.00  0.00    +0.000 C 
ATOM     20  N   UNL     1       4.687   5.313  17.557  0.00  0.00    +0.000 N 
ATOM     21  H   UNL     1       5.186   5.990  18.117  0.00  0.00    +0.000 HD
BRANCH  20  22
ATOM     22  C   UNL     1       5.456   4.431  16.745  0.00  0.00    +0.000 C 
ATOM     23  C   UNL     1       5.922   4.837  15.378  0.00  0.00    +0.000 C 
ATOM     24  C   UNL     1       6.914   4.714  16.491  0.00  0.00    +0.000 C 
ENDBRANCH  20  22
ENDBRANCH  12  19
ENDBRANCH   1  15
BRANCH   8  25
ATOM     25  C   UNL     1      -2.028  10.713  17.060  0.00  0.00    +0.000 C 
ATOM     26  C   UNL     1      -3.118   9.718  17.487  0.00  0.00    +0.000 C 
ATOM     27  C   UNL     1      -3.856   9.344  16.207  0.00  0.00    +0.000 C 
ATOM     28  C   UNL     1      -3.645  10.496  15.234  0.00  0.00    +0.000 C 
ATOM     29  C   UNL     1      -2.603  11.428  15.844  0.00  0.00    +0.000 C 
ENDBRANCH   8  25
BRANCH   5  30
ATOM     30  N   UNL     1      -1.645  12.649  22.825  0.00  0.00    +0.000 N 
ATOM     31  H   UNL     1      -0.965  13.303  23.193  0.00  0.00    +0.000 HD
BRANCH  30  32
ATOM     32  C   UNL     1      -2.909  12.453  23.519  0.00  0.00    +0.000 C 
BRANCH  32  33
ATOM     33  C   UNL     1      -3.997  13.439  23.069  0.00  0.00    +0.000 C 
ATOM     34  C   UNL     1      -4.891  12.885  21.950  0.00  0.00    +0.000 C 
ATOM     35  C   UNL     1      -5.894  13.931  21.482  0.00  0.00    +0.000 C 
ATOM     36  O   UNL     1      -5.222  15.126  21.084  0.00  0.00    +0.000 OA
ATOM     37  C   UNL     1      -4.507  15.727  22.163  0.00  0.00    +0.000 C 
ATOM     38  C   UNL     1      -3.412  14.799  22.672  0.00  0.00    +0.000 C 
ENDBRANCH  32  33
ENDBRANCH  30  32
ENDBRANCH   5  30
TORSDOF 7
ENDMDL
MODEL 9
REMARK VINA RESULT:      -8.0      1.718      2.243
REMARK  Name = 
REMARK  7 active torsions:
REMARK  status: ('A' for Active; 'I' for Inactive)
REMARK    1  A    between atoms: C_2  and  C_7
REMARK    2  A    between atoms: N_3  and  C_4
REMARK    3  A    between atoms: C_10  and  C_11
REMARK    4  A    between atoms: C_15  and  N_16
REMARK    5  A    between atoms: N_16  and  C_17
REMARK    6  A    between atoms: C_17  and  C_18
REMARK    7  A    between atoms: N_26  and  C_27
REMARK                            x       y       z     vdW  Elec       q    Type
REMARK                         _______ _______ _______ _____ _____    ______ ____
ROOT
ATOM      1  C   UNL     1       0.527   9.758  20.997  0.00  0.00    +0.000 A 
ATOM      2  C   UNL     1       0.839  10.092  22.298  0.00  0.00    +0.000 A 
ATOM      3  N   UNL     1       0.099  11.147  22.742  0.00  0.00    +0.000 NA
ATOM      4  C   UNL     1      -0.666  11.484  21.726  0.00  0.00    +0.000 A 
ATOM      5  C   UNL     1      -1.610  12.549  21.580  0.00  0.00    +0.000 A 
ATOM      6  C   UNL     1      -2.210  12.673  20.392  0.00  0.00    +0.000 A 
ATOM      7  C   UNL     1      -1.998  11.672  19.312  0.00  0.00    +0.000 A 
ATOM      8  N   UNL     1      -2.763  11.829  18.159  0.00  0.00    +0.000 N 
ATOM      9  N   UNL     1      -1.153  10.682  19.423  0.00  0.00    +0.000 NA
ATOM     10  N   UNL     1      -0.473  10.648  20.630  0.00  0.00    +0.000 N 
ATOM     11  H   UNL     1      -3.022  12.769  17.899  0.00  0.00    +0.000 HD
ENDROOT
BRANCH   1  15
ATOM     12  C   UNL     1       2.494   6.757  18.673  0.00  0.00    +0.000 A 
ATOM     13  C   UNL     1       2.103   6.484  19.984  0.00  0.00    +0.000 A 
ATOM     14  C   UNL     1       1.431   7.462  20.723  0.00  0.00    +0.000 A 
ATOM     15  C   UNL     1       1.139   8.720  20.163  0.00  0.00    +0.000 A 
ATOM     16  C   UNL     1       1.533   8.975  18.848  0.00  0.00    +0.000 A 
ATOM     17  C   UNL     1       2.209   8.008  18.104  0.00  0.00    +0.000 A 
BRANCH  12  19
ATOM     18  O   UNL     1       2.688   4.622  17.704  0.00  0.00    +0.000 OA
ATOM     19  C   UNL     1       3.194   5.717  17.873  0.00  0.00    +0.000 C 
ATOM     20  N   UNL     1       4.444   6.093  17.394  0.00  0.00    +0.000 N 
ATOM     21  H   UNL     1       4.871   6.936  17.753  0.00  0.00    +0.000 HD
BRANCH  20  22
ATOM     22  C   UNL     1       5.262   5.207  16.636  0.00  0.00    +0.000 C 
ATOM     23  C   UNL     1       5.609   5.500  15.206  0.00  0.00    +0.000 C 
ATOM     24  C   UNL     1       6.665   5.608  16.261  0.00  0.00    +0.000 C 
ENDBRANCH  20  22
ENDBRANCH  12  19
ENDBRANCH   1  15
BRANCH   8  25
ATOM     25  C   UNL     1      -3.210  10.755  17.289  0.00  0.00    +0.000 C 
ATOM     26  C   UNL     1      -4.168  11.265  16.200  0.00  0.00    +0.000 C 
ATOM     27  C   UNL     1      -3.983  10.322  15.017  0.00  0.00    +0.000 C 
ATOM     28  C   UNL     1      -2.592   9.719  15.157  0.00  0.00    +0.000 C 
ATOM     29  C   UNL     1      -2.055  10.117  16.528  0.00  0.00    +0.000 C 
ENDBRANCH   8  25
BRANCH   5  30
ATOM     30  N   UNL     1      -1.914  13.434  22.605  0.00  0.00    +0.000 N 
ATOM     31  H   UNL     1      -1.271  14.209  22.711  0.00  0.00    +0.000 HD
BRANCH  30  32
ATOM     32  C   UNL     1      -2.945  13.208  23.607  0.00  0.00    +0.000 C 
BRANCH  32  33
ATOM     33  C   UNL     1      -3.113  14.393  24.569  0.00  0.00    +0.000 C 
ATOM     34  C   UNL     1      -4.151  15.419  24.092  0.00  0.00    +0.000 C 
ATOM     35  C   UNL     1      -4.215  16.614  25.036  0.00  0.00    +0.000 C 
ATOM     36  O   UNL     1      -2.922  17.197  25.192  0.00  0.00    +0.000 OA
ATOM     37  C   UNL     1      -1.987  16.289  25.774  0.00  0.00    +0.000 C 
ATOM     38  C   UNL     1      -1.776  15.077  24.877  0.00  0.00    +0.000 C 
ENDBRANCH  32  33
ENDBRANCH  30  32
ENDBRANCH   5  30
TORSDOF 7
ENDMDL
