MODEL 1
REMARK VINA RESULT:      -5.0      0.000      0.000
REMARK  Name = 
REMARK  12 active torsions:
REMARK  status: ('A' for Active; 'I' for Inactive)
REMARK    1  A    between atoms: S_2  and  O_3
REMARK    2  A    between atoms: S_2  and  C_4
REMARK    3  A    between atoms: C_4  and  C_5
REMARK    4  A    between atoms: C_5  and  C_6
REMARK    5  A    between atoms: C_6  and  C_7
REMARK    6  A    between atoms: C_7  and  S_8
REMARK    7  A    between atoms: S_8  and  S_9
REMARK    8  A    between atoms: S_9  and  C_10
REMARK    9  A    between atoms: C_10  and  C_11
REMARK   10  A    between atoms: C_11  and  C_12
REMARK   11  A    between atoms: C_12  and  C_13
REMARK   12  A    between atoms: C_13  and  S_14
REMARK                            x       y       z     vdW  Elec       q    Type
REMARK                         _______ _______ _______ _____ _____    ______ ____
ROOT
ATOM      1  S   UNL     1       1.019   3.721  20.216  0.00  0.00    +0.000 S 
ENDROOT
BRANCH   1   2
ATOM      2  C   UNL     1       2.232   4.893  20.910  0.00  0.00    +0.000 C 
BRANCH   2   3
ATOM      3  C   UNL     1       2.034   6.296  20.330  0.00  0.00    +0.000 C 
BRANCH   3   4
ATOM      4  C   UNL     1       1.073   7.218  21.098  0.00  0.00    +0.000 C 
BRANCH   4   5
ATOM      5  C   UNL     1       1.290   8.715  20.900  0.00  0.00    +0.000 C 
BRANCH   5   7
ATOM      6  O   UNL     1       0.823   9.529  23.451  0.00  0.00    +0.000 OA
ATOM      7  S   UNL     1       0.283   9.710  22.060  0.00  0.00    +0.000 S 
BRANCH   7   8
ATOM      8  O   UNL     1       0.852  11.108  21.511  0.00  0.00    +0.000 OA
ATOM      9  H   UNL     1       1.253  11.623  22.252  0.00  0.00    +0.000 HD
ENDBRANCH   7   8
ENDBRANCH   5   7
ENDBRANCH   4   5
ENDBRANCH   3   4
ENDBRANCH   2   3
ENDBRANCH   1   2
BRANCH   1  10
ATOM     10  S   UNL     1       2.157   2.684  18.865  0.00  0.00    +0.000 S 
BRANCH  10  11
ATOM     11  C   UNL     1       2.473   3.942  17.586  0.00  0.00    +0.000 C 
BRANCH  11  12
ATOM     12  C   UNL     1       3.850   3.778  16.935  0.00  0.00    +0.000 C 
BRANCH  12  13
ATOM     13  C   UNL     1       4.884   4.866  17.274  0.00  0.00    +0.000 C 
BRANCH  13  14
ATOM     14  C   UNL     1       5.792   4.474  18.430  0.00  0.00    +0.000 C 
BRANCH  14  15
ATOM     15  S   UNL     1       7.461   5.062  18.211  0.00  0.00    +0.000 S 
ATOM     16  O   UNL     1       8.056   5.243  19.514  0.00  0.00    +0.000 OA
ATOM     17  O   UNL     1       8.081   4.260  17.179  0.00  0.00    +0.000 OA
ATOM     18  S   UNL     1       7.301   6.912  17.421  0.00  0.00    +0.000 SA
ENDBRANCH  14  15
ENDBRANCH  13  14
ENDBRANCH  12  13
ENDBRANCH  11  12
ENDBRANCH  10  11
ENDBRANCH   1  10
TORSDOF 12
ENDMDL
MODEL 2
REMARK VINA RESULT:      -5.0      1.594      2.006
REMARK  Name = 
REMARK  12 active torsions:
REMARK  status: ('A' for Active; 'I' for Inactive)
REMARK    1  A    between atoms: S_2  and  O_3
REMARK    2  A    between atoms: S_2  and  C_4
REMARK    3  A    between atoms: C_4  and  C_5
REMARK    4  A    between atoms: C_5  and  C_6
REMARK    5  A    between atoms: C_6  and  C_7
REMARK    6  A    between atoms: C_7  and  S_8
REMARK    7  A    between atoms: S_8  and  S_9
REMARK    8  A    between atoms: S_9  and  C_10
REMARK    9  A    between atoms: C_10  and  C_11
REMARK   10  A    between atoms: C_11  and  C_12
REMARK   11  A    between atoms: C_12  and  C_13
REMARK   12  A    between atoms: C_13  and  S_14
REMARK                            x       y       z     vdW  Elec       q    Type
REMARK                         _______ _______ _______ _____ _____    ______ ____
ROOT
ATOM      1  S   UNL     1       1.906   2.443  19.734  0.00  0.00    +0.000 S 
ENDROOT
BRANCH   1   2
ATOM      2  C   UNL     1       1.481   3.501  21.157  0.00  0.00    +0.000 C 
BRANCH   2   3
ATOM      3  C   UNL     1       2.186   4.856  21.065  0.00  0.00    +0.000 C 
BRANCH   3   4
ATOM      4  C   UNL     1       1.387   5.992  20.404  0.00  0.00    +0.000 C 
BRANCH   4   5
ATOM      5  C   UNL     1       2.070   7.357  20.382  0.00  0.00    +0.000 C 
BRANCH   5   7
ATOM      6  O   UNL     1      -0.316   8.056  21.481  0.00  0.00    +0.000 OA
ATOM      7  S   UNL     1       0.982   8.674  21.039  0.00  0.00    +0.000 S 
BRANCH   7   8
ATOM      8  O   UNL     1       1.874   8.892  22.356  0.00  0.00    +0.000 OA
ATOM      9  H   UNL     1       2.574   9.566  22.181  0.00  0.00    +0.000 HD
ENDBRANCH   7   8
ENDBRANCH   5   7
ENDBRANCH   4   5
ENDBRANCH   3   4
ENDBRANCH   2   3
ENDBRANCH   1   2
BRANCH   1  10
ATOM     10  S   UNL     1       3.939   2.284  19.915  0.00  0.00    +0.000 S 
BRANCH  10  11
ATOM     11  C   UNL     1       4.528   3.563  18.759  0.00  0.00    +0.000 C 
BRANCH  11  12
ATOM     12  C   UNL     1       3.950   3.386  17.352  0.00  0.00    +0.000 C 
BRANCH  12  13
ATOM     13  C   UNL     1       4.532   4.312  16.268  0.00  0.00    +0.000 C 
BRANCH  13  14
ATOM     14  C   UNL     1       5.865   3.815  15.726  0.00  0.00    +0.000 C 
BRANCH  14  15
ATOM     15  S   UNL     1       7.211   4.914  16.126  0.00  0.00    +0.000 S 
ATOM     16  O   UNL     1       8.077   4.249  17.071  0.00  0.00    +0.000 OA
ATOM     17  O   UNL     1       7.701   5.481  14.889  0.00  0.00    +0.000 OA
ATOM     18  S   UNL     1       6.390   6.461  17.130  0.00  0.00    +0.000 SA
ENDBRANCH  14  15
ENDBRANCH  13  14
ENDBRANCH  12  13
ENDBRANCH  11  12
ENDBRANCH  10  11
ENDBRANCH   1  10
TORSDOF 12
ENDMDL
MODEL 3
REMARK VINA RESULT:      -4.9      3.747      4.574
REMARK  Name = 
REMARK  12 active torsions:
REMARK  status: ('A' for Active; 'I' for Inactive)
REMARK    1  A    between atoms: S_2  and  O_3
REMARK    2  A    between atoms: S_2  and  C_4
REMARK    3  A    between atoms: C_4  and  C_5
REMARK    4  A    between atoms: C_5  and  C_6
REMARK    5  A    between atoms: C_6  and  C_7
REMARK    6  A    between atoms: C_7  and  S_8
REMARK    7  A    between atoms: S_8  and  S_9
REMARK    8  A    between atoms: S_9  and  C_10
REMARK    9  A    between atoms: C_10  and  C_11
REMARK   10  A    between atoms: C_11  and  C_12
REMARK   11  A    between atoms: C_12  and  C_13
REMARK   12  A    between atoms: C_13  and  S_14
REMARK                            x       y       z     vdW  Elec       q    Type
REMARK                         _______ _______ _______ _____ _____    ______ ____
ROOT
ATOM      1  S   UNL     1       4.460   3.312  18.544  0.00  0.00    +0.000 S 
ENDROOT
BRANCH   1   2
ATOM      2  C   UNL     1       3.471   1.821  18.187  0.00  0.00    +0.000 C 
BRANCH   2   3
ATOM      3  C   UNL     1       1.980   2.159  18.106  0.00  0.00    +0.000 C 
BRANCH   3   4
ATOM      4  C   UNL     1       1.197   2.092  19.428  0.00  0.00    +0.000 C 
BRANCH   4   5
ATOM      5  C   UNL     1       0.954   3.429  20.122  0.00  0.00    +0.000 C 
BRANCH   5   7
ATOM      6  O   UNL     1       2.877   2.440  21.769  0.00  0.00    +0.000 OA
ATOM      7  S   UNL     1       1.868   3.553  21.703  0.00  0.00    +0.000 S 
BRANCH   7   8
ATOM      8  O   UNL     1       2.656   4.880  21.257  0.00  0.00    +0.000 OA
ATOM      9  H   UNL     1       3.630   4.724  21.302  0.00  0.00    +0.000 HD
ENDBRANCH   7   8
ENDBRANCH   5   7
ENDBRANCH   4   5
ENDBRANCH   3   4
ENDBRANCH   2   3
ENDBRANCH   1   2
BRANCH   1  10
ATOM     10  S   UNL     1       3.312   4.791  17.715  0.00  0.00    +0.000 S 
BRANCH  10  11
ATOM     11  C   UNL     1       4.213   6.296  18.209  0.00  0.00    +0.000 C 
BRANCH  11  12
ATOM     12  C   UNL     1       5.624   5.988  18.721  0.00  0.00    +0.000 C 
BRANCH  12  13
ATOM     13  C   UNL     1       6.779   6.418  17.799  0.00  0.00    +0.000 C 
BRANCH  13  14
ATOM     14  C   UNL     1       7.286   5.281  16.924  0.00  0.00    +0.000 C 
BRANCH  14  15
ATOM     15  S   UNL     1       6.732   5.426  15.235  0.00  0.00    +0.000 S 
ATOM     16  O   UNL     1       5.716   6.450  15.175  0.00  0.00    +0.000 OA
ATOM     17  O   UNL     1       7.902   5.442  14.385  0.00  0.00    +0.000 OA
ATOM     18  S   UNL     1       5.788   3.693  14.806  0.00  0.00    +0.000 SA
ENDBRANCH  14  15
ENDBRANCH  13  14
ENDBRANCH  12  13
ENDBRANCH  11  12
ENDBRANCH  10  11
ENDBRANCH   1  10
TORSDOF 12
ENDMDL
MODEL 4
REMARK VINA RESULT:      -4.7      4.615      8.535
REMARK  Name = 
REMARK  12 active torsions:
REMARK  status: ('A' for Active; 'I' for Inactive)
REMARK    1  A    between atoms: S_2  and  O_3
REMARK    2  A    between atoms: S_2  and  C_4
REMARK    3  A    between atoms: C_4  and  C_5
REMARK    4  A    between atoms: C_5  and  C_6
REMARK    5  A    between atoms: C_6  and  C_7
REMARK    6  A    between atoms: C_7  and  S_8
REMARK    7  A    between atoms: S_8  and  S_9
REMARK    8  A    between atoms: S_9  and  C_10
REMARK    9  A    between atoms: C_10  and  C_11
REMARK   10  A    between atoms: C_11  and  C_12
REMARK   11  A    between atoms: C_12  and  C_13
REMARK   12  A    between atoms: C_13  and  S_14
REMARK                            x       y       z     vdW  Elec       q    Type
REMARK                         _______ _______ _______ _____ _____    ______ ____
ROOT
ATOM      1  S   UNL     1       7.110   5.284  16.896  0.00  0.00    +0.000 S 
ENDROOT
BRANCH   1   2
ATOM      2  C   UNL     1       6.231   4.005  15.939  0.00  0.00    +0.000 C 
BRANCH   2   3
ATOM      3  C   UNL     1       5.922   4.496  14.522  0.00  0.00    +0.000 C 
BRANCH   3   4
ATOM      4  C   UNL     1       7.067   4.381  13.501  0.00  0.00    +0.000 C 
BRANCH   4   5
ATOM      5  C   UNL     1       6.663   3.927  12.101  0.00  0.00    +0.000 C 
BRANCH   5   7
ATOM      6  O   UNL     1       4.189   3.433  11.089  0.00  0.00    +0.000 OA
ATOM      7  S   UNL     1       5.142   2.908  12.127  0.00  0.00    +0.000 S 
BRANCH   7   8
ATOM      8  O   UNL     1       5.873   1.626  11.492  0.00  0.00    +0.000 OA
ATOM      9  H   UNL     1       6.075   0.968  12.201  0.00  0.00    +0.000 HD
ENDBRANCH   7   8
ENDBRANCH   5   7
ENDBRANCH   4   5
ENDBRANCH   3   4
ENDBRANCH   2   3
ENDBRANCH   1   2
BRANCH   1  10
ATOM     10  S   UNL     1       6.068   5.287  18.659  0.00  0.00    +0.000 S 
BRANCH  10  11
ATOM     11  C   UNL     1       4.676   6.399  18.279  0.00  0.00    +0.000 C 
BRANCH  11  12
ATOM     12  C   UNL     1       3.522   5.670  17.583  0.00  0.00    +0.000 C 
BRANCH  12  13
ATOM     13  C   UNL     1       2.406   5.150  18.506  0.00  0.00    +0.000 C 
BRANCH  13  14
ATOM     14  C   UNL     1       1.513   4.122  17.827  0.00  0.00    +0.000 C 
BRANCH  14  15
ATOM     15  S   UNL     1       1.430   2.590  18.735  0.00  0.00    +0.000 S 
ATOM     16  O   UNL     1       0.157   1.966  18.462  0.00  0.00    +0.000 OA
ATOM     17  O   UNL     1       2.688   1.900  18.554  0.00  0.00    +0.000 OA
ATOM     18  S   UNL     1       1.381   3.100  20.687  0.00  0.00    +0.000 SA
ENDBRANCH  14  15
ENDBRANCH  13  14
ENDBRANCH  12  13
ENDBRANCH  11  12
ENDBRANCH  10  11
ENDBRANCH   1  10
TORSDOF 12
ENDMDL
MODEL 5
REMARK VINA RESULT:      -4.7      5.157      7.552
REMARK  Name = 
REMARK  12 active torsions:
REMARK  status: ('A' for Active; 'I' for Inactive)
REMARK    1  A    between atoms: S_2  and  O_3
REMARK    2  A    between atoms: S_2  and  C_4
REMARK    3  A    between atoms: C_4  and  C_5
REMARK    4  A    between atoms: C_5  and  C_6
REMARK    5  A    between atoms: C_6  and  C_7
REMARK    6  A    between atoms: C_7  and  S_8
REMARK    7  A    between atoms: S_8  and  S_9
REMARK    8  A    between atoms: S_9  and  C_10
REMARK    9  A    between atoms: C_10  and  C_11
REMARK   10  A    between atoms: C_11  and  C_12
REMARK   11  A    between atoms: C_12  and  C_13
REMARK   12  A    between atoms: C_13  and  S_14
REMARK                            x       y       z     vdW  Elec       q    Type
REMARK                         _______ _______ _______ _____ _____    ______ ____
ROOT
ATOM      1  S   UNL     1       7.567   6.682  18.166  0.00  0.00    +0.000 S 
ENDROOT
BRANCH   1   2
ATOM      2  C   UNL     1       7.858   8.372  17.546  0.00  0.00    +0.000 C 
BRANCH   2   3
ATOM      3  C   UNL     1       8.697   9.183  18.537  0.00  0.00    +0.000 C 
BRANCH   3   4
ATOM      4  C   UNL     1       8.795  10.694  18.265  0.00  0.00    +0.000 C 
BRANCH   4   5
ATOM      5  C   UNL     1      10.194  11.223  17.964  0.00  0.00    +0.000 C 
BRANCH   5   7
ATOM      6  O   UNL     1      11.142  13.365  16.585  0.00  0.00    +0.000 OA
ATOM      7  S   UNL     1      10.197  13.036  17.707  0.00  0.00    +0.000 S 
BRANCH   7   8
ATOM      8  O   UNL     1       8.712  13.050  17.095  0.00  0.00    +0.000 OA
ATOM      9  H   UNL     1       8.752  13.206  16.120  0.00  0.00    +0.000 HD
ENDBRANCH   7   8
ENDBRANCH   5   7
ENDBRANCH   4   5
ENDBRANCH   3   4
ENDBRANCH   2   3
ENDBRANCH   1   2
BRANCH   1  10
ATOM     10  S   UNL     1       6.649   5.795  16.564  0.00  0.00    +0.000 S 
BRANCH  10  11
ATOM     11  C   UNL     1       5.006   6.581  16.581  0.00  0.00    +0.000 C 
BRANCH  11  12
ATOM     12  C   UNL     1       4.197   6.212  17.828  0.00  0.00    +0.000 C 
BRANCH  12  13
ATOM     13  C   UNL     1       3.950   4.708  18.044  0.00  0.00    +0.000 C 
BRANCH  13  14
ATOM     14  C   UNL     1       3.770   4.348  19.512  0.00  0.00    +0.000 C 
BRANCH  14  15
ATOM     15  S   UNL     1       2.064   4.426  20.025  0.00  0.00    +0.000 S 
ATOM     16  O   UNL     1       1.853   5.673  20.720  0.00  0.00    +0.000 OA
ATOM     17  O   UNL     1       1.246   4.012  18.906  0.00  0.00    +0.000 OA
ATOM     18  S   UNL     1       1.833   2.980  21.414  0.00  0.00    +0.000 SA
ENDBRANCH  14  15
ENDBRANCH  13  14
ENDBRANCH  12  13
ENDBRANCH  11  12
ENDBRANCH  10  11
ENDBRANCH   1  10
TORSDOF 12
ENDMDL
MODEL 6
REMARK VINA RESULT:      -4.7      4.963      6.852
REMARK  Name = 
REMARK  12 active torsions:
REMARK  status: ('A' for Active; 'I' for Inactive)
REMARK    1  A    between atoms: S_2  and  O_3
REMARK    2  A    between atoms: S_2  and  C_4
REMARK    3  A    between atoms: C_4  and  C_5
REMARK    4  A    between atoms: C_5  and  C_6
REMARK    5  A    between atoms: C_6  and  C_7
REMARK    6  A    between atoms: C_7  and  S_8
REMARK    7  A    between atoms: S_8  and  S_9
REMARK    8  A    between atoms: S_9  and  C_10
REMARK    9  A    between atoms: C_10  and  C_11
REMARK   10  A    between atoms: C_11  and  C_12
REMARK   11  A    between atoms: C_12  and  C_13
REMARK   12  A    between atoms: C_13  and  S_14
REMARK                            x       y       z     vdW  Elec       q    Type
REMARK                         _______ _______ _______ _____ _____    ______ ____
ROOT
ATOM      1  S   UNL     1       6.783   5.417  19.250  0.00  0.00    +0.000 S 
ENDROOT
BRANCH   1   2
ATOM      2  C   UNL     1       5.138   4.628  19.247  0.00  0.00    +0.000 C 
BRANCH   2   3
ATOM      3  C   UNL     1       4.237   5.243  18.173  0.00  0.00    +0.000 C 
BRANCH   3   4
ATOM      4  C   UNL     1       3.424   4.252  17.321  0.00  0.00    +0.000 C 
BRANCH   4   5
ATOM      5  C   UNL     1       1.958   4.091  17.712  0.00  0.00    +0.000 C 
BRANCH   5   7
ATOM      6  O   UNL     1       0.231   2.219  18.661  0.00  0.00    +0.000 OA
ATOM      7  S   UNL     1       1.685   2.596  18.733  0.00  0.00    +0.000 S 
BRANCH   7   8
ATOM      8  O   UNL     1       2.473   1.636  17.714  0.00  0.00    +0.000 OA
ATOM      9  H   UNL     1       1.871   0.924  17.389  0.00  0.00    +0.000 HD
ENDBRANCH   7   8
ENDBRANCH   5   7
ENDBRANCH   4   5
ENDBRANCH   3   4
ENDBRANCH   2   3
ENDBRANCH   1   2
BRANCH   1  10
ATOM     10  S   UNL     1       7.033   5.885  17.272  0.00  0.00    +0.000 S 
BRANCH  10  11
ATOM     11  C   UNL     1       7.075   7.706  17.313  0.00  0.00    +0.000 C 
BRANCH  11  12
ATOM     12  C   UNL     1       8.320   8.244  18.024  0.00  0.00    +0.000 C 
BRANCH  12  13
ATOM     13  C   UNL     1       8.389   9.773  18.188  0.00  0.00    +0.000 C 
BRANCH  13  14
ATOM     14  C   UNL     1       9.203  10.198  19.401  0.00  0.00    +0.000 C 
BRANCH  14  15
ATOM     15  S   UNL     1       9.846  11.853  19.241  0.00  0.00    +0.000 S 
ATOM     16  O   UNL     1       9.376  12.406  17.992  0.00  0.00    +0.000 OA
ATOM     17  O   UNL     1       9.658  12.525  20.507  0.00  0.00    +0.000 OA
ATOM     18  S   UNL     1      11.845  11.658  19.035  0.00  0.00    +0.000 SA
ENDBRANCH  14  15
ENDBRANCH  13  14
ENDBRANCH  12  13
ENDBRANCH  11  12
ENDBRANCH  10  11
ENDBRANCH   1  10
TORSDOF 12
ENDMDL
MODEL 7
REMARK VINA RESULT:      -4.7      2.050      2.571
REMARK  Name = 
REMARK  12 active torsions:
REMARK  status: ('A' for Active; 'I' for Inactive)
REMARK    1  A    between atoms: S_2  and  O_3
REMARK    2  A    between atoms: S_2  and  C_4
REMARK    3  A    between atoms: C_4  and  C_5
REMARK    4  A    between atoms: C_5  and  C_6
REMARK    5  A    between atoms: C_6  and  C_7
REMARK    6  A    between atoms: C_7  and  S_8
REMARK    7  A    between atoms: S_8  and  S_9
REMARK    8  A    between atoms: S_9  and  C_10
REMARK    9  A    between atoms: C_10  and  C_11
REMARK   10  A    between atoms: C_11  and  C_12
REMARK   11  A    between atoms: C_12  and  C_13
REMARK   12  A    between atoms: C_13  and  S_14
REMARK                            x       y       z     vdW  Elec       q    Type
REMARK                         _______ _______ _______ _____ _____    ______ ____
ROOT
ATOM      1  S   UNL     1       2.943   4.952  20.074  0.00  0.00    +0.000 S 
ENDROOT
BRANCH   1   2
ATOM      2  C   UNL     1       2.284   6.631  19.799  0.00  0.00    +0.000 C 
BRANCH   2   3
ATOM      3  C   UNL     1       2.299   6.988  18.310  0.00  0.00    +0.000 C 
BRANCH   3   4
ATOM      4  C   UNL     1       2.557   8.467  17.971  0.00  0.00    +0.000 C 
BRANCH   4   5
ATOM      5  C   UNL     1       1.315   9.311  17.701  0.00  0.00    +0.000 C 
BRANCH   5   7
ATOM      6  O   UNL     1      -0.052  11.495  18.565  0.00  0.00    +0.000 OA
ATOM      7  S   UNL     1       1.051  10.572  19.002  0.00  0.00    +0.000 S 
BRANCH   7   8
ATOM      8  O   UNL     1       0.408   9.519  20.030  0.00  0.00    +0.000 OA
ATOM      9  H   UNL     1      -0.207   9.984  20.647  0.00  0.00    +0.000 HD
ENDBRANCH   7   8
ENDBRANCH   5   7
ENDBRANCH   4   5
ENDBRANCH   3   4
ENDBRANCH   2   3
ENDBRANCH   1   2
BRANCH   1  10
ATOM     10  S   UNL     1       1.556   3.789  19.117  0.00  0.00    +0.000 S 
BRANCH  10  11
ATOM     11  C   UNL     1       2.587   2.848  17.947  0.00  0.00    +0.000 C 
BRANCH  11  12
ATOM     12  C   UNL     1       3.356   3.759  16.985  0.00  0.00    +0.000 C 
BRANCH  12  13
ATOM     13  C   UNL     1       4.884   3.791  17.171  0.00  0.00    +0.000 C 
BRANCH  13  14
ATOM     14  C   UNL     1       5.554   4.875  16.339  0.00  0.00    +0.000 C 
BRANCH  14  15
ATOM     15  S   UNL     1       7.152   5.333  16.983  0.00  0.00    +0.000 S 
ATOM     16  O   UNL     1       8.049   4.213  16.816  0.00  0.00    +0.000 OA
ATOM     17  O   UNL     1       7.463   6.657  16.493  0.00  0.00    +0.000 OA
ATOM     18  S   UNL     1       6.910   5.547  18.975  0.00  0.00    +0.000 SA
ENDBRANCH  14  15
ENDBRANCH  13  14
ENDBRANCH  12  13
ENDBRANCH  11  12
ENDBRANCH  10  11
ENDBRANCH   1  10
TORSDOF 12
ENDMDL
MODEL 8
REMARK VINA RESULT:      -4.7      2.839      3.414
REMARK  Name = 
REMARK  12 active torsions:
REMARK  status: ('A' for Active; 'I' for Inactive)
REMARK    1  A    between atoms: S_2  and  O_3
REMARK    2  A    between atoms: S_2  and  C_4
REMARK    3  A    between atoms: C_4  and  C_5
REMARK    4  A    between atoms: C_5  and  C_6
REMARK    5  A    between atoms: C_6  and  C_7
REMARK    6  A    between atoms: C_7  and  S_8
REMARK    7  A    between atoms: S_8  and  S_9
REMARK    8  A    between atoms: S_9  and  C_10
REMARK    9  A    between atoms: C_10  and  C_11
REMARK   10  A    between atoms: C_11  and  C_12
REMARK   11  A    between atoms: C_12  and  C_13
REMARK   12  A    between atoms: C_13  and  S_14
REMARK                            x       y       z     vdW  Elec       q    Type
REMARK                         _______ _______ _______ _____ _____    ______ ____
ROOT
ATOM      1  S   UNL     1       2.000   7.471  19.701  0.00  0.00    +0.000 S 
ENDROOT
BRANCH   1   2
ATOM      2  C   UNL     1       2.599   8.240  18.159  0.00  0.00    +0.000 C 
BRANCH   2   3
ATOM      3  C   UNL     1       1.758   9.465  17.793  0.00  0.00    +0.000 C 
BRANCH   3   4
ATOM      4  C   UNL     1       0.784   9.966  18.874  0.00  0.00    +0.000 C 
BRANCH   4   5
ATOM      5  C   UNL     1      -0.622  10.310  18.391  0.00  0.00    +0.000 C 
BRANCH   5   7
ATOM      6  O   UNL     1       0.138  12.919  18.456  0.00  0.00    +0.000 OA
ATOM      7  S   UNL     1      -1.057  12.053  18.745  0.00  0.00    +0.000 S 
BRANCH   7   8
ATOM      8  O   UNL     1      -2.039  12.167  17.480  0.00  0.00    +0.000 OA
ATOM      9  H   UNL     1      -1.621  11.748  16.689  0.00  0.00    +0.000 HD
ENDBRANCH   7   8
ENDBRANCH   5   7
ENDBRANCH   4   5
ENDBRANCH   3   4
ENDBRANCH   2   3
ENDBRANCH   1   2
BRANCH   1  10
ATOM     10  S   UNL     1       2.908   5.637  19.642  0.00  0.00    +0.000 S 
BRANCH  10  11
ATOM     11  C   UNL     1       2.695   5.160  17.897  0.00  0.00    +0.000 C 
BRANCH  11  12
ATOM     12  C   UNL     1       3.727   4.121  17.447  0.00  0.00    +0.000 C 
BRANCH  12  13
ATOM     13  C   UNL     1       4.726   4.592  16.374  0.00  0.00    +0.000 C 
BRANCH  13  14
ATOM     14  C   UNL     1       5.372   5.926  16.718  0.00  0.00    +0.000 C 
BRANCH  14  15
ATOM     15  S   UNL     1       7.125   5.775  17.011  0.00  0.00    +0.000 S 
ATOM     16  O   UNL     1       7.550   4.469  16.567  0.00  0.00    +0.000 OA
ATOM     17  O   UNL     1       7.756   6.994  16.556  0.00  0.00    +0.000 OA
ATOM     18  S   UNL     1       7.357   5.774  19.016  0.00  0.00    +0.000 SA
ENDBRANCH  14  15
ENDBRANCH  13  14
ENDBRANCH  12  13
ENDBRANCH  11  12
ENDBRANCH  10  11
ENDBRANCH   1  10
TORSDOF 12
ENDMDL
MODEL 9
REMARK VINA RESULT:      -4.7      2.532      3.202
REMARK  Name = 
REMARK  12 active torsions:
REMARK  status: ('A' for Active; 'I' for Inactive)
REMARK    1  A    between atoms: S_2  and  O_3
REMARK    2  A    between atoms: S_2  and  C_4
REMARK    3  A    between atoms: C_4  and  C_5
REMARK    4  A    between atoms: C_5  and  C_6
REMARK    5  A    between atoms: C_6  and  C_7
REMARK    6  A    between atoms: C_7  and  S_8
REMARK    7  A    between atoms: S_8  and  S_9
REMARK    8  A    between atoms: S_9  and  C_10
REMARK    9  A    between atoms: C_10  and  C_11
REMARK   10  A    between atoms: C_11  and  C_12
REMARK   11  A    between atoms: C_12  and  C_13
REMARK   12  A    between atoms: C_13  and  S_14
REMARK                            x       y       z     vdW  Elec       q    Type
REMARK                         _______ _______ _______ _____ _____    ______ ____
ROOT
ATOM      1  S   UNL     1       1.352   3.170  18.197  0.00  0.00    +0.000 S 
ENDROOT
BRANCH   1   2
ATOM      2  C   UNL     1       0.684   2.790  19.852  0.00  0.00    +0.000 C 
BRANCH   2   3
ATOM      3  C   UNL     1       1.776   2.889  20.919  0.00  0.00    +0.000 C 
BRANCH   3   4
ATOM      4  C   UNL     1       2.344   4.295  21.181  0.00  0.00    +0.000 C 
BRANCH   4   5
ATOM      5  C   UNL     1       1.471   5.458  20.718  0.00  0.00    +0.000 C 
BRANCH   5   7
ATOM      6  O   UNL     1       2.161   7.925  19.809  0.00  0.00    +0.000 OA
ATOM      7  S   UNL     1       2.308   6.473  19.445  0.00  0.00    +0.000 S 
BRANCH   7   8
ATOM      8  O   UNL     1       3.777   6.017  19.906  0.00  0.00    +0.000 OA
ATOM      9  H   UNL     1       4.425   6.181  19.178  0.00  0.00    +0.000 HD
ENDBRANCH   7   8
ENDBRANCH   5   7
ENDBRANCH   4   5
ENDBRANCH   3   4
ENDBRANCH   2   3
ENDBRANCH   1   2
BRANCH   1  10
ATOM     10  S   UNL     1       3.052   2.029  18.153  0.00  0.00    +0.000 S 
BRANCH  10  11
ATOM     11  C   UNL     1       4.360   3.295  18.098  0.00  0.00    +0.000 C 
BRANCH  11  12
ATOM     12  C   UNL     1       4.588   3.837  16.683  0.00  0.00    +0.000 C 
BRANCH  12  13
ATOM     13  C   UNL     1       6.057   3.950  16.239  0.00  0.00    +0.000 C 
BRANCH  13  14
ATOM     14  C   UNL     1       6.413   5.342  15.736  0.00  0.00    +0.000 C 
BRANCH  14  15
ATOM     15  S   UNL     1       6.738   6.481  17.069  0.00  0.00    +0.000 S 
ATOM     16  O   UNL     1       7.791   7.379  16.655  0.00  0.00    +0.000 OA
ATOM     17  O   UNL     1       5.465   6.954  17.567  0.00  0.00    +0.000 OA
ATOM     18  S   UNL     1       7.517   5.378  18.569  0.00  0.00    +0.000 SA
ENDBRANCH  14  15
ENDBRANCH  13  14
ENDBRANCH  12  13
ENDBRANCH  11  12
ENDBRANCH  10  11
ENDBRANCH   1  10
TORSDOF 12
ENDMDL
