MODEL 1
REMARK VINA RESULT:      -6.5      0.000      0.000
REMARK  Name = 
REMARK  5 active torsions:
REMARK  status: ('A' for Active; 'I' for Inactive)
REMARK    1  A    between atoms: N_3  and  C_4
REMARK    2  A    between atoms: C_4  and  C_5
REMARK    3  A    between atoms: N_8  and  C_9
REMARK    4  A    between atoms: C_9  and  C_10
REMARK    5  A    between atoms: C_9  and  C_13
REMARK                            x       y       z     vdW  Elec       q    Type
REMARK                         _______ _______ _______ _____ _____    ______ ____
ROOT
ATOM      1  O   UNL     1       3.650   4.241  17.468  0.00  0.00    +0.000 OA
ATOM      2  C   UNL     1       4.576   3.722  18.082  0.00  0.00    +0.000 C 
ATOM      3  N   UNL     1       4.393   2.821  19.103  0.00  0.00    +0.000 N 
ATOM      4  N   UNL     1       5.896   3.975  17.851  0.00  0.00    +0.000 N 
ATOM      5  H   UNL     1       5.171   2.232  19.354  0.00  0.00    +0.000 HD
ATOM      6  H   UNL     1       6.584   3.522  18.428  0.00  0.00    +0.000 HD
ENDROOT
BRANCH   3   7
ATOM      7  C   UNL     1       3.064   2.376  19.457  0.00  0.00    +0.000 C 
BRANCH   7   8
ATOM      8  C   UNL     1       2.510   3.211  20.571  0.00  0.00    +0.000 C 
ATOM      9  C   UNL     1       1.097   3.740  20.543  0.00  0.00    +0.000 C 
ATOM     10  C   UNL     1       1.463   2.639  21.497  0.00  0.00    +0.000 C 
ENDBRANCH   7   8
ENDBRANCH   3   7
BRANCH   4  11
ATOM     11  C   UNL     1       6.368   4.903  16.839  0.00  0.00    +0.000 C 
BRANCH  11  12
ATOM     12  C   UNL     1       7.580   5.628  17.395  0.00  0.00    +0.000 C 
ATOM     13  C   UNL     1       7.593   7.107  17.728  0.00  0.00    +0.000 C 
ATOM     14  C   UNL     1       7.569   6.094  18.833  0.00  0.00    +0.000 C 
ENDBRANCH  11  12
BRANCH  11  15
ATOM     15  C   UNL     1       6.672   4.196  15.538  0.00  0.00    +0.000 C 
ATOM     16  C   UNL     1       5.661   4.048  14.425  0.00  0.00    +0.000 C 
ATOM     17  C   UNL     1       6.870   4.919  14.223  0.00  0.00    +0.000 C 
ENDBRANCH  11  15
ENDBRANCH   4  11
TORSDOF 5
ENDMDL
MODEL 2
REMARK VINA RESULT:      -6.0      0.579      2.607
REMARK  Name = 
REMARK  5 active torsions:
REMARK  status: ('A' for Active; 'I' for Inactive)
REMARK    1  A    between atoms: N_3  and  C_4
REMARK    2  A    between atoms: C_4  and  C_5
REMARK    3  A    between atoms: N_8  and  C_9
REMARK    4  A    between atoms: C_9  and  C_10
REMARK    5  A    between atoms: C_9  and  C_13
REMARK                            x       y       z     vdW  Elec       q    Type
REMARK                         _______ _______ _______ _____ _____    ______ ____
ROOT
ATOM      1  O   UNL     1       4.010   4.621  17.848  0.00  0.00    +0.000 OA
ATOM      2  C   UNL     1       4.820   3.821  18.305  0.00  0.00    +0.000 C 
ATOM      3  N   UNL     1       4.468   2.777  19.125  0.00  0.00    +0.000 N 
ATOM      4  N   UNL     1       6.163   3.867  18.079  0.00  0.00    +0.000 N 
ATOM      5  H   UNL     1       5.120   2.014  19.218  0.00  0.00    +0.000 HD
ATOM      6  H   UNL     1       6.752   3.184  18.523  0.00  0.00    +0.000 HD
ENDROOT
BRANCH   3   7
ATOM      7  C   UNL     1       3.079   2.523  19.432  0.00  0.00    +0.000 C 
BRANCH   7   8
ATOM      8  C   UNL     1       2.665   3.281  20.657  0.00  0.00    +0.000 C 
ATOM      9  C   UNL     1       1.316   3.950  20.762  0.00  0.00    +0.000 C 
ATOM     10  C   UNL     1       1.603   2.719  21.572  0.00  0.00    +0.000 C 
ENDBRANCH   7   8
ENDBRANCH   3   7
BRANCH   4  11
ATOM     11  C   UNL     1       6.804   4.882  17.262  0.00  0.00    +0.000 C 
BRANCH  11  12
ATOM     12  C   UNL     1       6.084   4.936  15.928  0.00  0.00    +0.000 C 
ATOM     13  C   UNL     1       6.800   4.995  14.591  0.00  0.00    +0.000 C 
ATOM     14  C   UNL     1       6.121   3.728  15.019  0.00  0.00    +0.000 C 
ENDBRANCH  11  12
BRANCH  11  15
ATOM     15  C   UNL     1       6.818   6.224  17.958  0.00  0.00    +0.000 C 
ATOM     16  C   UNL     1       8.003   6.732  18.746  0.00  0.00    +0.000 C 
ATOM     17  C   UNL     1       7.615   7.413  17.463  0.00  0.00    +0.000 C 
ENDBRANCH  11  15
ENDBRANCH   4  11
TORSDOF 5
ENDMDL
MODEL 3
REMARK VINA RESULT:      -5.9      0.871      1.017
REMARK  Name = 
REMARK  5 active torsions:
REMARK  status: ('A' for Active; 'I' for Inactive)
REMARK    1  A    between atoms: N_3  and  C_4
REMARK    2  A    between atoms: C_4  and  C_5
REMARK    3  A    between atoms: N_8  and  C_9
REMARK    4  A    between atoms: C_9  and  C_10
REMARK    5  A    between atoms: C_9  and  C_13
REMARK                            x       y       z     vdW  Elec       q    Type
REMARK                         _______ _______ _______ _____ _____    ______ ____
ROOT
ATOM      1  O   UNL     1       4.318   5.008  19.032  0.00  0.00    +0.000 OA
ATOM      2  C   UNL     1       4.964   3.970  18.936  0.00  0.00    +0.000 C 
ATOM      3  N   UNL     1       4.678   2.834  19.653  0.00  0.00    +0.000 N 
ATOM      4  N   UNL     1       6.050   3.806  18.128  0.00  0.00    +0.000 N 
ATOM      5  H   UNL     1       5.051   1.960  19.317  0.00  0.00    +0.000 HD
ATOM      6  H   UNL     1       6.534   2.925  18.140  0.00  0.00    +0.000 HD
ENDROOT
BRANCH   3   7
ATOM      7  C   UNL     1       3.523   2.788  20.521  0.00  0.00    +0.000 C 
BRANCH   7   8
ATOM      8  C   UNL     1       2.259   2.841  19.717  0.00  0.00    +0.000 C 
ATOM      9  C   UNL     1       0.908   2.584  20.338  0.00  0.00    +0.000 C 
ATOM     10  C   UNL     1       1.283   3.976  19.917  0.00  0.00    +0.000 C 
ENDBRANCH   7   8
ENDBRANCH   3   7
BRANCH   4  11
ATOM     11  C   UNL     1       6.580   4.857  17.276  0.00  0.00    +0.000 C 
BRANCH  11  12
ATOM     12  C   UNL     1       7.798   5.448  17.961  0.00  0.00    +0.000 C 
ATOM     13  C   UNL     1       7.910   6.907  18.359  0.00  0.00    +0.000 C 
ATOM     14  C   UNL     1       7.703   5.860  19.412  0.00  0.00    +0.000 C 
ENDBRANCH  11  12
BRANCH  11  15
ATOM     15  C   UNL     1       6.898   4.338  15.892  0.00  0.00    +0.000 C 
ATOM     16  C   UNL     1       5.840   3.835  14.938  0.00  0.00    +0.000 C 
ATOM     17  C   UNL     1       6.585   5.103  14.623  0.00  0.00    +0.000 C 
ENDBRANCH  11  15
ENDBRANCH   4  11
TORSDOF 5
ENDMDL
MODEL 4
REMARK VINA RESULT:      -5.9      1.125      1.322
REMARK  Name = 
REMARK  5 active torsions:
REMARK  status: ('A' for Active; 'I' for Inactive)
REMARK    1  A    between atoms: N_3  and  C_4
REMARK    2  A    between atoms: C_4  and  C_5
REMARK    3  A    between atoms: N_8  and  C_9
REMARK    4  A    between atoms: C_9  and  C_10
REMARK    5  A    between atoms: C_9  and  C_13
REMARK                            x       y       z     vdW  Elec       q    Type
REMARK                         _______ _______ _______ _____ _____    ______ ____
ROOT
ATOM      1  O   UNL     1       3.777   6.311  18.002  0.00  0.00    +0.000 OA
ATOM      2  C   UNL     1       4.118   5.194  18.377  0.00  0.00    +0.000 C 
ATOM      3  N   UNL     1       3.378   4.434  19.251  0.00  0.00    +0.000 N 
ATOM      4  N   UNL     1       5.267   4.567  17.998  0.00  0.00    +0.000 N 
ATOM      5  H   UNL     1       3.562   3.444  19.282  0.00  0.00    +0.000 HD
ATOM      6  H   UNL     1       5.475   3.662  18.383  0.00  0.00    +0.000 HD
ENDROOT
BRANCH   3   7
ATOM      7  C   UNL     1       2.093   4.900  19.720  0.00  0.00    +0.000 C 
BRANCH   7   8
ATOM      8  C   UNL     1       1.167   3.744  19.950  0.00  0.00    +0.000 C 
ATOM      9  C   UNL     1       1.650   2.315  19.908  0.00  0.00    +0.000 C 
ATOM     10  C   UNL     1       1.268   2.935  21.221  0.00  0.00    +0.000 C 
ENDBRANCH   7   8
ENDBRANCH   3   7
BRANCH   4  11
ATOM     11  C   UNL     1       6.240   5.157  17.095  0.00  0.00    +0.000 C 
BRANCH  11  12
ATOM     12  C   UNL     1       7.517   5.406  17.876  0.00  0.00    +0.000 C 
ATOM     13  C   UNL     1       7.925   6.769  18.401  0.00  0.00    +0.000 C 
ATOM     14  C   UNL     1       7.431   5.722  19.352  0.00  0.00    +0.000 C 
ENDBRANCH  11  12
BRANCH  11  15
ATOM     15  C   UNL     1       6.473   4.281  15.885  0.00  0.00    +0.000 C 
ATOM     16  C   UNL     1       5.505   4.201  14.727  0.00  0.00    +0.000 C 
ATOM     17  C   UNL     1       6.859   4.823  14.525  0.00  0.00    +0.000 C 
ENDBRANCH  11  15
ENDBRANCH   4  11
TORSDOF 5
ENDMDL
MODEL 5
REMARK VINA RESULT:      -5.8      3.077      6.476
REMARK  Name = 
REMARK  5 active torsions:
REMARK  status: ('A' for Active; 'I' for Inactive)
REMARK    1  A    between atoms: N_3  and  C_4
REMARK    2  A    between atoms: C_4  and  C_5
REMARK    3  A    between atoms: N_8  and  C_9
REMARK    4  A    between atoms: C_9  and  C_10
REMARK    5  A    between atoms: C_9  and  C_13
REMARK                            x       y       z     vdW  Elec       q    Type
REMARK                         _______ _______ _______ _____ _____    ______ ____
ROOT
ATOM      1  O   UNL     1       7.715   6.537  18.420  0.00  0.00    +0.000 OA
ATOM      2  C   UNL     1       7.306   7.324  17.572  0.00  0.00    +0.000 C 
ATOM      3  N   UNL     1       7.714   8.634  17.499  0.00  0.00    +0.000 N 
ATOM      4  N   UNL     1       6.391   7.017  16.610  0.00  0.00    +0.000 N 
ATOM      5  H   UNL     1       7.570   9.122  16.630  0.00  0.00    +0.000 HD
ATOM      6  H   UNL     1       6.094   7.739  15.977  0.00  0.00    +0.000 HD
ENDROOT
BRANCH   3   7
ATOM      7  C   UNL     1       8.730   9.135  18.397  0.00  0.00    +0.000 C 
BRANCH   7   8
ATOM      8  C   UNL     1       8.862  10.622  18.264  0.00  0.00    +0.000 C 
ATOM      9  C   UNL     1       9.580  11.455  19.298  0.00  0.00    +0.000 C 
ATOM     10  C   UNL     1      10.205  11.238  17.949  0.00  0.00    +0.000 C 
ENDBRANCH   7   8
ENDBRANCH   3   7
BRANCH   4  11
ATOM     11  C   UNL     1       5.781   5.706  16.473  0.00  0.00    +0.000 C 
BRANCH  11  12
ATOM     12  C   UNL     1       4.387   5.772  17.067  0.00  0.00    +0.000 C 
ATOM     13  C   UNL     1       3.659   4.567  17.633  0.00  0.00    +0.000 C 
ATOM     14  C   UNL     1       4.210   5.609  18.560  0.00  0.00    +0.000 C 
ENDBRANCH  11  12
BRANCH  11  15
ATOM     15  C   UNL     1       5.768   5.250  15.032  0.00  0.00    +0.000 C 
ATOM     16  C   UNL     1       7.025   4.939  14.254  0.00  0.00    +0.000 C 
ATOM     17  C   UNL     1       6.071   3.830  14.604  0.00  0.00    +0.000 C 
ENDBRANCH  11  15
ENDBRANCH   4  11
TORSDOF 5
ENDMDL
MODEL 6
REMARK VINA RESULT:      -5.8      1.109      2.804
REMARK  Name = 
REMARK  5 active torsions:
REMARK  status: ('A' for Active; 'I' for Inactive)
REMARK    1  A    between atoms: N_3  and  C_4
REMARK    2  A    between atoms: C_4  and  C_5
REMARK    3  A    between atoms: N_8  and  C_9
REMARK    4  A    between atoms: C_9  and  C_10
REMARK    5  A    between atoms: C_9  and  C_13
REMARK                            x       y       z     vdW  Elec       q    Type
REMARK                         _______ _______ _______ _____ _____    ______ ____
ROOT
ATOM      1  O   UNL     1       5.072   3.111  19.002  0.00  0.00    +0.000 OA
ATOM      2  C   UNL     1       4.238   3.557  18.220  0.00  0.00    +0.000 C 
ATOM      3  N   UNL     1       2.904   3.231  18.273  0.00  0.00    +0.000 N 
ATOM      4  N   UNL     1       4.517   4.411  17.195  0.00  0.00    +0.000 N 
ATOM      5  H   UNL     1       2.254   3.841  17.805  0.00  0.00    +0.000 HD
ATOM      6  H   UNL     1       3.770   4.698  16.587  0.00  0.00    +0.000 HD
ENDROOT
BRANCH   3   7
ATOM      7  C   UNL     1       2.399   2.384  19.330  0.00  0.00    +0.000 C 
BRANCH   7   8
ATOM      8  C   UNL     1       1.583   3.185  20.300  0.00  0.00    +0.000 C 
ATOM      9  C   UNL     1       1.281   2.684  21.691  0.00  0.00    +0.000 C 
ATOM     10  C   UNL     1       2.244   3.821  21.500  0.00  0.00    +0.000 C 
ENDBRANCH   7   8
ENDBRANCH   3   7
BRANCH   4  11
ATOM     11  C   UNL     1       5.853   4.900  16.901  0.00  0.00    +0.000 C 
BRANCH  11  12
ATOM     12  C   UNL     1       5.890   5.320  15.444  0.00  0.00    +0.000 C 
ATOM     13  C   UNL     1       6.975   4.891  14.475  0.00  0.00    +0.000 C 
ATOM     14  C   UNL     1       5.603   4.294  14.371  0.00  0.00    +0.000 C 
ENDBRANCH  11  12
BRANCH  11  15
ATOM     15  C   UNL     1       6.247   6.025  17.831  0.00  0.00    +0.000 C 
ATOM     16  C   UNL     1       7.349   5.899  18.857  0.00  0.00    +0.000 C 
ATOM     17  C   UNL     1       7.527   6.820  17.682  0.00  0.00    +0.000 C 
ENDBRANCH  11  15
ENDBRANCH   4  11
TORSDOF 5
ENDMDL
MODEL 7
REMARK VINA RESULT:      -5.8      1.378      2.711
REMARK  Name = 
REMARK  5 active torsions:
REMARK  status: ('A' for Active; 'I' for Inactive)
REMARK    1  A    between atoms: N_3  and  C_4
REMARK    2  A    between atoms: C_4  and  C_5
REMARK    3  A    between atoms: N_8  and  C_9
REMARK    4  A    between atoms: C_9  and  C_10
REMARK    5  A    between atoms: C_9  and  C_13
REMARK                            x       y       z     vdW  Elec       q    Type
REMARK                         _______ _______ _______ _____ _____    ______ ____
ROOT
ATOM      1  O   UNL     1       5.673   4.086  19.345  0.00  0.00    +0.000 OA
ATOM      2  C   UNL     1       4.860   3.579  18.579  0.00  0.00    +0.000 C 
ATOM      3  N   UNL     1       3.837   2.763  18.996  0.00  0.00    +0.000 N 
ATOM      4  N   UNL     1       4.870   3.738  17.225  0.00  0.00    +0.000 N 
ATOM      5  H   UNL     1       3.059   2.628  18.370  0.00  0.00    +0.000 HD
ATOM      6  H   UNL     1       4.179   3.257  16.676  0.00  0.00    +0.000 HD
ENDROOT
BRANCH   3   7
ATOM      7  C   UNL     1       3.621   2.521  20.405  0.00  0.00    +0.000 C 
BRANCH   7   8
ATOM      8  C   UNL     1       2.497   3.369  20.917  0.00  0.00    +0.000 C 
ATOM      9  C   UNL     1       1.132   3.355  20.274  0.00  0.00    +0.000 C 
ATOM     10  C   UNL     1       1.327   2.726  21.624  0.00  0.00    +0.000 C 
ENDBRANCH   7   8
ENDBRANCH   3   7
BRANCH   4  11
ATOM     11  C   UNL     1       5.857   4.536  16.520  0.00  0.00    +0.000 C 
BRANCH  11  12
ATOM     12  C   UNL     1       6.204   3.821  15.228  0.00  0.00    +0.000 C 
ATOM     13  C   UNL     1       5.514   4.097  13.905  0.00  0.00    +0.000 C 
ATOM     14  C   UNL     1       6.916   4.579  14.130  0.00  0.00    +0.000 C 
ENDBRANCH  11  12
BRANCH  11  15
ATOM     15  C   UNL     1       5.361   5.944  16.278  0.00  0.00    +0.000 C 
ATOM     16  C   UNL     1       4.418   6.658  17.218  0.00  0.00    +0.000 C 
ATOM     17  C   UNL     1       5.834   7.143  17.071  0.00  0.00    +0.000 C 
ENDBRANCH  11  15
ENDBRANCH   4  11
TORSDOF 5
ENDMDL
MODEL 8
REMARK VINA RESULT:      -5.8      1.561      1.831
REMARK  Name = 
REMARK  5 active torsions:
REMARK  status: ('A' for Active; 'I' for Inactive)
REMARK    1  A    between atoms: N_3  and  C_4
REMARK    2  A    between atoms: C_4  and  C_5
REMARK    3  A    between atoms: N_8  and  C_9
REMARK    4  A    between atoms: C_9  and  C_10
REMARK    5  A    between atoms: C_9  and  C_13
REMARK                            x       y       z     vdW  Elec       q    Type
REMARK                         _______ _______ _______ _____ _____    ______ ____
ROOT
ATOM      1  O   UNL     1       3.202   6.847  18.223  0.00  0.00    +0.000 OA
ATOM      2  C   UNL     1       3.927   5.926  18.586  0.00  0.00    +0.000 C 
ATOM      3  N   UNL     1       3.621   5.094  19.635  0.00  0.00    +0.000 N 
ATOM      4  N   UNL     1       5.126   5.616  18.017  0.00  0.00    +0.000 N 
ATOM      5  H   UNL     1       4.099   4.209  19.686  0.00  0.00    +0.000 HD
ATOM      6  H   UNL     1       5.665   4.860  18.404  0.00  0.00    +0.000 HD
ENDROOT
BRANCH   3   7
ATOM      7  C   UNL     1       2.360   5.224  20.329  0.00  0.00    +0.000 C 
BRANCH   7   8
ATOM      8  C   UNL     1       1.507   4.014  20.099  0.00  0.00    +0.000 C 
ATOM      9  C   UNL     1       2.100   2.630  19.985  0.00  0.00    +0.000 C 
ATOM     10  C   UNL     1       1.309   3.005  21.206  0.00  0.00    +0.000 C 
ENDBRANCH   7   8
ENDBRANCH   3   7
BRANCH   4  11
ATOM     11  C   UNL     1       5.697   6.349  16.901  0.00  0.00    +0.000 C 
BRANCH  11  12
ATOM     12  C   UNL     1       7.188   6.493  17.146  0.00  0.00    +0.000 C 
ATOM     13  C   UNL     1       7.820   7.719  17.776  0.00  0.00    +0.000 C 
ATOM     14  C   UNL     1       7.712   6.448  18.564  0.00  0.00    +0.000 C 
ENDBRANCH  11  12
BRANCH  11  15
ATOM     15  C   UNL     1       5.398   5.673  15.583  0.00  0.00    +0.000 C 
ATOM     16  C   UNL     1       6.452   4.973  14.758  0.00  0.00    +0.000 C 
ATOM     17  C   UNL     1       5.360   4.169  15.407  0.00  0.00    +0.000 C 
ENDBRANCH  11  15
ENDBRANCH   4  11
TORSDOF 5
ENDMDL
MODEL 9
REMARK VINA RESULT:      -5.8      1.460      2.969
REMARK  Name = 
REMARK  5 active torsions:
REMARK  status: ('A' for Active; 'I' for Inactive)
REMARK    1  A    between atoms: N_3  and  C_4
REMARK    2  A    between atoms: C_4  and  C_5
REMARK    3  A    between atoms: N_8  and  C_9
REMARK    4  A    between atoms: C_9  and  C_10
REMARK    5  A    between atoms: C_9  and  C_13
REMARK                            x       y       z     vdW  Elec       q    Type
REMARK                         _______ _______ _______ _____ _____    ______ ____
ROOT
ATOM      1  O   UNL     1       3.920   2.857  17.846  0.00  0.00    +0.000 OA
ATOM      2  C   UNL     1       3.490   3.978  17.592  0.00  0.00    +0.000 C 
ATOM      3  N   UNL     1       2.199   4.368  17.853  0.00  0.00    +0.000 N 
ATOM      4  N   UNL     1       4.218   4.973  17.009  0.00  0.00    +0.000 N 
ATOM      5  H   UNL     1       2.006   5.356  17.892  0.00  0.00    +0.000 HD
ATOM      6  H   UNL     1       3.769   5.850  16.813  0.00  0.00    +0.000 HD
ENDROOT
BRANCH   3   7
ATOM      7  C   UNL     1       1.286   3.472  18.528  0.00  0.00    +0.000 C 
BRANCH   7   8
ATOM      8  C   UNL     1       1.097   3.891  19.954  0.00  0.00    +0.000 C 
ATOM      9  C   UNL     1       1.152   2.899  21.090  0.00  0.00    +0.000 C 
ATOM     10  C   UNL     1       2.270   3.885  20.906  0.00  0.00    +0.000 C 
ENDBRANCH   7   8
ENDBRANCH   3   7
BRANCH   4  11
ATOM     11  C   UNL     1       5.607   4.821  16.612  0.00  0.00    +0.000 C 
BRANCH  11  12
ATOM     12  C   UNL     1       5.726   5.227  15.155  0.00  0.00    +0.000 C 
ATOM     13  C   UNL     1       6.878   4.811  14.260  0.00  0.00    +0.000 C 
ATOM     14  C   UNL     1       5.529   4.184  14.078  0.00  0.00    +0.000 C 
ENDBRANCH  11  12
BRANCH  11  15
ATOM     15  C   UNL     1       6.528   5.620  17.505  0.00  0.00    +0.000 C 
ATOM     16  C   UNL     1       6.557   5.466  19.008  0.00  0.00    +0.000 C 
ATOM     17  C   UNL     1       7.742   5.031  18.191  0.00  0.00    +0.000 C 
ENDBRANCH  11  15
ENDBRANCH   4  11
TORSDOF 5
ENDMDL
