MODEL 1
REMARK VINA RESULT:      -9.8      0.000      0.000
REMARK  Name = 
REMARK  2 active torsions:
REMARK  status: ('A' for Active; 'I' for Inactive)
REMARK    1  A    between atoms: N_8  and  C_9
REMARK    2  A    between atoms: C_11  and  C_12
REMARK                            x       y       z     vdW  Elec       q    Type
REMARK                         _______ _______ _______ _____ _____    ______ ____
ROOT
ATOM      1  C   UNL     1       2.966   6.041  18.092  0.00  0.00    +0.000 A 
ATOM      2  N   UNL     1       3.882   6.024  17.093  0.00  0.00    +0.000 NA
ATOM      3  C   UNL     1       4.428   4.843  16.654  0.00  0.00    +0.000 A 
ATOM      4  N   UNL     1       4.103   3.635  17.099  0.00  0.00    +0.000 NA
ATOM      5  C   UNL     1       3.189   3.678  18.068  0.00  0.00    +0.000 A 
ATOM      6  C   UNL     1       2.563   4.821  18.574  0.00  0.00    +0.000 A 
ATOM      7  C   UNL     1       1.656   4.358  19.662  0.00  0.00    +0.000 C 
ATOM      8  N   UNL     1       2.263   3.105  20.151  0.00  0.00    +0.000 NA
ATOM      9  C   UNL     1       2.893   2.505  18.965  0.00  0.00    +0.000 C 
ATOM     10  H   UNL     1       1.583   2.484  20.578  0.00  0.00    +0.000 HD
ENDROOT
BRANCH   1  18
ATOM     11  C   UNL     1      -0.150   9.331  22.095  0.00  0.00    +0.000 A 
ATOM     12  C   UNL     1      -0.654  10.139  21.085  0.00  0.00    +0.000 A 
ATOM     13  N   UNL     1      -0.197  10.125  19.800  0.00  0.00    +0.000 NA
ATOM     14  C   UNL     1       0.799   9.251  19.500  0.00  0.00    +0.000 A 
ATOM     15  C   UNL     1       1.350   8.374  20.436  0.00  0.00    +0.000 A 
ATOM     16  C   UNL     1       0.873   8.445  21.750  0.00  0.00    +0.000 A 
ATOM     17  C   UNL     1       2.472   7.413  20.068  0.00  0.00    +0.000 C 
ATOM     18  N   UNL     1       2.626   7.278  18.609  0.00  0.00    +0.000 N 
ATOM     19  C   UNL     1       2.632   8.562  17.915  0.00  0.00    +0.000 C 
ATOM     20  C   UNL     1       1.263   9.236  18.065  0.00  0.00    +0.000 C 
ENDBRANCH   1  18
BRANCH   3  21
ATOM     21  C   UNL     1       5.536   4.942  15.709  0.00  0.00    +0.000 A 
ATOM     22  C   UNL     1       6.791   5.363  16.129  0.00  0.00    +0.000 A 
ATOM     23  N   UNL     1       7.562   5.511  15.024  0.00  0.00    +0.000 N 
ATOM     24  C   UNL     1       7.034   4.770  13.996  0.00  0.00    +0.000 A 
ATOM     25  C   UNL     1       7.649   4.334  12.818  0.00  0.00    +0.000 A 
ATOM     26  C   UNL     1       6.873   3.579  11.939  0.00  0.00    +0.000 A 
ATOM     27  C   UNL     1       5.522   3.364  12.192  0.00  0.00    +0.000 A 
ATOM     28  C   UNL     1       4.918   3.839  13.376  0.00  0.00    +0.000 A 
ATOM     29  C   UNL     1       5.713   4.503  14.340  0.00  0.00    +0.000 A 
ATOM     30  H   UNL     1       8.471   5.956  15.007  0.00  0.00    +0.000 HD
ENDBRANCH   3  21
TORSDOF 2
ENDMDL
MODEL 2
REMARK VINA RESULT:      -8.7      1.448      8.288
REMARK  Name = 
REMARK  2 active torsions:
REMARK  status: ('A' for Active; 'I' for Inactive)
REMARK    1  A    between atoms: N_8  and  C_9
REMARK    2  A    between atoms: C_11  and  C_12
REMARK                            x       y       z     vdW  Elec       q    Type
REMARK                         _______ _______ _______ _____ _____    ______ ____
ROOT
ATOM      1  C   UNL     1       3.660   5.891  19.424  0.00  0.00    +0.000 A 
ATOM      2  N   UNL     1       3.104   7.109  19.633  0.00  0.00    +0.000 NA
ATOM      3  C   UNL     1       1.901   7.237  20.282  0.00  0.00    +0.000 A 
ATOM      4  N   UNL     1       1.200   6.236  20.802  0.00  0.00    +0.000 NA
ATOM      5  C   UNL     1       1.776   5.051  20.598  0.00  0.00    +0.000 A 
ATOM      6  C   UNL     1       2.999   4.816  19.965  0.00  0.00    +0.000 A 
ATOM      7  C   UNL     1       3.190   3.339  19.951  0.00  0.00    +0.000 C 
ATOM      8  N   UNL     1       1.824   2.782  19.988  0.00  0.00    +0.000 NA
ATOM      9  C   UNL     1       1.047   3.746  20.782  0.00  0.00    +0.000 C 
ATOM     10  H   UNL     1       1.794   1.848  20.385  0.00  0.00    +0.000 HD
ENDROOT
BRANCH   1  18
ATOM     11  C   UNL     1       5.953   5.043  13.894  0.00  0.00    +0.000 A 
ATOM     12  C   UNL     1       6.872   4.124  14.383  0.00  0.00    +0.000 A 
ATOM     13  N   UNL     1       7.114   3.921  15.710  0.00  0.00    +0.000 NA
ATOM     14  C   UNL     1       6.391   4.655  16.596  0.00  0.00    +0.000 A 
ATOM     15  C   UNL     1       5.420   5.579  16.206  0.00  0.00    +0.000 A 
ATOM     16  C   UNL     1       5.228   5.779  14.835  0.00  0.00    +0.000 A 
ATOM     17  C   UNL     1       4.634   6.393  17.226  0.00  0.00    +0.000 C 
ATOM     18  N   UNL     1       4.759   5.839  18.587  0.00  0.00    +0.000 N 
ATOM     19  C   UNL     1       6.136   5.521  18.948  0.00  0.00    +0.000 C 
ATOM     20  C   UNL     1       6.656   4.388  18.057  0.00  0.00    +0.000 C 
ENDBRANCH   1  18
BRANCH   3  21
ATOM     21  C   UNL     1       1.296   8.565  20.293  0.00  0.00    +0.000 A 
ATOM     22  C   UNL     1       1.123   9.275  19.113  0.00  0.00    +0.000 A 
ATOM     23  N   UNL     1       0.697  10.519  19.445  0.00  0.00    +0.000 N 
ATOM     24  C   UNL     1       0.145  10.493  20.702  0.00  0.00    +0.000 A 
ATOM     25  C   UNL     1      -0.720  11.413  21.304  0.00  0.00    +0.000 A 
ATOM     26  C   UNL     1      -1.140  11.132  22.604  0.00  0.00    +0.000 A 
ATOM     27  C   UNL     1      -0.631  10.034  23.291  0.00  0.00    +0.000 A 
ATOM     28  C   UNL     1       0.263   9.137  22.670  0.00  0.00    +0.000 A 
ATOM     29  C   UNL     1       0.609   9.332  21.313  0.00  0.00    +0.000 A 
ATOM     30  H   UNL     1       0.638  11.302  18.806  0.00  0.00    +0.000 HD
ENDBRANCH   3  21
TORSDOF 2
ENDMDL
MODEL 3
REMARK VINA RESULT:      -8.6      3.431      6.601
REMARK  Name = 
REMARK  2 active torsions:
REMARK  status: ('A' for Active; 'I' for Inactive)
REMARK    1  A    between atoms: N_8  and  C_9
REMARK    2  A    between atoms: C_11  and  C_12
REMARK                            x       y       z     vdW  Elec       q    Type
REMARK                         _______ _______ _______ _____ _____    ______ ____
ROOT
ATOM      1  C   UNL     1       0.682  10.702  19.585  0.00  0.00    +0.000 A 
ATOM      2  N   UNL     1       1.296   9.632  19.025  0.00  0.00    +0.000 NA
ATOM      3  C   UNL     1       1.414   8.446  19.707  0.00  0.00    +0.000 A 
ATOM      4  N   UNL     1       0.920   8.204  20.916  0.00  0.00    +0.000 NA
ATOM      5  C   UNL     1       0.308   9.267  21.438  0.00  0.00    +0.000 A 
ATOM      6  C   UNL     1       0.122  10.508  20.823  0.00  0.00    +0.000 A 
ATOM      7  C   UNL     1      -0.579  11.370  21.815  0.00  0.00    +0.000 C 
ATOM      8  N   UNL     1      -0.197  10.818  23.129  0.00  0.00    +0.000 NA
ATOM      9  C   UNL     1      -0.040   9.374  22.899  0.00  0.00    +0.000 C 
ATOM     10  H   UNL     1      -0.884  11.017  23.850  0.00  0.00    +0.000 HD
ENDROOT
BRANCH   1  18
ATOM     11  C   UNL     1       3.856  15.696  18.340  0.00  0.00    +0.000 A 
ATOM     12  C   UNL     1       2.766  16.501  18.644  0.00  0.00    +0.000 A 
ATOM     13  N   UNL     1       1.502  16.029  18.837  0.00  0.00    +0.000 NA
ATOM     14  C   UNL     1       1.315  14.687  18.742  0.00  0.00    +0.000 A 
ATOM     15  C   UNL     1       2.350  13.790  18.474  0.00  0.00    +0.000 A 
ATOM     16  C   UNL     1       3.625  14.321  18.251  0.00  0.00    +0.000 A 
ATOM     17  C   UNL     1       2.104  12.292  18.365  0.00  0.00    +0.000 C 
ATOM     18  N   UNL     1       0.791  11.907  18.915  0.00  0.00    +0.000 N 
ATOM     19  C   UNL     1      -0.294  12.768  18.456  0.00  0.00    +0.000 C 
ATOM     20  C   UNL     1      -0.088  14.189  18.992  0.00  0.00    +0.000 C 
ENDBRANCH   1  18
BRANCH   3  21
ATOM     21  C   UNL     1       2.250   7.416  19.098  0.00  0.00    +0.000 A 
ATOM     22  C   UNL     1       3.175   7.742  18.116  0.00  0.00    +0.000 A 
ATOM     23  N   UNL     1       3.680   6.582  17.629  0.00  0.00    +0.000 N 
ATOM     24  C   UNL     1       3.489   5.580  18.548  0.00  0.00    +0.000 A 
ATOM     25  C   UNL     1       4.134   4.342  18.649  0.00  0.00    +0.000 A 
ATOM     26  C   UNL     1       3.746   3.509  19.699  0.00  0.00    +0.000 A 
ATOM     27  C   UNL     1       2.695   3.868  20.537  0.00  0.00    +0.000 A 
ATOM     28  C   UNL     1       2.042   5.111  20.396  0.00  0.00    +0.000 A 
ATOM     29  C   UNL     1       2.497   6.024  19.417  0.00  0.00    +0.000 A 
ATOM     30  H   UNL     1       4.255   6.502  16.800  0.00  0.00    +0.000 HD
ENDBRANCH   3  21
TORSDOF 2
ENDMDL
MODEL 4
REMARK VINA RESULT:      -8.6      1.546      7.735
REMARK  Name = 
REMARK  2 active torsions:
REMARK  status: ('A' for Active; 'I' for Inactive)
REMARK    1  A    between atoms: N_8  and  C_9
REMARK    2  A    between atoms: C_11  and  C_12
REMARK                            x       y       z     vdW  Elec       q    Type
REMARK                         _______ _______ _______ _____ _____    ______ ____
ROOT
ATOM      1  C   UNL     1       3.665   5.604  19.529  0.00  0.00    +0.000 A 
ATOM      2  N   UNL     1       3.016   6.742  19.874  0.00  0.00    +0.000 NA
ATOM      3  C   UNL     1       1.803   6.699  20.514  0.00  0.00    +0.000 A 
ATOM      4  N   UNL     1       1.176   5.592  20.897  0.00  0.00    +0.000 NA
ATOM      5  C   UNL     1       1.842   4.488  20.561  0.00  0.00    +0.000 A 
ATOM      6  C   UNL     1       3.084   4.424  19.925  0.00  0.00    +0.000 A 
ATOM      7  C   UNL     1       3.388   2.978  19.734  0.00  0.00    +0.000 C 
ATOM      8  N   UNL     1       2.068   2.320  19.681  0.00  0.00    +0.000 NA
ATOM      9  C   UNL     1       1.213   3.119  20.573  0.00  0.00    +0.000 C 
ATOM     10  H   UNL     1       2.106   1.345  19.961  0.00  0.00    +0.000 HD
ENDROOT
BRANCH   1  18
ATOM     11  C   UNL     1       6.178   5.082  14.054  0.00  0.00    +0.000 A 
ATOM     12  C   UNL     1       7.239   4.356  14.577  0.00  0.00    +0.000 A 
ATOM     13  N   UNL     1       7.488   4.225  15.911  0.00  0.00    +0.000 NA
ATOM     14  C   UNL     1       6.628   4.832  16.769  0.00  0.00    +0.000 A 
ATOM     15  C   UNL     1       5.513   5.557  16.345  0.00  0.00    +0.000 A 
ATOM     16  C   UNL     1       5.314   5.692  14.967  0.00  0.00    +0.000 A 
ATOM     17  C   UNL     1       4.573   6.232  17.335  0.00  0.00    +0.000 C 
ATOM     18  N   UNL     1       4.770   5.737  18.709  0.00  0.00    +0.000 N 
ATOM     19  C   UNL     1       6.176   5.681  19.099  0.00  0.00    +0.000 C 
ATOM     20  C   UNL     1       6.909   4.645  18.240  0.00  0.00    +0.000 C 
ENDBRANCH   1  18
BRANCH   3  21
ATOM     21  C   UNL     1       1.098   7.967  20.676  0.00  0.00    +0.000 A 
ATOM     22  C   UNL     1       0.507   8.300  21.887  0.00  0.00    +0.000 A 
ATOM     23  N   UNL     1      -0.202   9.440  21.695  0.00  0.00    +0.000 N 
ATOM     24  C   UNL     1       0.278  10.095  20.588  0.00  0.00    +0.000 A 
ATOM     25  C   UNL     1       0.116  11.434  20.217  0.00  0.00    +0.000 A 
ATOM     26  C   UNL     1       0.726  11.842  19.031  0.00  0.00    +0.000 A 
ATOM     27  C   UNL     1       1.377  10.922  18.216  0.00  0.00    +0.000 A 
ATOM     28  C   UNL     1       1.502   9.570  18.600  0.00  0.00    +0.000 A 
ATOM     29  C   UNL     1       0.998   9.157  19.855  0.00  0.00    +0.000 A 
ATOM     30  H   UNL     1      -0.861   9.831  22.356  0.00  0.00    +0.000 HD
ENDBRANCH   3  21
TORSDOF 2
ENDMDL
MODEL 5
REMARK VINA RESULT:      -8.4      3.134      6.267
REMARK  Name = 
REMARK  2 active torsions:
REMARK  status: ('A' for Active; 'I' for Inactive)
REMARK    1  A    between atoms: N_8  and  C_9
REMARK    2  A    between atoms: C_11  and  C_12
REMARK                            x       y       z     vdW  Elec       q    Type
REMARK                         _______ _______ _______ _____ _____    ______ ____
ROOT
ATOM      1  C   UNL     1       0.562  10.278  19.852  0.00  0.00    +0.000 A 
ATOM      2  N   UNL     1       1.214   9.155  19.466  0.00  0.00    +0.000 NA
ATOM      3  C   UNL     1       1.311   8.070  20.302  0.00  0.00    +0.000 A 
ATOM      4  N   UNL     1       0.761   7.979  21.508  0.00  0.00    +0.000 NA
ATOM      5  C   UNL     1       0.112   9.090  21.857  0.00  0.00    +0.000 A 
ATOM      6  C   UNL     1      -0.057  10.237  21.077  0.00  0.00    +0.000 A 
ATOM      7  C   UNL     1      -0.815  11.209  21.914  0.00  0.00    +0.000 C 
ATOM      8  N   UNL     1      -0.493  10.839  23.305  0.00  0.00    +0.000 NA
ATOM      9  C   UNL     1      -0.308   9.379  23.274  0.00  0.00    +0.000 C 
ATOM     10  H   UNL     1      -1.217  11.118  23.961  0.00  0.00    +0.000 HD
ENDROOT
BRANCH   1  18
ATOM     11  C   UNL     1       3.692  15.174  18.182  0.00  0.00    +0.000 A 
ATOM     12  C   UNL     1       2.562  15.973  18.296  0.00  0.00    +0.000 A 
ATOM     13  N   UNL     1       1.299  15.486  18.459  0.00  0.00    +0.000 NA
ATOM     14  C   UNL     1       1.154  14.138  18.532  0.00  0.00    +0.000 A 
ATOM     15  C   UNL     1       2.230  13.251  18.461  0.00  0.00    +0.000 A 
ATOM     16  C   UNL     1       3.504  13.792  18.261  0.00  0.00    +0.000 A 
ATOM     17  C   UNL     1       2.031  11.743  18.536  0.00  0.00    +0.000 C 
ATOM     18  N   UNL     1       0.690  11.388  19.037  0.00  0.00    +0.000 N 
ATOM     19  C   UNL     1      -0.378  12.142  18.389  0.00  0.00    +0.000 C 
ATOM     20  C   UNL     1      -0.250  13.628  18.744  0.00  0.00    +0.000 C 
ENDBRANCH   1  18
BRANCH   3  21
ATOM     21  C   UNL     1       2.187   6.984  19.873  0.00  0.00    +0.000 A 
ATOM     22  C   UNL     1       2.092   5.726  20.451  0.00  0.00    +0.000 A 
ATOM     23  N   UNL     1       3.122   4.981  19.979  0.00  0.00    +0.000 N 
ATOM     24  C   UNL     1       3.575   5.524  18.803  0.00  0.00    +0.000 A 
ATOM     25  C   UNL     1       4.349   4.930  17.799  0.00  0.00    +0.000 A 
ATOM     26  C   UNL     1       4.663   5.718  16.691  0.00  0.00    +0.000 A 
ATOM     27  C   UNL     1       4.300   7.060  16.650  0.00  0.00    +0.000 A 
ATOM     28  C   UNL     1       3.544   7.642  17.689  0.00  0.00    +0.000 A 
ATOM     29  C   UNL     1       3.109   6.834  18.765  0.00  0.00    +0.000 A 
ATOM     30  H   UNL     1       3.399   4.078  20.342  0.00  0.00    +0.000 HD
ENDBRANCH   3  21
TORSDOF 2
ENDMDL
MODEL 6
REMARK VINA RESULT:      -8.3      1.267      1.923
REMARK  Name = 
REMARK  2 active torsions:
REMARK  status: ('A' for Active; 'I' for Inactive)
REMARK    1  A    between atoms: N_8  and  C_9
REMARK    2  A    between atoms: C_11  and  C_12
REMARK                            x       y       z     vdW  Elec       q    Type
REMARK                         _______ _______ _______ _____ _____    ______ ____
ROOT
ATOM      1  C   UNL     1       2.979   5.067  18.700  0.00  0.00    +0.000 A 
ATOM      2  N   UNL     1       3.823   5.293  17.664  0.00  0.00    +0.000 NA
ATOM      3  C   UNL     1       4.847   4.422  17.384  0.00  0.00    +0.000 A 
ATOM      4  N   UNL     1       5.089   3.288  18.031  0.00  0.00    +0.000 NA
ATOM      5  C   UNL     1       4.235   3.081  19.034  0.00  0.00    +0.000 A 
ATOM      6  C   UNL     1       3.155   3.894  19.390  0.00  0.00    +0.000 A 
ATOM      7  C   UNL     1       2.532   3.266  20.589  0.00  0.00    +0.000 C 
ATOM      8  N   UNL     1       3.626   2.513  21.231  0.00  0.00    +0.000 NA
ATOM      9  C   UNL     1       4.479   2.066  20.119  0.00  0.00    +0.000 C 
ATOM     10  H   UNL     1       3.289   1.735  21.789  0.00  0.00    +0.000 HD
ENDROOT
BRANCH   1  18
ATOM     11  C   UNL     1       1.545  10.939  18.523  0.00  0.00    +0.000 A 
ATOM     12  C   UNL     1       1.364  10.967  19.899  0.00  0.00    +0.000 A 
ATOM     13  N   UNL     1       1.315   9.854  20.683  0.00  0.00    +0.000 NA
ATOM     14  C   UNL     1       1.473   8.651  20.072  0.00  0.00    +0.000 A 
ATOM     15  C   UNL     1       1.694   8.518  18.700  0.00  0.00    +0.000 A 
ATOM     16  C   UNL     1       1.704   9.685  17.928  0.00  0.00    +0.000 A 
ATOM     17  C   UNL     1       1.858   7.153  18.044  0.00  0.00    +0.000 C 
ATOM     18  N   UNL     1       2.113   6.092  19.036  0.00  0.00    +0.000 N 
ATOM     19  C   UNL     1       1.203   6.147  20.176  0.00  0.00    +0.000 C 
ATOM     20  C   UNL     1       1.447   7.438  20.968  0.00  0.00    +0.000 C 
ENDBRANCH   1  18
BRANCH   3  21
ATOM     21  C   UNL     1       5.811   4.844  16.372  0.00  0.00    +0.000 A 
ATOM     22  C   UNL     1       6.984   5.492  16.736  0.00  0.00    +0.000 A 
ATOM     23  N   UNL     1       7.593   5.902  15.597  0.00  0.00    +0.000 N 
ATOM     24  C   UNL     1       7.135   5.156  14.539  0.00  0.00    +0.000 A 
ATOM     25  C   UNL     1       7.708   4.970  13.277  0.00  0.00    +0.000 A 
ATOM     26  C   UNL     1       7.025   4.143  12.385  0.00  0.00    +0.000 A 
ATOM     27  C   UNL     1       5.782   3.615  12.719  0.00  0.00    +0.000 A 
ATOM     28  C   UNL     1       5.212   3.841  13.989  0.00  0.00    +0.000 A 
ATOM     29  C   UNL     1       5.940   4.576  14.954  0.00  0.00    +0.000 A 
ATOM     30  H   UNL     1       8.382   6.535  15.556  0.00  0.00    +0.000 HD
ENDBRANCH   3  21
TORSDOF 2
ENDMDL
MODEL 7
REMARK VINA RESULT:      -7.9      1.502      2.197
REMARK  Name = 
REMARK  2 active torsions:
REMARK  status: ('A' for Active; 'I' for Inactive)
REMARK    1  A    between atoms: N_8  and  C_9
REMARK    2  A    between atoms: C_11  and  C_12
REMARK                            x       y       z     vdW  Elec       q    Type
REMARK                         _______ _______ _______ _____ _____    ______ ____
ROOT
ATOM      1  C   UNL     1       2.484   5.784  19.452  0.00  0.00    +0.000 A 
ATOM      2  N   UNL     1       3.422   5.949  18.489  0.00  0.00    +0.000 NA
ATOM      3  C   UNL     1       4.360   4.978  18.241  0.00  0.00    +0.000 A 
ATOM      4  N   UNL     1       4.425   3.799  18.851  0.00  0.00    +0.000 NA
ATOM      5  C   UNL     1       3.482   3.656  19.782  0.00  0.00    +0.000 A 
ATOM      6  C   UNL     1       2.477   4.573  20.099  0.00  0.00    +0.000 A 
ATOM      7  C   UNL     1       1.700   3.976  21.222  0.00  0.00    +0.000 C 
ATOM      8  N   UNL     1       2.653   3.079  21.904  0.00  0.00    +0.000 NA
ATOM      9  C   UNL     1       3.530   2.579  20.834  0.00  0.00    +0.000 C 
ATOM     10  H   UNL     1       2.190   2.325  22.401  0.00  0.00    +0.000 HD
ENDROOT
BRANCH   1  18
ATOM     11  C   UNL     1       1.413  11.711  18.927  0.00  0.00    +0.000 A 
ATOM     12  C   UNL     1       1.350  11.853  20.306  0.00  0.00    +0.000 A 
ATOM     13  N   UNL     1       1.297  10.806  21.178  0.00  0.00    +0.000 NA
ATOM     14  C   UNL     1       1.328   9.554  20.652  0.00  0.00    +0.000 A 
ATOM     15  C   UNL     1       1.424   9.305  19.281  0.00  0.00    +0.000 A 
ATOM     16  C   UNL     1       1.443  10.409  18.422  0.00  0.00    +0.000 A 
ATOM     17  C   UNL     1       1.446   7.888  18.725  0.00  0.00    +0.000 C 
ATOM     18  N   UNL     1       1.715   6.887  19.774  0.00  0.00    +0.000 N 
ATOM     19  C   UNL     1       0.910   7.090  20.974  0.00  0.00    +0.000 C 
ATOM     20  C   UNL     1       1.300   8.414  21.640  0.00  0.00    +0.000 C 
ENDBRANCH   1  18
BRANCH   3  21
ATOM     21  C   UNL     1       5.437   5.323  17.318  0.00  0.00    +0.000 A 
ATOM     22  C   UNL     1       6.592   5.943  17.776  0.00  0.00    +0.000 A 
ATOM     23  N   UNL     1       7.329   6.284  16.691  0.00  0.00    +0.000 N 
ATOM     24  C   UNL     1       6.950   5.513  15.620  0.00  0.00    +0.000 A 
ATOM     25  C   UNL     1       7.641   5.256  14.431  0.00  0.00    +0.000 A 
ATOM     26  C   UNL     1       7.018   4.419  13.504  0.00  0.00    +0.000 A 
ATOM     27  C   UNL     1       5.728   3.950  13.728  0.00  0.00    +0.000 A 
ATOM     28  C   UNL     1       5.042   4.247  14.924  0.00  0.00    +0.000 A 
ATOM     29  C   UNL     1       5.698   4.994  15.931  0.00  0.00    +0.000 A 
ATOM     30  H   UNL     1       8.142   6.886  16.708  0.00  0.00    +0.000 HD
ENDBRANCH   3  21
TORSDOF 2
ENDMDL
MODEL 8
REMARK VINA RESULT:      -7.8      2.945      8.865
REMARK  Name = 
REMARK  2 active torsions:
REMARK  status: ('A' for Active; 'I' for Inactive)
REMARK    1  A    between atoms: N_8  and  C_9
REMARK    2  A    between atoms: C_11  and  C_12
REMARK                            x       y       z     vdW  Elec       q    Type
REMARK                         _______ _______ _______ _____ _____    ______ ____
ROOT
ATOM      1  C   UNL     1       0.917   8.738  20.428  0.00  0.00    +0.000 A 
ATOM      2  N   UNL     1       0.213   9.170  19.353  0.00  0.00    +0.000 NA
ATOM      3  C   UNL     1      -0.726  10.163  19.474  0.00  0.00    +0.000 A 
ATOM      4  N   UNL     1      -1.007  10.821  20.594  0.00  0.00    +0.000 NA
ATOM      5  C   UNL     1      -0.291  10.389  21.632  0.00  0.00    +0.000 A 
ATOM      6  C   UNL     1       0.696   9.400  21.610  0.00  0.00    +0.000 A 
ATOM      7  C   UNL     1       1.174   9.251  23.013  0.00  0.00    +0.000 C 
ATOM      8  N   UNL     1       0.034   9.677  23.847  0.00  0.00    +0.000 NA
ATOM      9  C   UNL     1      -0.640  10.720  23.059  0.00  0.00    +0.000 C 
ATOM     10  H   UNL     1       0.324  10.016  24.760  0.00  0.00    +0.000 HD
ENDROOT
BRANCH   1  18
ATOM     11  C   UNL     1       4.194   5.166  16.815  0.00  0.00    +0.000 A 
ATOM     12  C   UNL     1       3.475   4.048  17.217  0.00  0.00    +0.000 A 
ATOM     13  N   UNL     1       2.608   4.039  18.269  0.00  0.00    +0.000 NA
ATOM     14  C   UNL     1       2.433   5.204  18.945  0.00  0.00    +0.000 A 
ATOM     15  C   UNL     1       3.083   6.390  18.599  0.00  0.00    +0.000 A 
ATOM     16  C   UNL     1       3.988   6.346  17.533  0.00  0.00    +0.000 A 
ATOM     17  C   UNL     1       2.871   7.678  19.384  0.00  0.00    +0.000 C 
ATOM     18  N   UNL     1       1.686   7.602  20.258  0.00  0.00    +0.000 N 
ATOM     19  C   UNL     1       1.626   6.365  21.031  0.00  0.00    +0.000 C 
ATOM     20  C   UNL     1       1.445   5.173  20.084  0.00  0.00    +0.000 C 
ENDBRANCH   1  18
BRANCH   3  21
ATOM     21  C   UNL     1      -1.559  10.428  18.305  0.00  0.00    +0.000 A 
ATOM     22  C   UNL     1      -1.305   9.797  17.095  0.00  0.00    +0.000 A 
ATOM     23  N   UNL     1      -2.121  10.352  16.167  0.00  0.00    +0.000 N 
ATOM     24  C   UNL     1      -3.187  10.948  16.793  0.00  0.00    +0.000 A 
ATOM     25  C   UNL     1      -4.428  11.320  16.262  0.00  0.00    +0.000 A 
ATOM     26  C   UNL     1      -5.342  11.907  17.137  0.00  0.00    +0.000 A 
ATOM     27  C   UNL     1      -4.983  12.193  18.450  0.00  0.00    +0.000 A 
ATOM     28  C   UNL     1      -3.715  11.834  18.954  0.00  0.00    +0.000 A 
ATOM     29  C   UNL     1      -2.814  11.129  18.121  0.00  0.00    +0.000 A 
ATOM     30  H   UNL     1      -2.050  10.203  15.168  0.00  0.00    +0.000 HD
ENDBRANCH   3  21
TORSDOF 2
ENDMDL
MODEL 9
REMARK VINA RESULT:      -7.8      6.175     10.889
REMARK  Name = 
REMARK  2 active torsions:
REMARK  status: ('A' for Active; 'I' for Inactive)
REMARK    1  A    between atoms: N_8  and  C_9
REMARK    2  A    between atoms: C_11  and  C_12
REMARK                            x       y       z     vdW  Elec       q    Type
REMARK                         _______ _______ _______ _____ _____    ______ ____
ROOT
ATOM      1  C   UNL     1      -0.206  12.778  18.906  0.00  0.00    +0.000 A 
ATOM      2  N   UNL     1      -1.552  12.679  18.793  0.00  0.00    +0.000 NA
ATOM      3  C   UNL     1      -2.147  11.495  18.433  0.00  0.00    +0.000 A 
ATOM      4  N   UNL     1      -1.508  10.351  18.211  0.00  0.00    +0.000 NA
ATOM      5  C   UNL     1      -0.187  10.472  18.344  0.00  0.00    +0.000 A 
ATOM      6  C   UNL     1       0.511  11.623  18.721  0.00  0.00    +0.000 A 
ATOM      7  C   UNL     1       1.958  11.267  18.691  0.00  0.00    +0.000 C 
ATOM      8  N   UNL     1       2.056  10.169  17.710  0.00  0.00    +0.000 NA
ATOM      9  C   UNL     1       0.784   9.441  17.833  0.00  0.00    +0.000 C 
ATOM     10  H   UNL     1       2.857   9.569  17.875  0.00  0.00    +0.000 HD
ENDROOT
BRANCH   1  18
ATOM     11  C   UNL     1      -0.175  18.628  17.377  0.00  0.00    +0.000 A 
ATOM     12  C   UNL     1       1.199  18.600  17.176  0.00  0.00    +0.000 A 
ATOM     13  N   UNL     1       2.002  17.564  17.551  0.00  0.00    +0.000 NA
ATOM     14  C   UNL     1       1.406  16.494  18.139  0.00  0.00    +0.000 A 
ATOM     15  C   UNL     1       0.030  16.411  18.355  0.00  0.00    +0.000 A 
ATOM     16  C   UNL     1      -0.752  17.510  17.984  0.00  0.00    +0.000 A 
ATOM     17  C   UNL     1      -0.604  15.200  19.026  0.00  0.00    +0.000 C 
ATOM     18  N   UNL     1       0.316  14.049  19.069  0.00  0.00    +0.000 N 
ATOM     19  C   UNL     1       1.655  14.406  19.528  0.00  0.00    +0.000 C 
ATOM     20  C   UNL     1       2.314  15.349  18.515  0.00  0.00    +0.000 C 
ENDBRANCH   1  18
BRANCH   3  21
ATOM     21  C   UNL     1      -3.580  11.534  18.157  0.00  0.00    +0.000 A 
ATOM     22  C   UNL     1      -4.096  10.959  17.004  0.00  0.00    +0.000 A 
ATOM     23  N   UNL     1      -5.409  11.288  16.937  0.00  0.00    +0.000 N 
ATOM     24  C   UNL     1      -5.859  11.627  18.189  0.00  0.00    +0.000 A 
ATOM     25  C   UNL     1      -7.173  11.685  18.668  0.00  0.00    +0.000 A 
ATOM     26  C   UNL     1      -7.346  12.055  20.001  0.00  0.00    +0.000 A 
ATOM     27  C   UNL     1      -6.258  12.442  20.776  0.00  0.00    +0.000 A 
ATOM     28  C   UNL     1      -4.945  12.402  20.261  0.00  0.00    +0.000 A 
ATOM     29  C   UNL     1      -4.731  11.914  18.950  0.00  0.00    +0.000 A 
ATOM     30  H   UNL     1      -6.003  11.143  16.131  0.00  0.00    +0.000 HD
ENDBRANCH   3  21
TORSDOF 2
ENDMDL
