MODEL 1
REMARK VINA RESULT:      -9.7      0.000      0.000
REMARK  Name = 
REMARK  3 active torsions:
REMARK  status: ('A' for Active; 'I' for Inactive)
REMARK    1  A    between atoms: C_4  and  C_5
REMARK    2  A    between atoms: C_10  and  O_11
REMARK    3  A    between atoms: C_10  and  C_12
REMARK                            x       y       z     vdW  Elec       q    Type
REMARK                         _______ _______ _______ _____ _____    ______ ____
ROOT
ATOM      1  C   UNL     1       2.525   4.934  18.750  0.00  0.00    +0.000 C 
ATOM      2  O   UNL     1       2.264   6.080  19.118  0.00  0.00    +0.000 OA
ATOM      3  N   UNL     1       3.784   4.605  18.251  0.00  0.00    +0.000 N 
ATOM      4  C   UNL     1       4.180   3.280  17.777  0.00  0.00    +0.000 C 
ATOM      5  C   UNL     1       4.632   3.362  16.321  0.00  0.00    +0.000 C 
ATOM      6  C   UNL     1       5.821   4.336  16.182  0.00  0.00    +0.000 C 
ATOM      7  C   UNL     1       5.400   5.734  16.732  0.00  0.00    +0.000 C 
ATOM      8  C   UNL     1       6.484   6.821  16.701  0.00  0.00    +0.000 C 
ATOM      9  C   UNL     1       7.680   6.500  17.575  0.00  0.00    +0.000 C 
ATOM     10  C   UNL     1       7.331   6.011  18.978  0.00  0.00    +0.000 C 
ATOM     11  C   UNL     1       5.909   5.502  19.265  0.00  0.00    +0.000 C 
ATOM     12  C   UNL     1       4.839   5.652  18.163  0.00  0.00    +0.000 C 
ENDROOT
BRANCH   1  16
ATOM     13  O   UNL     1       1.423   2.742  22.279  0.00  0.00    +0.000 OA
ATOM     14  C   UNL     1       1.500   2.859  21.069  0.00  0.00    +0.000 C 
ATOM     15  C   UNL     1       0.720   3.823  20.222  0.00  0.00    +0.000 C 
ATOM     16  C   UNL     1       1.473   3.819  18.885  0.00  0.00    +0.000 C 
ATOM     17  C   UNL     1       2.103   2.428  18.854  0.00  0.00    +0.000 C 
ATOM     18  N   UNL     1       2.269   2.086  20.237  0.00  0.00    +0.000 N 
ATOM     19  H   UNL     1       2.871   1.354  20.601  0.00  0.00    +0.000 HD
ENDBRANCH   1  16
BRANCH   6  20
ATOM     20  C   UNL     1       6.283   4.403  14.722  0.00  0.00    +0.000 A 
ATOM     21  C   UNL     1       5.588   3.703  13.716  0.00  0.00    +0.000 A 
ATOM     22  C   UNL     1       6.006   3.751  12.385  0.00  0.00    +0.000 A 
ATOM     23  C   UNL     1       7.129   4.493  12.032  0.00  0.00    +0.000 A 
ATOM     24  C   UNL     1       7.822   5.203  13.001  0.00  0.00    +0.000 A 
ATOM     25  C   UNL     1       7.399   5.166  14.335  0.00  0.00    +0.000 A 
ENDBRANCH   6  20
BRANCH   6  26
ATOM     26  O   UNL     1       6.865   3.777  16.992  0.00  0.00    +0.000 OA
ATOM     27  H   UNL     1       7.652   3.685  16.431  0.00  0.00    +0.000 HD
ENDBRANCH   6  26
TORSDOF 3
ENDMDL
MODEL 2
REMARK VINA RESULT:      -9.4      1.763      3.953
REMARK  Name = 
REMARK  3 active torsions:
REMARK  status: ('A' for Active; 'I' for Inactive)
REMARK    1  A    between atoms: C_4  and  C_5
REMARK    2  A    between atoms: C_10  and  O_11
REMARK    3  A    between atoms: C_10  and  C_12
REMARK                            x       y       z     vdW  Elec       q    Type
REMARK                         _______ _______ _______ _____ _____    ______ ____
ROOT
ATOM      1  C   UNL     1       3.068   3.347  18.113  0.00  0.00    +0.000 C 
ATOM      2  O   UNL     1       3.489   2.190  18.140  0.00  0.00    +0.000 OA
ATOM      3  N   UNL     1       3.749   4.347  17.422  0.00  0.00    +0.000 N 
ATOM      4  C   UNL     1       3.336   5.747  17.346  0.00  0.00    +0.000 C 
ATOM      5  C   UNL     1       4.440   6.646  17.898  0.00  0.00    +0.000 C 
ATOM      6  C   UNL     1       5.743   6.450  17.096  0.00  0.00    +0.000 C 
ATOM      7  C   UNL     1       6.150   4.944  17.147  0.00  0.00    +0.000 C 
ATOM      8  C   UNL     1       7.415   4.565  16.365  0.00  0.00    +0.000 C 
ATOM      9  C   UNL     1       7.289   4.793  14.872  0.00  0.00    +0.000 C 
ATOM     10  C   UNL     1       5.996   4.267  14.254  0.00  0.00    +0.000 C 
ATOM     11  C   UNL     1       4.802   3.945  15.168  0.00  0.00    +0.000 C 
ATOM     12  C   UNL     1       5.007   4.016  16.696  0.00  0.00    +0.000 C 
ENDROOT
BRANCH   1  16
ATOM     13  O   UNL     1       2.163   3.280  22.314  0.00  0.00    +0.000 OA
ATOM     14  C   UNL     1       1.827   3.247  21.144  0.00  0.00    +0.000 C 
ATOM     15  C   UNL     1       1.904   4.386  20.169  0.00  0.00    +0.000 C 
ATOM     16  C   UNL     1       1.741   3.704  18.804  0.00  0.00    +0.000 C 
ATOM     17  C   UNL     1       0.916   2.463  19.141  0.00  0.00    +0.000 C 
ATOM     18  N   UNL     1       1.253   2.177  20.506  0.00  0.00    +0.000 N 
ATOM     19  H   UNL     1       1.091   1.298  20.987  0.00  0.00    +0.000 HD
ENDBRANCH   1  16
BRANCH   6  20
ATOM     20  C   UNL     1       6.844   7.366  17.642  0.00  0.00    +0.000 A 
ATOM     21  C   UNL     1       7.767   6.891  18.595  0.00  0.00    +0.000 A 
ATOM     22  C   UNL     1       8.768   7.720  19.104  0.00  0.00    +0.000 A 
ATOM     23  C   UNL     1       8.864   9.041  18.679  0.00  0.00    +0.000 A 
ATOM     24  C   UNL     1       7.977   9.529  17.731  0.00  0.00    +0.000 A 
ATOM     25  C   UNL     1       6.979   8.697  17.209  0.00  0.00    +0.000 A 
ENDBRANCH   6  20
BRANCH   6  26
ATOM     26  O   UNL     1       5.421   6.832  15.752  0.00  0.00    +0.000 OA
ATOM     27  H   UNL     1       4.650   6.310  15.476  0.00  0.00    +0.000 HD
ENDBRANCH   6  26
TORSDOF 3
ENDMDL
MODEL 3
REMARK VINA RESULT:      -9.4      1.286      1.529
REMARK  Name = 
REMARK  3 active torsions:
REMARK  status: ('A' for Active; 'I' for Inactive)
REMARK    1  A    between atoms: C_4  and  C_5
REMARK    2  A    between atoms: C_10  and  O_11
REMARK    3  A    between atoms: C_10  and  C_12
REMARK                            x       y       z     vdW  Elec       q    Type
REMARK                         _______ _______ _______ _____ _____    ______ ____
ROOT
ATOM      1  C   UNL     1       3.482   4.370  19.816  0.00  0.00    +0.000 C 
ATOM      2  O   UNL     1       3.007   5.453  20.161  0.00  0.00    +0.000 OA
ATOM      3  N   UNL     1       4.626   4.304  19.023  0.00  0.00    +0.000 N 
ATOM      4  C   UNL     1       5.252   3.070  18.552  0.00  0.00    +0.000 C 
ATOM      5  C   UNL     1       5.304   3.063  17.026  0.00  0.00    +0.000 C 
ATOM      6  C   UNL     1       6.105   4.276  16.510  0.00  0.00    +0.000 C 
ATOM      7  C   UNL     1       5.454   5.585  17.056  0.00  0.00    +0.000 C 
ATOM      8  C   UNL     1       6.152   6.894  16.664  0.00  0.00    +0.000 C 
ATOM      9  C   UNL     1       7.562   7.009  17.208  0.00  0.00    +0.000 C 
ATOM     10  C   UNL     1       7.707   6.646  18.684  0.00  0.00    +0.000 C 
ATOM     11  C   UNL     1       6.594   5.839  19.372  0.00  0.00    +0.000 C 
ATOM     12  C   UNL     1       5.295   5.562  18.587  0.00  0.00    +0.000 C 
ENDROOT
BRANCH   1  16
ATOM     13  O   UNL     1       0.003   2.377  18.268  0.00  0.00    +0.000 OA
ATOM     14  C   UNL     1       0.800   2.606  19.159  0.00  0.00    +0.000 C 
ATOM     15  C   UNL     1       2.245   2.196  19.181  0.00  0.00    +0.000 C 
ATOM     16  C   UNL     1       2.847   3.056  20.301  0.00  0.00    +0.000 C 
ATOM     17  C   UNL     1       1.652   3.300  21.221  0.00  0.00    +0.000 C 
ATOM     18  N   UNL     1       0.516   3.228  20.348  0.00  0.00    +0.000 N 
ATOM     19  H   UNL     1      -0.415   3.576  20.554  0.00  0.00    +0.000 HD
ENDBRANCH   1  16
BRANCH   6  20
ATOM     20  C   UNL     1       6.169   4.256  14.979  0.00  0.00    +0.000 A 
ATOM     21  C   UNL     1       5.106   3.726  14.222  0.00  0.00    +0.000 A 
ATOM     22  C   UNL     1       5.159   3.696  12.828  0.00  0.00    +0.000 A 
ATOM     23  C   UNL     1       6.276   4.188  12.160  0.00  0.00    +0.000 A 
ATOM     24  C   UNL     1       7.330   4.728  12.881  0.00  0.00    +0.000 A 
ATOM     25  C   UNL     1       7.275   4.770  14.279  0.00  0.00    +0.000 A 
ENDBRANCH   6  20
BRANCH   6  26
ATOM     26  O   UNL     1       7.425   4.115  17.050  0.00  0.00    +0.000 OA
ATOM     27  H   UNL     1       7.916   3.528  16.451  0.00  0.00    +0.000 HD
ENDBRANCH   6  26
TORSDOF 3
ENDMDL
MODEL 4
REMARK VINA RESULT:      -9.0      2.518      6.909
REMARK  Name = 
REMARK  3 active torsions:
REMARK  status: ('A' for Active; 'I' for Inactive)
REMARK    1  A    between atoms: C_4  and  C_5
REMARK    2  A    between atoms: C_10  and  O_11
REMARK    3  A    between atoms: C_10  and  C_12
REMARK                            x       y       z     vdW  Elec       q    Type
REMARK                         _______ _______ _______ _____ _____    ______ ____
ROOT
ATOM      1  C   UNL     1       5.625   3.874  16.882  0.00  0.00    +0.000 C 
ATOM      2  O   UNL     1       5.137   3.241  15.945  0.00  0.00    +0.000 OA
ATOM      3  N   UNL     1       4.869   4.192  18.010  0.00  0.00    +0.000 N 
ATOM      4  C   UNL     1       5.355   4.951  19.161  0.00  0.00    +0.000 C 
ATOM      5  C   UNL     1       4.498   6.198  19.361  0.00  0.00    +0.000 C 
ATOM      6  C   UNL     1       3.023   5.806  19.588  0.00  0.00    +0.000 C 
ATOM      7  C   UNL     1       2.529   4.958  18.374  0.00  0.00    +0.000 C 
ATOM      8  C   UNL     1       1.082   4.452  18.454  0.00  0.00    +0.000 C 
ATOM      9  C   UNL     1       0.844   3.496  19.606  0.00  0.00    +0.000 C 
ATOM     10  C   UNL     1       1.895   2.398  19.751  0.00  0.00    +0.000 C 
ATOM     11  C   UNL     1       3.254   2.561  19.048  0.00  0.00    +0.000 C 
ATOM     12  C   UNL     1       3.447   3.755  18.091  0.00  0.00    +0.000 C 
ENDROOT
BRANCH   1  16
ATOM     13  O   UNL     1       7.288   7.823  17.219  0.00  0.00    +0.000 OA
ATOM     14  C   UNL     1       7.351   6.659  16.866  0.00  0.00    +0.000 C 
ATOM     15  C   UNL     1       7.453   5.465  17.771  0.00  0.00    +0.000 C 
ATOM     16  C   UNL     1       7.107   4.286  16.851  0.00  0.00    +0.000 C 
ATOM     17  C   UNL     1       7.534   4.792  15.475  0.00  0.00    +0.000 C 
ATOM     18  N   UNL     1       7.406   6.217  15.569  0.00  0.00    +0.000 N 
ATOM     19  H   UNL     1       7.367   6.864  14.787  0.00  0.00    +0.000 HD
ENDBRANCH   1  16
BRANCH   6  20
ATOM     20  C   UNL     1       2.169   7.060  19.805  0.00  0.00    +0.000 A 
ATOM     21  C   UNL     1       2.086   8.054  18.811  0.00  0.00    +0.000 A 
ATOM     22  C   UNL     1       1.317   9.203  19.003  0.00  0.00    +0.000 A 
ATOM     23  C   UNL     1       0.620   9.386  20.192  0.00  0.00    +0.000 A 
ATOM     24  C   UNL     1       0.674   8.416  21.182  0.00  0.00    +0.000 A 
ATOM     25  C   UNL     1       1.435   7.257  20.988  0.00  0.00    +0.000 A 
ENDBRANCH   6  20
BRANCH   6  26
ATOM     26  O   UNL     1       3.023   5.010  20.782  0.00  0.00    +0.000 OA
ATOM     27  H   UNL     1       2.951   4.079  20.513  0.00  0.00    +0.000 HD
ENDBRANCH   6  26
TORSDOF 3
ENDMDL
MODEL 5
REMARK VINA RESULT:      -8.9      3.841      5.625
REMARK  Name = 
REMARK  3 active torsions:
REMARK  status: ('A' for Active; 'I' for Inactive)
REMARK    1  A    between atoms: C_4  and  C_5
REMARK    2  A    between atoms: C_10  and  O_11
REMARK    3  A    between atoms: C_10  and  C_12
REMARK                            x       y       z     vdW  Elec       q    Type
REMARK                         _______ _______ _______ _____ _____    ______ ____
ROOT
ATOM      1  C   UNL     1       1.411   8.527  20.617  0.00  0.00    +0.000 C 
ATOM      2  O   UNL     1       1.390   8.360  21.838  0.00  0.00    +0.000 OA
ATOM      3  N   UNL     1       1.726   7.481  19.752  0.00  0.00    +0.000 N 
ATOM      4  C   UNL     1       1.790   7.586  18.295  0.00  0.00    +0.000 C 
ATOM      5  C   UNL     1       3.184   7.195  17.808  0.00  0.00    +0.000 C 
ATOM      6  C   UNL     1       3.516   5.750  18.235  0.00  0.00    +0.000 C 
ATOM      7  C   UNL     1       3.400   5.639  19.787  0.00  0.00    +0.000 C 
ATOM      8  C   UNL     1       3.666   4.249  20.381  0.00  0.00    +0.000 C 
ATOM      9  C   UNL     1       2.669   3.201  19.928  0.00  0.00    +0.000 C 
ATOM     10  C   UNL     1       1.208   3.638  20.001  0.00  0.00    +0.000 C 
ATOM     11  C   UNL     1       0.876   5.136  20.112  0.00  0.00    +0.000 C 
ATOM     12  C   UNL     1       2.037   6.133  20.305  0.00  0.00    +0.000 C 
ENDROOT
BRANCH   1  16
ATOM     13  O   UNL     1      -0.209  11.959  22.635  0.00  0.00    +0.000 OA
ATOM     14  C   UNL     1      -0.020  11.294  21.632  0.00  0.00    +0.000 C 
ATOM     15  C   UNL     1       1.299  11.084  20.945  0.00  0.00    +0.000 C 
ATOM     16  C   UNL     1       1.035   9.891  20.015  0.00  0.00    +0.000 C 
ATOM     17  C   UNL     1      -0.462  10.004  19.735  0.00  0.00    +0.000 C 
ATOM     18  N   UNL     1      -0.989  10.659  20.898  0.00  0.00    +0.000 N 
ATOM     19  H   UNL     1      -1.965  10.684  21.176  0.00  0.00    +0.000 HD
ENDBRANCH   1  16
BRANCH   6  20
ATOM     20  C   UNL     1       4.909   5.356  17.729  0.00  0.00    +0.000 A 
ATOM     21  C   UNL     1       5.055   4.532  16.596  0.00  0.00    +0.000 A 
ATOM     22  C   UNL     1       6.318   4.160  16.133  0.00  0.00    +0.000 A 
ATOM     23  C   UNL     1       7.461   4.598  16.794  0.00  0.00    +0.000 A 
ATOM     24  C   UNL     1       7.345   5.421  17.904  0.00  0.00    +0.000 A 
ATOM     25  C   UNL     1       6.080   5.806  18.364  0.00  0.00    +0.000 A 
ENDBRANCH   6  20
BRANCH   6  26
ATOM     26  O   UNL     1       2.524   4.930  17.602  0.00  0.00    +0.000 OA
ATOM     27  H   UNL     1       2.976   4.151  17.238  0.00  0.00    +0.000 HD
ENDBRANCH   6  26
TORSDOF 3
ENDMDL
MODEL 6
REMARK VINA RESULT:      -8.8      9.381     11.545
REMARK  Name = 
REMARK  3 active torsions:
REMARK  status: ('A' for Active; 'I' for Inactive)
REMARK    1  A    between atoms: C_4  and  C_5
REMARK    2  A    between atoms: C_10  and  O_11
REMARK    3  A    between atoms: C_10  and  C_12
REMARK                            x       y       z     vdW  Elec       q    Type
REMARK                         _______ _______ _______ _____ _____    ______ ____
ROOT
ATOM      1  C   UNL     1      -5.752  12.212  20.027  0.00  0.00    +0.000 C 
ATOM      2  O   UNL     1      -6.681  11.435  19.803  0.00  0.00    +0.000 OA
ATOM      3  N   UNL     1      -4.579  12.170  19.275  0.00  0.00    +0.000 N 
ATOM      4  C   UNL     1      -3.420  13.038  19.476  0.00  0.00    +0.000 C 
ATOM      5  C   UNL     1      -2.182  12.193  19.766  0.00  0.00    +0.000 C 
ATOM      6  C   UNL     1      -1.905  11.226  18.597  0.00  0.00    +0.000 C 
ATOM      7  C   UNL     1      -3.164  10.336  18.362  0.00  0.00    +0.000 C 
ATOM      8  C   UNL     1      -3.071   9.334  17.203  0.00  0.00    +0.000 C 
ATOM      9  C   UNL     1      -2.914   9.996  15.849  0.00  0.00    +0.000 C 
ATOM     10  C   UNL     1      -3.873  11.156  15.592  0.00  0.00    +0.000 C 
ATOM     11  C   UNL     1      -4.593  11.814  16.780  0.00  0.00    +0.000 C 
ATOM     12  C   UNL     1      -4.443  11.174  18.176  0.00  0.00    +0.000 C 
ENDROOT
BRANCH   1  16
ATOM     13  O   UNL     1      -7.212  11.754  24.043  0.00  0.00    +0.000 OA
ATOM     14  C   UNL     1      -6.974  12.431  23.059  0.00  0.00    +0.000 C 
ATOM     15  C   UNL     1      -5.611  12.787  22.538  0.00  0.00    +0.000 C 
ATOM     16  C   UNL     1      -5.888  13.290  21.115  0.00  0.00    +0.000 C 
ATOM     17  C   UNL     1      -7.315  13.827  21.217  0.00  0.00    +0.000 C 
ATOM     18  N   UNL     1      -7.908  13.054  22.269  0.00  0.00    +0.000 N 
ATOM     19  H   UNL     1      -8.902  12.960  22.452  0.00  0.00    +0.000 HD
ENDBRANCH   1  16
BRANCH   6  20
ATOM     20  C   UNL     1      -0.651  10.392  18.884  0.00  0.00    +0.000 A 
ATOM     21  C   UNL     1       0.252  10.072  17.852  0.00  0.00    +0.000 A 
ATOM     22  C   UNL     1       1.391   9.306  18.103  0.00  0.00    +0.000 A 
ATOM     23  C   UNL     1       1.649   8.838  19.387  0.00  0.00    +0.000 A 
ATOM     24  C   UNL     1       0.784   9.151  20.424  0.00  0.00    +0.000 A 
ATOM     25  C   UNL     1      -0.354   9.929  20.179  0.00  0.00    +0.000 A 
ENDBRANCH   6  20
BRANCH   6  26
ATOM     26  O   UNL     1      -1.672  12.068  17.458  0.00  0.00    +0.000 OA
ATOM     27  H   UNL     1      -2.530  12.430  17.182  0.00  0.00    +0.000 HD
ENDBRANCH   6  26
TORSDOF 3
ENDMDL
MODEL 7
REMARK VINA RESULT:      -8.6      9.199     11.369
REMARK  Name = 
REMARK  3 active torsions:
REMARK  status: ('A' for Active; 'I' for Inactive)
REMARK    1  A    between atoms: C_4  and  C_5
REMARK    2  A    between atoms: C_10  and  O_11
REMARK    3  A    between atoms: C_10  and  C_12
REMARK                            x       y       z     vdW  Elec       q    Type
REMARK                         _______ _______ _______ _____ _____    ______ ____
ROOT
ATOM      1  C   UNL     1      -5.314  12.477  20.488  0.00  0.00    +0.000 C 
ATOM      2  O   UNL     1      -6.304  11.751  20.390  0.00  0.00    +0.000 OA
ATOM      3  N   UNL     1      -4.235  12.346  19.616  0.00  0.00    +0.000 N 
ATOM      4  C   UNL     1      -3.014  13.149  19.664  0.00  0.00    +0.000 C 
ATOM      5  C   UNL     1      -1.801  12.240  19.847  0.00  0.00    +0.000 C 
ATOM      6  C   UNL     1      -1.707  11.229  18.686  0.00  0.00    +0.000 C 
ATOM      7  C   UNL     1      -3.033  10.409  18.617  0.00  0.00    +0.000 C 
ATOM      8  C   UNL     1      -3.123   9.374  17.487  0.00  0.00    +0.000 C 
ATOM      9  C   UNL     1      -3.077   9.990  16.103  0.00  0.00    +0.000 C 
ATOM     10  C   UNL     1      -3.992  11.198  15.913  0.00  0.00    +0.000 C 
ATOM     11  C   UNL     1      -4.540  11.927  17.151  0.00  0.00    +0.000 C 
ATOM     12  C   UNL     1      -4.275  11.315  18.542  0.00  0.00    +0.000 C 
ENDROOT
BRANCH   1  16
ATOM     13  O   UNL     1      -5.305  12.059  24.765  0.00  0.00    +0.000 OA
ATOM     14  C   UNL     1      -5.513  12.699  23.751  0.00  0.00    +0.000 C 
ATOM     15  C   UNL     1      -4.470  13.227  22.808  0.00  0.00    +0.000 C 
ATOM     16  C   UNL     1      -5.271  13.589  21.550  0.00  0.00    +0.000 C 
ATOM     17  C   UNL     1      -6.657  13.904  22.109  0.00  0.00    +0.000 C 
ATOM     18  N   UNL     1      -6.741  13.118  23.305  0.00  0.00    +0.000 N 
ATOM     19  H   UNL     1      -7.593  12.884  23.805  0.00  0.00    +0.000 HD
ENDBRANCH   1  16
BRANCH   6  20
ATOM     20  C   UNL     1      -0.478  10.330  18.864  0.00  0.00    +0.000 A 
ATOM     21  C   UNL     1      -0.128   9.835  20.135  0.00  0.00    +0.000 A 
ATOM     22  C   UNL     1       0.993   9.023  20.309  0.00  0.00    +0.000 A 
ATOM     23  C   UNL     1       1.792   8.692  19.219  0.00  0.00    +0.000 A 
ATOM     24  C   UNL     1       1.461   9.154  17.954  0.00  0.00    +0.000 A 
ATOM     25  C   UNL     1       0.330   9.960  17.774  0.00  0.00    +0.000 A 
ENDBRANCH   6  20
BRANCH   6  26
ATOM     26  O   UNL     1      -1.553  12.025  17.502  0.00  0.00    +0.000 OA
ATOM     27  H   UNL     1      -0.712  11.772  17.087  0.00  0.00    +0.000 HD
ENDBRANCH   6  26
TORSDOF 3
ENDMDL
MODEL 8
REMARK VINA RESULT:      -8.3      9.543     11.807
REMARK  Name = 
REMARK  3 active torsions:
REMARK  status: ('A' for Active; 'I' for Inactive)
REMARK    1  A    between atoms: C_4  and  C_5
REMARK    2  A    between atoms: C_10  and  O_11
REMARK    3  A    between atoms: C_10  and  C_12
REMARK                            x       y       z     vdW  Elec       q    Type
REMARK                         _______ _______ _______ _____ _____    ______ ____
ROOT
ATOM      1  C   UNL     1       2.647  14.623  20.108  0.00  0.00    +0.000 C 
ATOM      2  O   UNL     1       3.405  14.076  20.910  0.00  0.00    +0.000 OA
ATOM      3  N   UNL     1       1.278  14.363  20.116  0.00  0.00    +0.000 N 
ATOM      4  C   UNL     1       0.305  14.952  19.196  0.00  0.00    +0.000 C 
ATOM      5  C   UNL     1      -0.417  13.847  18.427  0.00  0.00    +0.000 C 
ATOM      6  C   UNL     1      -1.141  12.898  19.404  0.00  0.00    +0.000 C 
ATOM      7  C   UNL     1      -0.101  12.312  20.409  0.00  0.00    +0.000 C 
ATOM      8  C   UNL     1      -0.663  11.367  21.481  0.00  0.00    +0.000 C 
ATOM      9  C   UNL     1      -1.643  12.041  22.420  0.00  0.00    +0.000 C 
ATOM     10  C   UNL     1      -1.180  13.391  22.963  0.00  0.00    +0.000 C 
ATOM     11  C   UNL     1      -0.035  14.133  22.254  0.00  0.00    +0.000 C 
ATOM     12  C   UNL     1       0.713  13.413  21.114  0.00  0.00    +0.000 C 
ENDROOT
BRANCH   1  16
ATOM     13  O   UNL     1       6.147  14.318  17.633  0.00  0.00    +0.000 OA
ATOM     14  C   UNL     1       5.298  14.969  18.214  0.00  0.00    +0.000 C 
ATOM     15  C   UNL     1       3.840  15.039  17.858  0.00  0.00    +0.000 C 
ATOM     16  C   UNL     1       3.194  15.654  19.106  0.00  0.00    +0.000 C 
ATOM     17  C   UNL     1       4.328  16.488  19.700  0.00  0.00    +0.000 C 
ATOM     18  N   UNL     1       5.520  15.817  19.269  0.00  0.00    +0.000 N 
ATOM     19  H   UNL     1       6.447  15.937  19.665  0.00  0.00    +0.000 HD
ENDBRANCH   1  16
BRANCH   6  20
ATOM     20  C   UNL     1      -1.878  11.801  18.628  0.00  0.00    +0.000 A 
ATOM     21  C   UNL     1      -3.286  11.749  18.620  0.00  0.00    +0.000 A 
ATOM     22  C   UNL     1      -3.966  10.749  17.923  0.00  0.00    +0.000 A 
ATOM     23  C   UNL     1      -3.256   9.777  17.226  0.00  0.00    +0.000 A 
ATOM     24  C   UNL     1      -1.870   9.814  17.206  0.00  0.00    +0.000 A 
ATOM     25  C   UNL     1      -1.185  10.822  17.894  0.00  0.00    +0.000 A 
ENDBRANCH   6  20
BRANCH   6  26
ATOM     26  O   UNL     1      -2.091  13.720  20.096  0.00  0.00    +0.000 OA
ATOM     27  H   UNL     1      -2.020  13.516  21.043  0.00  0.00    +0.000 HD
ENDBRANCH   6  26
TORSDOF 3
ENDMDL
MODEL 9
REMARK VINA RESULT:      -8.3      5.157      8.039
REMARK  Name = 
REMARK  3 active torsions:
REMARK  status: ('A' for Active; 'I' for Inactive)
REMARK    1  A    between atoms: C_4  and  C_5
REMARK    2  A    between atoms: C_10  and  O_11
REMARK    3  A    between atoms: C_10  and  C_12
REMARK                            x       y       z     vdW  Elec       q    Type
REMARK                         _______ _______ _______ _____ _____    ______ ____
ROOT
ATOM      1  C   UNL     1       2.565   6.216  19.500  0.00  0.00    +0.000 C 
ATOM      2  O   UNL     1       2.251   5.336  20.302  0.00  0.00    +0.000 OA
ATOM      3  N   UNL     1       2.130   7.530  19.663  0.00  0.00    +0.000 N 
ATOM      4  C   UNL     1       2.438   8.636  18.758  0.00  0.00    +0.000 C 
ATOM      5  C   UNL     1       1.145   9.241  18.217  0.00  0.00    +0.000 C 
ATOM      6  C   UNL     1       0.266   9.754  19.376  0.00  0.00    +0.000 C 
ATOM      7  C   UNL     1      -0.019   8.576  20.359  0.00  0.00    +0.000 C 
ATOM      8  C   UNL     1      -0.857   8.923  21.597  0.00  0.00    +0.000 C 
ATOM      9  C   UNL     1      -0.186   9.926  22.514  0.00  0.00    +0.000 C 
ATOM     10  C   UNL     1       1.280   9.628  22.820  0.00  0.00    +0.000 C 
ATOM     11  C   UNL     1       2.052   8.651  21.918  0.00  0.00    +0.000 C 
ATOM     12  C   UNL     1       1.274   7.884  20.829  0.00  0.00    +0.000 C 
ENDROOT
BRANCH   1  16
ATOM     13  O   UNL     1       3.678   2.351  17.986  0.00  0.00    +0.000 OA
ATOM     14  C   UNL     1       3.876   3.543  18.133  0.00  0.00    +0.000 C 
ATOM     15  C   UNL     1       3.082   4.656  17.511  0.00  0.00    +0.000 C 
ATOM     16  C   UNL     1       3.497   5.892  18.320  0.00  0.00    +0.000 C 
ATOM     17  C   UNL     1       4.909   5.535  18.783  0.00  0.00    +0.000 C 
ATOM     18  N   UNL     1       4.907   4.102  18.844  0.00  0.00    +0.000 N 
ATOM     19  H   UNL     1       5.582   3.527  19.338  0.00  0.00    +0.000 HD
ENDBRANCH   1  16
BRANCH   6  20
ATOM     20  C   UNL     1      -1.024  10.375  18.828  0.00  0.00    +0.000 A 
ATOM     21  C   UNL     1      -1.595  11.505  19.444  0.00  0.00    +0.000 A 
ATOM     22  C   UNL     1      -2.774  12.073  18.958  0.00  0.00    +0.000 A 
ATOM     23  C   UNL     1      -3.410  11.521  17.851  0.00  0.00    +0.000 A 
ATOM     24  C   UNL     1      -2.861  10.417  17.217  0.00  0.00    +0.000 A 
ATOM     25  C   UNL     1      -1.672   9.852  17.695  0.00  0.00    +0.000 A 
ENDBRANCH   6  20
BRANCH   6  26
ATOM     26  O   UNL     1       1.049  10.765  20.026  0.00  0.00    +0.000 OA
ATOM     27  H   UNL     1       0.484  11.548  20.134  0.00  0.00    +0.000 HD
ENDBRANCH   6  26
TORSDOF 3
ENDMDL
