MODEL 1
REMARK VINA RESULT:      -7.6      0.000      0.000
REMARK  Name = 
REMARK  8 active torsions:
REMARK  status: ('A' for Active; 'I' for Inactive)
REMARK    1  A    between atoms: C_1  and  O_2
REMARK    2  A    between atoms: O_2  and  C_3
REMARK    3  A    between atoms: N_7  and  C_8
REMARK    4  A    between atoms: C_8  and  C_9
REMARK    5  A    between atoms: C_13  and  O_14
REMARK    6  A    between atoms: O_14  and  C_15
REMARK    7  A    between atoms: C_15  and  C_16
REMARK    8  A    between atoms: C_21  and  C_22
REMARK                            x       y       z     vdW  Elec       q    Type
REMARK                         _______ _______ _______ _____ _____    ______ ____
ROOT
ATOM      1  C   UNL     1       2.708   3.203  17.812  0.00  0.00    +0.000 C 
ATOM      2  O   UNL     1       1.969   3.409  16.846  0.00  0.00    +0.000 OA
ATOM      3  N   UNL     1       2.211   3.170  19.096  0.00  0.00    +0.000 N 
ATOM      4  C   UNL     1       0.832   3.396  19.498  0.00  0.00    +0.000 C 
ATOM      5  C   UNL     1       1.358   4.174  20.714  0.00  0.00    +0.000 C 
ATOM      6  C   UNL     1       2.774   3.671  20.345  0.00  0.00    +0.000 C 
ENDROOT
BRANCH   1   7
ATOM      7  C   UNL     1       4.186   2.816  17.637  0.00  0.00    +0.000 C 
BRANCH   7  12
ATOM      8  C   UNL     1       6.670   5.699  17.378  0.00  0.00    +0.000 A 
ATOM      9  C   UNL     1       6.664   5.858  16.044  0.00  0.00    +0.000 A 
ATOM     10  C   UNL     1       6.017   4.898  15.178  0.00  0.00    +0.000 A 
ATOM     11  C   UNL     1       5.202   3.982  15.705  0.00  0.00    +0.000 A 
ATOM     12  N   UNL     1       5.073   3.837  17.077  0.00  0.00    +0.000 N 
ATOM     13  C   UNL     1       5.976   4.477  17.945  0.00  0.00    +0.000 A 
ATOM     14  O   UNL     1       6.184   4.078  19.086  0.00  0.00    +0.000 OA
BRANCH   8  16
ATOM     15  C   UNL     1       7.383   7.960  17.526  0.00  0.00    +0.000 C 
ATOM     16  O   UNL     1       7.245   6.695  18.155  0.00  0.00    +0.000 OA
ENDBRANCH   8  16
ENDBRANCH   7  12
ENDBRANCH   1   7
BRANCH   5  17
ATOM     17  O   UNL     1       1.151   5.613  20.711  0.00  0.00    +0.000 OA
BRANCH  17  18
ATOM     18  C   UNL     1       2.323   6.407  20.516  0.00  0.00    +0.000 C 
BRANCH  18  19
ATOM     19  C   UNL     1       1.969   7.669  19.773  0.00  0.00    +0.000 A 
ATOM     20  C   UNL     1       1.187   8.638  20.425  0.00  0.00    +0.000 A 
ATOM     21  C   UNL     1       0.825   9.820  19.778  0.00  0.00    +0.000 A 
ATOM     22  C   UNL     1       1.257  10.059  18.478  0.00  0.00    +0.000 A 
ATOM     23  C   UNL     1       2.043   9.113  17.820  0.00  0.00    +0.000 A 
ATOM     24  C   UNL     1       2.405   7.913  18.452  0.00  0.00    +0.000 A 
ATOM     25  C   UNL     1       3.220   6.904  17.688  0.00  0.00    +0.000 C 
ENDBRANCH  18  19
ENDBRANCH  17  18
ENDBRANCH   5  17
TORSDOF 6
ENDMDL
MODEL 2
REMARK VINA RESULT:      -7.6      0.716      1.550
REMARK  Name = 
REMARK  8 active torsions:
REMARK  status: ('A' for Active; 'I' for Inactive)
REMARK    1  A    between atoms: C_1  and  O_2
REMARK    2  A    between atoms: O_2  and  C_3
REMARK    3  A    between atoms: N_7  and  C_8
REMARK    4  A    between atoms: C_8  and  C_9
REMARK    5  A    between atoms: C_13  and  O_14
REMARK    6  A    between atoms: O_14  and  C_15
REMARK    7  A    between atoms: C_15  and  C_16
REMARK    8  A    between atoms: C_21  and  C_22
REMARK                            x       y       z     vdW  Elec       q    Type
REMARK                         _______ _______ _______ _____ _____    ______ ____
ROOT
ATOM      1  C   UNL     1       2.862   3.053  17.691  0.00  0.00    +0.000 C 
ATOM      2  O   UNL     1       2.160   3.273  16.701  0.00  0.00    +0.000 OA
ATOM      3  N   UNL     1       2.303   2.880  18.938  0.00  0.00    +0.000 N 
ATOM      4  C   UNL     1       0.891   2.963  19.274  0.00  0.00    +0.000 C 
ATOM      5  C   UNL     1       1.285   3.684  20.573  0.00  0.00    +0.000 C 
ATOM      6  C   UNL     1       2.756   3.327  20.251  0.00  0.00    +0.000 C 
ENDROOT
BRANCH   1   7
ATOM      7  C   UNL     1       4.374   2.801  17.574  0.00  0.00    +0.000 C 
BRANCH   7  12
ATOM      8  C   UNL     1       6.219   6.002  16.624  0.00  0.00    +0.000 A 
ATOM      9  C   UNL     1       6.509   5.702  15.348  0.00  0.00    +0.000 A 
ATOM     10  C   UNL     1       6.299   4.371  14.824  0.00  0.00    +0.000 A 
ATOM     11  C   UNL     1       5.580   3.494  15.527  0.00  0.00    +0.000 A 
ATOM     12  N   UNL     1       5.149   3.781  16.812  0.00  0.00    +0.000 N 
ATOM     13  C   UNL     1       5.665   4.895  17.500  0.00  0.00    +0.000 A 
ATOM     14  O   UNL     1       5.662   4.969  18.724  0.00  0.00    +0.000 OA
BRANCH   8  16
ATOM     15  C   UNL     1       7.645   7.641  17.583  0.00  0.00    +0.000 C 
ATOM     16  O   UNL     1       6.374   7.316  17.042  0.00  0.00    +0.000 OA
ENDBRANCH   8  16
ENDBRANCH   7  12
ENDBRANCH   1   7
BRANCH   5  17
ATOM     17  O   UNL     1       0.958   5.097  20.662  0.00  0.00    +0.000 OA
BRANCH  17  18
ATOM     18  C   UNL     1       2.062   5.975  20.891  0.00  0.00    +0.000 C 
BRANCH  18  19
ATOM     19  C   UNL     1       2.057   7.083  19.870  0.00  0.00    +0.000 A 
ATOM     20  C   UNL     1       2.720   6.876  18.648  0.00  0.00    +0.000 A 
ATOM     21  C   UNL     1       2.752   7.873  17.673  0.00  0.00    +0.000 A 
ATOM     22  C   UNL     1       2.105   9.083  17.897  0.00  0.00    +0.000 A 
ATOM     23  C   UNL     1       1.433   9.302  19.099  0.00  0.00    +0.000 A 
ATOM     24  C   UNL     1       1.401   8.314  20.096  0.00  0.00    +0.000 A 
ATOM     25  C   UNL     1       0.699   8.609  21.394  0.00  0.00    +0.000 C 
ENDBRANCH  18  19
ENDBRANCH  17  18
ENDBRANCH   5  17
TORSDOF 6
ENDMDL
MODEL 3
REMARK VINA RESULT:      -7.5      3.020      4.601
REMARK  Name = 
REMARK  8 active torsions:
REMARK  status: ('A' for Active; 'I' for Inactive)
REMARK    1  A    between atoms: C_1  and  O_2
REMARK    2  A    between atoms: O_2  and  C_3
REMARK    3  A    between atoms: N_7  and  C_8
REMARK    4  A    between atoms: C_8  and  C_9
REMARK    5  A    between atoms: C_13  and  O_14
REMARK    6  A    between atoms: O_14  and  C_15
REMARK    7  A    between atoms: C_15  and  C_16
REMARK    8  A    between atoms: C_21  and  C_22
REMARK                            x       y       z     vdW  Elec       q    Type
REMARK                         _______ _______ _______ _____ _____    ______ ____
ROOT
ATOM      1  C   UNL     1       2.285   6.024  19.076  0.00  0.00    +0.000 C 
ATOM      2  O   UNL     1       1.701   5.347  19.926  0.00  0.00    +0.000 OA
ATOM      3  N   UNL     1       2.381   7.392  19.197  0.00  0.00    +0.000 N 
ATOM      4  C   UNL     1       1.813   8.211  20.257  0.00  0.00    +0.000 C 
ATOM      5  C   UNL     1       1.453   9.262  19.195  0.00  0.00    +0.000 C 
ATOM      6  C   UNL     1       2.297   8.443  18.188  0.00  0.00    +0.000 C 
ENDROOT
BRANCH   1   7
ATOM      7  C   UNL     1       3.072   5.379  17.923  0.00  0.00    +0.000 C 
BRANCH   7  12
ATOM      8  C   UNL     1       6.727   5.827  16.925  0.00  0.00    +0.000 A 
ATOM      9  C   UNL     1       7.302   5.479  18.087  0.00  0.00    +0.000 A 
ATOM     10  C   UNL     1       6.516   5.292  19.287  0.00  0.00    +0.000 A 
ATOM     11  C   UNL     1       5.187   5.215  19.197  0.00  0.00    +0.000 A 
ATOM     12  N   UNL     1       4.532   5.452  18.000  0.00  0.00    +0.000 N 
ATOM     13  C   UNL     1       5.223   6.021  16.914  0.00  0.00    +0.000 A 
ATOM     14  O   UNL     1       4.649   6.627  16.015  0.00  0.00    +0.000 OA
BRANCH   8  16
ATOM     15  C   UNL     1       7.261   4.964  14.779  0.00  0.00    +0.000 C 
ATOM     16  O   UNL     1       7.528   5.917  15.796  0.00  0.00    +0.000 OA
ENDBRANCH   8  16
ENDBRANCH   7  12
ENDBRANCH   1   7
BRANCH   5  17
ATOM     17  O   UNL     1       0.042   9.425  18.887  0.00  0.00    +0.000 OA
BRANCH  17  18
ATOM     18  C   UNL     1      -0.409  10.773  18.740  0.00  0.00    +0.000 C 
BRANCH  18  19
ATOM     19  C   UNL     1      -1.746  10.793  18.046  0.00  0.00    +0.000 A 
ATOM     20  C   UNL     1      -1.912  10.028  16.879  0.00  0.00    +0.000 A 
ATOM     21  C   UNL     1      -3.127  10.020  16.194  0.00  0.00    +0.000 A 
ATOM     22  C   UNL     1      -4.200  10.762  16.677  0.00  0.00    +0.000 A 
ATOM     23  C   UNL     1      -4.056  11.519  17.839  0.00  0.00    +0.000 A 
ATOM     24  C   UNL     1      -2.837  11.548  18.533  0.00  0.00    +0.000 A 
ATOM     25  C   UNL     1      -2.716  12.412  19.760  0.00  0.00    +0.000 C 
ENDBRANCH  18  19
ENDBRANCH  17  18
ENDBRANCH   5  17
TORSDOF 6
ENDMDL
MODEL 4
REMARK VINA RESULT:      -7.4      0.873      1.641
REMARK  Name = 
REMARK  8 active torsions:
REMARK  status: ('A' for Active; 'I' for Inactive)
REMARK    1  A    between atoms: C_1  and  O_2
REMARK    2  A    between atoms: O_2  and  C_3
REMARK    3  A    between atoms: N_7  and  C_8
REMARK    4  A    between atoms: C_8  and  C_9
REMARK    5  A    between atoms: C_13  and  O_14
REMARK    6  A    between atoms: O_14  and  C_15
REMARK    7  A    between atoms: C_15  and  C_16
REMARK    8  A    between atoms: C_21  and  C_22
REMARK                            x       y       z     vdW  Elec       q    Type
REMARK                         _______ _______ _______ _____ _____    ______ ____
ROOT
ATOM      1  C   UNL     1       3.171   3.337  17.898  0.00  0.00    +0.000 C 
ATOM      2  O   UNL     1       2.404   3.218  16.938  0.00  0.00    +0.000 OA
ATOM      3  N   UNL     1       2.702   3.300  19.192  0.00  0.00    +0.000 N 
ATOM      4  C   UNL     1       1.316   3.165  19.610  0.00  0.00    +0.000 C 
ATOM      5  C   UNL     1       1.596   4.187  20.724  0.00  0.00    +0.000 C 
ATOM      6  C   UNL     1       3.097   4.073  20.366  0.00  0.00    +0.000 C 
ENDROOT
BRANCH   1   7
ATOM      7  C   UNL     1       4.697   3.371  17.719  0.00  0.00    +0.000 C 
BRANCH   7  12
ATOM      8  C   UNL     1       6.976   6.428  17.604  0.00  0.00    +0.000 A 
ATOM      9  C   UNL     1       6.342   7.122  16.645  0.00  0.00    +0.000 A 
ATOM     10  C   UNL     1       5.282   6.524  15.863  0.00  0.00    +0.000 A 
ATOM     11  C   UNL     1       4.750   5.365  16.255  0.00  0.00    +0.000 A 
ATOM     12  N   UNL     1       5.285   4.648  17.313  0.00  0.00    +0.000 N 
ATOM     13  C   UNL     1       6.543   4.994  17.839  0.00  0.00    +0.000 A 
ATOM     14  O   UNL     1       7.241   4.193  18.452  0.00  0.00    +0.000 OA
BRANCH   8  16
ATOM     15  C   UNL     1       8.152   8.446  18.033  0.00  0.00    +0.000 C 
ATOM     16  O   UNL     1       7.931   7.085  18.367  0.00  0.00    +0.000 OA
ENDBRANCH   8  16
ENDBRANCH   7  12
ENDBRANCH   1   7
BRANCH   5  17
ATOM     17  O   UNL     1       0.985   5.497  20.578  0.00  0.00    +0.000 OA
BRANCH  17  18
ATOM     18  C   UNL     1       1.791   6.605  20.984  0.00  0.00    +0.000 C 
BRANCH  18  19
ATOM     19  C   UNL     1       1.786   7.663  19.910  0.00  0.00    +0.000 A 
ATOM     20  C   UNL     1       2.439   7.393  18.695  0.00  0.00    +0.000 A 
ATOM     21  C   UNL     1       2.470   8.342  17.673  0.00  0.00    +0.000 A 
ATOM     22  C   UNL     1       1.834   9.566  17.844  0.00  0.00    +0.000 A 
ATOM     23  C   UNL     1       1.173   9.847  19.039  0.00  0.00    +0.000 A 
ATOM     24  C   UNL     1       1.142   8.908  20.082  0.00  0.00    +0.000 A 
ATOM     25  C   UNL     1       0.452   9.271  21.369  0.00  0.00    +0.000 C 
ENDBRANCH  18  19
ENDBRANCH  17  18
ENDBRANCH   5  17
TORSDOF 6
ENDMDL
MODEL 5
REMARK VINA RESULT:      -7.4      3.162      6.997
REMARK  Name = 
REMARK  8 active torsions:
REMARK  status: ('A' for Active; 'I' for Inactive)
REMARK    1  A    between atoms: C_1  and  O_2
REMARK    2  A    between atoms: O_2  and  C_3
REMARK    3  A    between atoms: N_7  and  C_8
REMARK    4  A    between atoms: C_8  and  C_9
REMARK    5  A    between atoms: C_13  and  O_14
REMARK    6  A    between atoms: O_14  and  C_15
REMARK    7  A    between atoms: C_15  and  C_16
REMARK    8  A    between atoms: C_21  and  C_22
REMARK                            x       y       z     vdW  Elec       q    Type
REMARK                         _______ _______ _______ _____ _____    ______ ____
ROOT
ATOM      1  C   UNL     1       5.385   5.773  18.628  0.00  0.00    +0.000 C 
ATOM      2  O   UNL     1       5.467   5.385  19.796  0.00  0.00    +0.000 OA
ATOM      3  N   UNL     1       6.494   6.219  17.945  0.00  0.00    +0.000 N 
ATOM      4  C   UNL     1       7.846   6.335  18.468  0.00  0.00    +0.000 C 
ATOM      5  C   UNL     1       7.987   7.655  17.694  0.00  0.00    +0.000 C 
ATOM      6  C   UNL     1       6.647   7.318  16.997  0.00  0.00    +0.000 C 
ENDROOT
BRANCH   1   7
ATOM      7  C   UNL     1       4.086   5.634  17.816  0.00  0.00    +0.000 C 
BRANCH   7  12
ATOM      8  C   UNL     1       1.594   3.368  19.606  0.00  0.00    +0.000 A 
ATOM      9  C   UNL     1       1.695   2.286  18.818  0.00  0.00    +0.000 A 
ATOM     10  C   UNL     1       2.416   2.335  17.565  0.00  0.00    +0.000 A 
ATOM     11  C   UNL     1       3.201   3.381  17.299  0.00  0.00    +0.000 A 
ATOM     12  N   UNL     1       3.231   4.489  18.131  0.00  0.00    +0.000 N 
ATOM     13  C   UNL     1       2.259   4.647  19.137  0.00  0.00    +0.000 A 
ATOM     14  O   UNL     1       1.972   5.743  19.606  0.00  0.00    +0.000 OA
BRANCH   8  16
ATOM     15  C   UNL     1       1.720   2.628  21.859  0.00  0.00    +0.000 C 
ATOM     16  O   UNL     1       0.952   3.232  20.829  0.00  0.00    +0.000 OA
ENDBRANCH   8  16
ENDBRANCH   7  12
ENDBRANCH   1   7
BRANCH   5  17
ATOM     17  O   UNL     1       8.027   8.875  18.482  0.00  0.00    +0.000 OA
BRANCH  17  18
ATOM     18  C   UNL     1       8.794   9.946  17.928  0.00  0.00    +0.000 C 
BRANCH  18  19
ATOM     19  C   UNL     1       9.420  10.755  19.035  0.00  0.00    +0.000 A 
ATOM     20  C   UNL     1       8.880  10.658  20.329  0.00  0.00    +0.000 A 
ATOM     21  C   UNL     1       9.418  11.393  21.386  0.00  0.00    +0.000 A 
ATOM     22  C   UNL     1      10.514  12.219  21.169  0.00  0.00    +0.000 A 
ATOM     23  C   UNL     1      11.070  12.319  19.894  0.00  0.00    +0.000 A 
ATOM     24  C   UNL     1      10.534  11.597  18.816  0.00  0.00    +0.000 A 
ATOM     25  C   UNL     1      11.139  11.768  17.449  0.00  0.00    +0.000 C 
ENDBRANCH  18  19
ENDBRANCH  17  18
ENDBRANCH   5  17
TORSDOF 6
ENDMDL
MODEL 6
REMARK VINA RESULT:      -7.2      0.990      1.454
REMARK  Name = 
REMARK  8 active torsions:
REMARK  status: ('A' for Active; 'I' for Inactive)
REMARK    1  A    between atoms: C_1  and  O_2
REMARK    2  A    between atoms: O_2  and  C_3
REMARK    3  A    between atoms: N_7  and  C_8
REMARK    4  A    between atoms: C_8  and  C_9
REMARK    5  A    between atoms: C_13  and  O_14
REMARK    6  A    between atoms: O_14  and  C_15
REMARK    7  A    between atoms: C_15  and  C_16
REMARK    8  A    between atoms: C_21  and  C_22
REMARK                            x       y       z     vdW  Elec       q    Type
REMARK                         _______ _______ _______ _____ _____    ______ ____
ROOT
ATOM      1  C   UNL     1       2.645   3.431  18.277  0.00  0.00    +0.000 C 
ATOM      2  O   UNL     1       1.705   3.151  17.529  0.00  0.00    +0.000 OA
ATOM      3  N   UNL     1       2.428   4.008  19.509  0.00  0.00    +0.000 N 
ATOM      4  C   UNL     1       1.144   4.393  20.072  0.00  0.00    +0.000 C 
ATOM      5  C   UNL     1       1.816   5.656  20.633  0.00  0.00    +0.000 C 
ATOM      6  C   UNL     1       3.175   5.044  20.216  0.00  0.00    +0.000 C 
ENDROOT
BRANCH   1   7
ATOM      7  C   UNL     1       4.090   3.012  17.958  0.00  0.00    +0.000 C 
BRANCH   7  12
ATOM      8  C   UNL     1       6.652   5.786  17.420  0.00  0.00    +0.000 A 
ATOM      9  C   UNL     1       6.461   5.992  16.107  0.00  0.00    +0.000 A 
ATOM     10  C   UNL     1       5.647   5.094  15.318  0.00  0.00    +0.000 A 
ATOM     11  C   UNL     1       4.872   4.198  15.932  0.00  0.00    +0.000 A 
ATOM     12  N   UNL     1       4.936   4.010  17.303  0.00  0.00    +0.000 N 
ATOM     13  C   UNL     1       5.987   4.577  18.048  0.00  0.00    +0.000 A 
ATOM     14  O   UNL     1       6.338   4.129  19.134  0.00  0.00    +0.000 OA
BRANCH   8  16
ATOM     15  C   UNL     1       7.590   7.967  17.475  0.00  0.00    +0.000 C 
ATOM     16  O   UNL     1       7.382   6.727  18.133  0.00  0.00    +0.000 OA
ENDBRANCH   8  16
ENDBRANCH   7  12
ENDBRANCH   1   7
BRANCH   5  17
ATOM     17  O   UNL     1       1.450   6.920  20.016  0.00  0.00    +0.000 OA
BRANCH  17  18
ATOM     18  C   UNL     1       1.704   8.088  20.799  0.00  0.00    +0.000 C 
BRANCH  18  19
ATOM     19  C   UNL     1       0.862   9.234  20.300  0.00  0.00    +0.000 A 
ATOM     20  C   UNL     1      -0.097   9.792  21.163  0.00  0.00    +0.000 A 
ATOM     21  C   UNL     1      -0.907  10.848  20.746  0.00  0.00    +0.000 A 
ATOM     22  C   UNL     1      -0.758  11.373  19.467  0.00  0.00    +0.000 A 
ATOM     23  C   UNL     1       0.195  10.839  18.601  0.00  0.00    +0.000 A 
ATOM     24  C   UNL     1       1.011   9.768  19.000  0.00  0.00    +0.000 A 
ATOM     25  C   UNL     1       1.997   9.196  18.018  0.00  0.00    +0.000 C 
ENDBRANCH  18  19
ENDBRANCH  17  18
ENDBRANCH   5  17
TORSDOF 6
ENDMDL
MODEL 7
REMARK VINA RESULT:      -7.1      1.180      1.759
REMARK  Name = 
REMARK  8 active torsions:
REMARK  status: ('A' for Active; 'I' for Inactive)
REMARK    1  A    between atoms: C_1  and  O_2
REMARK    2  A    between atoms: O_2  and  C_3
REMARK    3  A    between atoms: N_7  and  C_8
REMARK    4  A    between atoms: C_8  and  C_9
REMARK    5  A    between atoms: C_13  and  O_14
REMARK    6  A    between atoms: O_14  and  C_15
REMARK    7  A    between atoms: C_15  and  C_16
REMARK    8  A    between atoms: C_21  and  C_22
REMARK                            x       y       z     vdW  Elec       q    Type
REMARK                         _______ _______ _______ _____ _____    ______ ____
ROOT
ATOM      1  C   UNL     1       2.679   3.308  17.912  0.00  0.00    +0.000 C 
ATOM      2  O   UNL     1       1.928   3.552  16.963  0.00  0.00    +0.000 OA
ATOM      3  N   UNL     1       2.206   3.273  19.204  0.00  0.00    +0.000 N 
ATOM      4  C   UNL     1       0.844   3.540  19.638  0.00  0.00    +0.000 C 
ATOM      5  C   UNL     1       1.421   4.283  20.854  0.00  0.00    +0.000 C 
ATOM      6  C   UNL     1       2.812   3.737  20.449  0.00  0.00    +0.000 C 
ENDROOT
BRANCH   1   7
ATOM      7  C   UNL     1       4.139   2.873  17.700  0.00  0.00    +0.000 C 
BRANCH   7  12
ATOM      8  C   UNL     1       6.642   5.433  16.381  0.00  0.00    +0.000 A 
ATOM      9  C   UNL     1       7.135   5.862  17.554  0.00  0.00    +0.000 A 
ATOM     10  C   UNL     1       6.521   5.486  18.809  0.00  0.00    +0.000 A 
ATOM     11  C   UNL     1       5.616   4.506  18.830  0.00  0.00    +0.000 A 
ATOM     12  N   UNL     1       5.144   3.937  17.658  0.00  0.00    +0.000 N 
ATOM     13  C   UNL     1       5.416   4.540  16.417  0.00  0.00    +0.000 A 
ATOM     14  O   UNL     1       4.715   4.353  15.428  0.00  0.00    +0.000 OA
BRANCH   8  16
ATOM     15  C   UNL     1       7.331   4.777  14.206  0.00  0.00    +0.000 C 
ATOM     16  O   UNL     1       7.322   5.769  15.220  0.00  0.00    +0.000 OA
ENDBRANCH   8  16
ENDBRANCH   7  12
ENDBRANCH   1   7
BRANCH   5  17
ATOM     17  O   UNL     1       1.264   5.727  20.874  0.00  0.00    +0.000 OA
BRANCH  17  18
ATOM     18  C   UNL     1       2.398   6.480  20.439  0.00  0.00    +0.000 C 
BRANCH  18  19
ATOM     19  C   UNL     1       1.943   7.739  19.746  0.00  0.00    +0.000 A 
ATOM     20  C   UNL     1       1.085   8.615  20.434  0.00  0.00    +0.000 A 
ATOM     21  C   UNL     1       0.629   9.788  19.834  0.00  0.00    +0.000 A 
ATOM     22  C   UNL     1       1.038  10.112  18.545  0.00  0.00    +0.000 A 
ATOM     23  C   UNL     1       1.897   9.260  17.852  0.00  0.00    +0.000 A 
ATOM     24  C   UNL     1       2.356   8.069  18.436  0.00  0.00    +0.000 A 
ATOM     25  C   UNL     1       3.248   7.160  17.635  0.00  0.00    +0.000 C 
ENDBRANCH  18  19
ENDBRANCH  17  18
ENDBRANCH   5  17
TORSDOF 6
ENDMDL
MODEL 8
REMARK VINA RESULT:      -7.1      1.262      2.175
REMARK  Name = 
REMARK  8 active torsions:
REMARK  status: ('A' for Active; 'I' for Inactive)
REMARK    1  A    between atoms: C_1  and  O_2
REMARK    2  A    between atoms: O_2  and  C_3
REMARK    3  A    between atoms: N_7  and  C_8
REMARK    4  A    between atoms: C_8  and  C_9
REMARK    5  A    between atoms: C_13  and  O_14
REMARK    6  A    between atoms: O_14  and  C_15
REMARK    7  A    between atoms: C_15  and  C_16
REMARK    8  A    between atoms: C_21  and  C_22
REMARK                            x       y       z     vdW  Elec       q    Type
REMARK                         _______ _______ _______ _____ _____    ______ ____
ROOT
ATOM      1  C   UNL     1       2.721   3.597  18.108  0.00  0.00    +0.000 C 
ATOM      2  O   UNL     1       1.894   3.614  17.192  0.00  0.00    +0.000 OA
ATOM      3  N   UNL     1       2.357   3.896  19.402  0.00  0.00    +0.000 N 
ATOM      4  C   UNL     1       1.036   4.293  19.862  0.00  0.00    +0.000 C 
ATOM      5  C   UNL     1       1.712   5.302  20.803  0.00  0.00    +0.000 C 
ATOM      6  C   UNL     1       3.064   4.642  20.438  0.00  0.00    +0.000 C 
ENDROOT
BRANCH   1   7
ATOM      7  C   UNL     1       4.157   3.091  17.896  0.00  0.00    +0.000 C 
BRANCH   7  12
ATOM      8  C   UNL     1       6.286   5.980  16.601  0.00  0.00    +0.000 A 
ATOM      9  C   UNL     1       6.555   5.504  15.375  0.00  0.00    +0.000 A 
ATOM     10  C   UNL     1       6.230   4.143  15.010  0.00  0.00    +0.000 A 
ATOM     11  C   UNL     1       5.431   3.423  15.801  0.00  0.00    +0.000 A 
ATOM     12  N   UNL     1       5.021   3.900  17.035  0.00  0.00    +0.000 N 
ATOM     13  C   UNL     1       5.630   5.039  17.594  0.00  0.00    +0.000 A 
ATOM     14  O   UNL     1       5.627   5.260  18.800  0.00  0.00    +0.000 OA
BRANCH   8  16
ATOM     15  C   UNL     1       7.756   7.571  17.575  0.00  0.00    +0.000 C 
ATOM     16  O   UNL     1       6.555   7.316  16.861  0.00  0.00    +0.000 OA
ENDBRANCH   8  16
ENDBRANCH   7  12
ENDBRANCH   1   7
BRANCH   5  17
ATOM     17  O   UNL     1       1.560   6.709  20.474  0.00  0.00    +0.000 OA
BRANCH  17  18
ATOM     18  C   UNL     1       0.818   7.489  21.413  0.00  0.00    +0.000 C 
BRANCH  18  19
ATOM     19  C   UNL     1       0.706   8.910  20.926  0.00  0.00    +0.000 A 
ATOM     20  C   UNL     1       1.088   9.202  19.605  0.00  0.00    +0.000 A 
ATOM     21  C   UNL     1       1.012  10.503  19.109  0.00  0.00    +0.000 A 
ATOM     22  C   UNL     1       0.536  11.528  19.919  0.00  0.00    +0.000 A 
ATOM     23  C   UNL     1       0.144  11.255  21.229  0.00  0.00    +0.000 A 
ATOM     24  C   UNL     1       0.225   9.953  21.748  0.00  0.00    +0.000 A 
ATOM     25  C   UNL     1      -0.170   9.713  23.181  0.00  0.00    +0.000 C 
ENDBRANCH  18  19
ENDBRANCH  17  18
ENDBRANCH   5  17
TORSDOF 6
ENDMDL
MODEL 9
REMARK VINA RESULT:      -7.1      3.153      6.969
REMARK  Name = 
REMARK  8 active torsions:
REMARK  status: ('A' for Active; 'I' for Inactive)
REMARK    1  A    between atoms: C_1  and  O_2
REMARK    2  A    between atoms: O_2  and  C_3
REMARK    3  A    between atoms: N_7  and  C_8
REMARK    4  A    between atoms: C_8  and  C_9
REMARK    5  A    between atoms: C_13  and  O_14
REMARK    6  A    between atoms: O_14  and  C_15
REMARK    7  A    between atoms: C_15  and  C_16
REMARK    8  A    between atoms: C_21  and  C_22
REMARK                            x       y       z     vdW  Elec       q    Type
REMARK                         _______ _______ _______ _____ _____    ______ ____
ROOT
ATOM      1  C   UNL     1       5.393   5.859  18.504  0.00  0.00    +0.000 C 
ATOM      2  O   UNL     1       5.443   5.537  19.695  0.00  0.00    +0.000 OA
ATOM      3  N   UNL     1       6.510   6.319  17.843  0.00  0.00    +0.000 N 
ATOM      4  C   UNL     1       7.832   6.524  18.413  0.00  0.00    +0.000 C 
ATOM      5  C   UNL     1       7.949   7.807  17.575  0.00  0.00    +0.000 C 
ATOM      6  C   UNL     1       6.655   7.373  16.844  0.00  0.00    +0.000 C 
ENDROOT
BRANCH   1   7
ATOM      7  C   UNL     1       4.138   5.619  17.650  0.00  0.00    +0.000 C 
BRANCH   7  12
ATOM      8  C   UNL     1       1.636   3.415  19.504  0.00  0.00    +0.000 A 
ATOM      9  C   UNL     1       1.798   2.283  18.801  0.00  0.00    +0.000 A 
ATOM     10  C   UNL     1       2.567   2.263  17.576  0.00  0.00    +0.000 A 
ATOM     11  C   UNL     1       3.333   3.310  17.265  0.00  0.00    +0.000 A 
ATOM     12  N   UNL     1       3.301   4.475  18.015  0.00  0.00    +0.000 N 
ATOM     13  C   UNL     1       2.285   4.676  18.968  0.00  0.00    +0.000 A 
ATOM     14  O   UNL     1       1.952   5.795  19.345  0.00  0.00    +0.000 OA
BRANCH   8  16
ATOM     15  C   UNL     1       1.666   2.773  21.790  0.00  0.00    +0.000 C 
ATOM     16  O   UNL     1       0.950   3.349  20.709  0.00  0.00    +0.000 OA
ENDBRANCH   8  16
ENDBRANCH   7  12
ENDBRANCH   1   7
BRANCH   5  17
ATOM     17  O   UNL     1       7.902   9.067  18.297  0.00  0.00    +0.000 OA
BRANCH  17  18
ATOM     18  C   UNL     1       9.004   9.323  19.170  0.00  0.00    +0.000 C 
BRANCH  18  19
ATOM     19  C   UNL     1       9.460  10.751  19.016  0.00  0.00    +0.000 A 
ATOM     20  C   UNL     1       9.909  11.183  17.756  0.00  0.00    +0.000 A 
ATOM     21  C   UNL     1      10.349  12.493  17.564  0.00  0.00    +0.000 A 
ATOM     22  C   UNL     1      10.329  13.394  18.623  0.00  0.00    +0.000 A 
ATOM     23  C   UNL     1       9.878  12.985  19.876  0.00  0.00    +0.000 A 
ATOM     24  C   UNL     1       9.442  11.668  20.091  0.00  0.00    +0.000 A 
ATOM     25  C   UNL     1       9.003  11.260  21.471  0.00  0.00    +0.000 C 
ENDBRANCH  18  19
ENDBRANCH  17  18
ENDBRANCH   5  17
TORSDOF 6
ENDMDL
