MODEL 1
REMARK VINA RESULT:      -7.8      0.000      0.000
REMARK  Name = 
REMARK  4 active torsions:
REMARK  status: ('A' for Active; 'I' for Inactive)
REMARK    1  A    between atoms: C_4  and  C_5
REMARK    2  A    between atoms: C_8  and  O_9
REMARK    3  A    between atoms: N_15  and  C_16
REMARK    4  A    between atoms: N_20  and  C_21
REMARK                            x       y       z     vdW  Elec       q    Type
REMARK                         _______ _______ _______ _____ _____    ______ ____
ROOT
ATOM      1  O   UNL     1       4.182   8.117  16.590  0.00  0.00    +0.000 OA
ATOM      2  C   UNL     1       3.609   7.541  17.509  0.00  0.00    +0.000 C 
ATOM      3  C   UNL     1       2.441   8.135  18.210  0.00  0.00    +0.000 C 
ATOM      4  C   UNL     1       1.889   9.283  17.798  0.00  0.00    +0.000 C 
ATOM      5  S   UNL     1       1.958   7.134  19.521  0.00  0.00    +0.000 S 
ATOM      6  C   UNL     1       3.071   5.858  19.069  0.00  0.00    +0.000 C 
ATOM      7  N   UNL     1       3.191   4.700  19.630  0.00  0.00    +0.000 NA
ATOM      8  N   UNL     1       3.873   6.284  18.025  0.00  0.00    +0.000 N 
ENDROOT
BRANCH   4   9
ATOM      9  C   UNL     1       0.777   9.962  18.460  0.00  0.00    +0.000 A 
ATOM     10  C   UNL     1      -0.516   9.794  17.946  0.00  0.00    +0.000 A 
ATOM     11  C   UNL     1      -1.596  10.462  18.529  0.00  0.00    +0.000 A 
ATOM     12  C   UNL     1      -1.383  11.294  19.627  0.00  0.00    +0.000 A 
ATOM     13  C   UNL     1      -0.096  11.452  20.152  0.00  0.00    +0.000 A 
ATOM     14 CL   UNL     1       0.199  12.470  21.518  0.00  0.00    +0.000 Cl
ATOM     15  C   UNL     1       0.984  10.786  19.570  0.00  0.00    +0.000 A 
BRANCH  12  16
ATOM     16  O   UNL     1      -2.440  11.958  20.187  0.00  0.00    +0.000 OA
ATOM     17  H   UNL     1      -3.265  11.501  19.959  0.00  0.00    +0.000 HD
ENDBRANCH  12  16
ENDBRANCH   4   9
BRANCH   8  18
ATOM     18  C   UNL     1       4.929   5.500  17.499  0.00  0.00    +0.000 A 
ATOM     19  C   UNL     1       6.216   5.575  18.054  0.00  0.00    +0.000 A 
ATOM     20  C   UNL     1       7.260   4.813  17.527  0.00  0.00    +0.000 A 
ATOM     21  C   UNL     1       7.037   4.003  16.416  0.00  0.00    +0.000 A 
ATOM     22  C   UNL     1       5.765   3.929  15.850  0.00  0.00    +0.000 A 
ATOM     23  C   UNL     1       4.710   4.656  16.403  0.00  0.00    +0.000 A 
ENDBRANCH   8  18
BRANCH   7  24
ATOM     24  C   UNL     1       2.410   4.364  20.805  0.00  0.00    +0.000 C 
ATOM     25  C   UNL     1       1.016   3.753  20.515  0.00  0.00    +0.000 C 
ATOM     26  C   UNL     1       1.322   2.735  21.637  0.00  0.00    +0.000 C 
ATOM     27  C   UNL     1       2.812   2.946  21.302  0.00  0.00    +0.000 C 
ENDBRANCH   7  24
TORSDOF 4
ENDMDL
MODEL 2
REMARK VINA RESULT:      -7.8      1.033      1.402
REMARK  Name = 
REMARK  4 active torsions:
REMARK  status: ('A' for Active; 'I' for Inactive)
REMARK    1  A    between atoms: C_4  and  C_5
REMARK    2  A    between atoms: C_8  and  O_9
REMARK    3  A    between atoms: N_15  and  C_16
REMARK    4  A    between atoms: N_20  and  C_21
REMARK                            x       y       z     vdW  Elec       q    Type
REMARK                         _______ _______ _______ _____ _____    ______ ____
ROOT
ATOM      1  O   UNL     1       4.192   8.122  16.594  0.00  0.00    +0.000 OA
ATOM      2  C   UNL     1       3.618   7.547  17.513  0.00  0.00    +0.000 C 
ATOM      3  C   UNL     1       2.457   8.147  18.221  0.00  0.00    +0.000 C 
ATOM      4  C   UNL     1       1.911   9.301  17.815  0.00  0.00    +0.000 C 
ATOM      5  S   UNL     1       1.970   7.144  19.530  0.00  0.00    +0.000 S 
ATOM      6  C   UNL     1       3.073   5.862  19.069  0.00  0.00    +0.000 C 
ATOM      7  N   UNL     1       3.187   4.701  19.625  0.00  0.00    +0.000 NA
ATOM      8  N   UNL     1       3.874   6.286  18.024  0.00  0.00    +0.000 N 
ENDROOT
BRANCH   4   9
ATOM      9  C   UNL     1       0.806   9.985  18.483  0.00  0.00    +0.000 A 
ATOM     10  C   UNL     1       1.065  10.673  19.676  0.00  0.00    +0.000 A 
ATOM     11  C   UNL     1       0.024  11.302  20.363  0.00  0.00    +0.000 A 
ATOM     12  C   UNL     1      -1.273  11.247  19.856  0.00  0.00    +0.000 A 
ATOM     13  C   UNL     1      -1.532  10.573  18.657  0.00  0.00    +0.000 A 
ATOM     14 CL   UNL     1      -3.128  10.493  17.997  0.00  0.00    +0.000 Cl
ATOM     15  C   UNL     1      -0.492   9.943  17.970  0.00  0.00    +0.000 A 
BRANCH  12  16
ATOM     16  O   UNL     1      -2.294  11.852  20.538  0.00  0.00    +0.000 OA
ATOM     17  H   UNL     1      -2.175  11.706  21.491  0.00  0.00    +0.000 HD
ENDBRANCH  12  16
ENDBRANCH   4   9
BRANCH   8  18
ATOM     18  C   UNL     1       4.922   5.496  17.491  0.00  0.00    +0.000 A 
ATOM     19  C   UNL     1       6.214   5.566  18.037  0.00  0.00    +0.000 A 
ATOM     20  C   UNL     1       7.251   4.799  17.502  0.00  0.00    +0.000 A 
ATOM     21  C   UNL     1       7.015   3.988  16.394  0.00  0.00    +0.000 A 
ATOM     22  C   UNL     1       5.739   3.920  15.837  0.00  0.00    +0.000 A 
ATOM     23  C   UNL     1       4.692   4.652  16.397  0.00  0.00    +0.000 A 
ENDBRANCH   8  18
BRANCH   7  24
ATOM     24  C   UNL     1       2.408   4.367  20.801  0.00  0.00    +0.000 C 
ATOM     25  C   UNL     1       1.021   3.738  20.515  0.00  0.00    +0.000 C 
ATOM     26  C   UNL     1       1.336   2.732  21.645  0.00  0.00    +0.000 C 
ATOM     27  C   UNL     1       2.823   2.957  21.311  0.00  0.00    +0.000 C 
ENDBRANCH   7  24
TORSDOF 4
ENDMDL
MODEL 3
REMARK VINA RESULT:      -6.8      3.734      8.668
REMARK  Name = 
REMARK  4 active torsions:
REMARK  status: ('A' for Active; 'I' for Inactive)
REMARK    1  A    between atoms: C_4  and  C_5
REMARK    2  A    between atoms: C_8  and  O_9
REMARK    3  A    between atoms: N_15  and  C_16
REMARK    4  A    between atoms: N_20  and  C_21
REMARK                            x       y       z     vdW  Elec       q    Type
REMARK                         _______ _______ _______ _____ _____    ______ ____
ROOT
ATOM      1  O   UNL     1       1.448   9.739  22.671  0.00  0.00    +0.000 OA
ATOM      2  C   UNL     1       0.890   9.686  21.581  0.00  0.00    +0.000 C 
ATOM      3  C   UNL     1       1.132   8.579  20.619  0.00  0.00    +0.000 C 
ATOM      4  C   UNL     1       1.891   7.525  20.944  0.00  0.00    +0.000 C 
ATOM      5  S   UNL     1       0.294   8.871  19.146  0.00  0.00    +0.000 S 
ATOM      6  C   UNL     1      -0.540  10.268  19.799  0.00  0.00    +0.000 C 
ATOM      7  N   UNL     1      -1.439  10.980  19.205  0.00  0.00    +0.000 NA
ATOM      8  N   UNL     1      -0.056  10.555  21.063  0.00  0.00    +0.000 N 
ENDROOT
BRANCH   4   9
ATOM      9  C   UNL     1       2.223   6.423  20.043  0.00  0.00    +0.000 A 
ATOM     10  C   UNL     1       3.078   6.673  18.961  0.00  0.00    +0.000 A 
ATOM     11  C   UNL     1       3.382   5.652  18.057  0.00  0.00    +0.000 A 
ATOM     12  C   UNL     1       2.834   4.383  18.237  0.00  0.00    +0.000 A 
ATOM     13  C   UNL     1       1.993   4.126  19.324  0.00  0.00    +0.000 A 
ATOM     14 CL   UNL     1       1.305   2.561  19.579  0.00  0.00    +0.000 Cl
ATOM     15  C   UNL     1       1.687   5.146  20.228  0.00  0.00    +0.000 A 
BRANCH  12  16
ATOM     16  O   UNL     1       3.122   3.389  17.341  0.00  0.00    +0.000 OA
ATOM     17  H   UNL     1       2.357   3.247  16.760  0.00  0.00    +0.000 HD
ENDBRANCH  12  16
ENDBRANCH   4   9
BRANCH   8  18
ATOM     18  C   UNL     1      -0.478  11.682  21.809  0.00  0.00    +0.000 A 
ATOM     19  C   UNL     1       0.160  12.923  21.648  0.00  0.00    +0.000 A 
ATOM     20  C   UNL     1      -0.246  14.030  22.393  0.00  0.00    +0.000 A 
ATOM     21  C   UNL     1      -1.265  13.899  23.335  0.00  0.00    +0.000 A 
ATOM     22  C   UNL     1      -1.898  12.669  23.511  0.00  0.00    +0.000 A 
ATOM     23  C   UNL     1      -1.522  11.572  22.736  0.00  0.00    +0.000 A 
ENDBRANCH   8  18
BRANCH   7  24
ATOM     24  C   UNL     1      -1.809  10.707  17.830  0.00  0.00    +0.000 C 
ATOM     25  C   UNL     1      -2.912   9.635  17.646  0.00  0.00    +0.000 C 
ATOM     26  C   UNL     1      -3.536  10.578  16.592  0.00  0.00    +0.000 C 
ATOM     27  C   UNL     1      -2.879  11.736  17.369  0.00  0.00    +0.000 C 
ENDBRANCH   7  24
TORSDOF 4
ENDMDL
MODEL 4
REMARK VINA RESULT:      -6.8      3.914      8.970
REMARK  Name = 
REMARK  4 active torsions:
REMARK  status: ('A' for Active; 'I' for Inactive)
REMARK    1  A    between atoms: C_4  and  C_5
REMARK    2  A    between atoms: C_8  and  O_9
REMARK    3  A    between atoms: N_15  and  C_16
REMARK    4  A    between atoms: N_20  and  C_21
REMARK                            x       y       z     vdW  Elec       q    Type
REMARK                         _______ _______ _______ _____ _____    ______ ____
ROOT
ATOM      1  O   UNL     1       0.726  10.041  23.119  0.00  0.00    +0.000 OA
ATOM      2  C   UNL     1       0.296  10.101  21.972  0.00  0.00    +0.000 C 
ATOM      3  C   UNL     1       0.664   9.101  20.935  0.00  0.00    +0.000 C 
ATOM      4  C   UNL     1       1.399   8.022  21.234  0.00  0.00    +0.000 C 
ATOM      5  S   UNL     1      -0.005   9.543  19.414  0.00  0.00    +0.000 S 
ATOM      6  C   UNL     1      -0.931  10.860  20.108  0.00  0.00    +0.000 C 
ATOM      7  N   UNL     1      -1.768  11.626  19.491  0.00  0.00    +0.000 NA
ATOM      8  N   UNL     1      -0.599  11.014  21.442  0.00  0.00    +0.000 N 
ENDROOT
BRANCH   4   9
ATOM      9  C   UNL     1       1.849   7.022  20.268  0.00  0.00    +0.000 A 
ATOM     10  C   UNL     1       2.473   7.457  19.091  0.00  0.00    +0.000 A 
ATOM     11  C   UNL     1       2.878   6.530  18.128  0.00  0.00    +0.000 A 
ATOM     12  C   UNL     1       2.662   5.170  18.343  0.00  0.00    +0.000 A 
ATOM     13  C   UNL     1       2.053   4.731  19.523  0.00  0.00    +0.000 A 
ATOM     14 CL   UNL     1       1.779   3.051  19.823  0.00  0.00    +0.000 Cl
ATOM     15  C   UNL     1       1.647   5.657  20.487  0.00  0.00    +0.000 A 
BRANCH  12  16
ATOM     16  O   UNL     1       3.046   4.265  17.390  0.00  0.00    +0.000 OA
ATOM     17  H   UNL     1       2.744   3.379  17.648  0.00  0.00    +0.000 HD
ENDBRANCH  12  16
ENDBRANCH   4   9
BRANCH   8  18
ATOM     18  C   UNL     1      -1.122  12.056  22.247  0.00  0.00    +0.000 A 
ATOM     19  C   UNL     1      -2.323  11.875  22.952  0.00  0.00    +0.000 A 
ATOM     20  C   UNL     1      -2.847  12.906  23.734  0.00  0.00    +0.000 A 
ATOM     21  C   UNL     1      -2.198  14.138  23.785  0.00  0.00    +0.000 A 
ATOM     22  C   UNL     1      -1.011  14.332  23.079  0.00  0.00    +0.000 A 
ATOM     23  C   UNL     1      -0.464  13.288  22.332  0.00  0.00    +0.000 A 
ENDBRANCH   8  18
BRANCH   7  24
ATOM     24  C   UNL     1      -1.974  11.496  18.061  0.00  0.00    +0.000 C 
ATOM     25  C   UNL     1      -2.185  10.047  17.556  0.00  0.00    +0.000 C 
ATOM     26  C   UNL     1      -3.323  10.609  16.674  0.00  0.00    +0.000 C 
ATOM     27  C   UNL     1      -3.478  11.717  17.734  0.00  0.00    +0.000 C 
ENDBRANCH   7  24
TORSDOF 4
ENDMDL
MODEL 5
REMARK VINA RESULT:      -6.7      3.644      8.618
REMARK  Name = 
REMARK  4 active torsions:
REMARK  status: ('A' for Active; 'I' for Inactive)
REMARK    1  A    between atoms: C_4  and  C_5
REMARK    2  A    between atoms: C_8  and  O_9
REMARK    3  A    between atoms: N_15  and  C_16
REMARK    4  A    between atoms: N_20  and  C_21
REMARK                            x       y       z     vdW  Elec       q    Type
REMARK                         _______ _______ _______ _____ _____    ______ ____
ROOT
ATOM      1  O   UNL     1       1.469   9.709  22.678  0.00  0.00    +0.000 OA
ATOM      2  C   UNL     1       0.921   9.637  21.584  0.00  0.00    +0.000 C 
ATOM      3  C   UNL     1       1.142   8.492  20.661  0.00  0.00    +0.000 C 
ATOM      4  C   UNL     1       1.868   7.429  21.028  0.00  0.00    +0.000 C 
ATOM      5  S   UNL     1       0.328   8.760  19.170  0.00  0.00    +0.000 S 
ATOM      6  C   UNL     1      -0.474  10.200  19.768  0.00  0.00    +0.000 C 
ATOM      7  N   UNL     1      -1.347  10.916  19.142  0.00  0.00    +0.000 NA
ATOM      8  N   UNL     1       0.005  10.514  21.028  0.00  0.00    +0.000 N 
ENDROOT
BRANCH   4   9
ATOM      9  C   UNL     1       2.178   6.290  20.167  0.00  0.00    +0.000 A 
ATOM     10  C   UNL     1       1.637   5.038  20.487  0.00  0.00    +0.000 A 
ATOM     11  C   UNL     1       1.947   3.919  19.709  0.00  0.00    +0.000 A 
ATOM     12  C   UNL     1       2.795   4.054  18.611  0.00  0.00    +0.000 A 
ATOM     13  C   UNL     1       3.325   5.306  18.280  0.00  0.00    +0.000 A 
ATOM     14 CL   UNL     1       4.373   5.507  16.920  0.00  0.00    +0.000 Cl
ATOM     15  C   UNL     1       3.016   6.424  19.057  0.00  0.00    +0.000 A 
BRANCH  12  16
ATOM     16  O   UNL     1       3.109   2.954  17.860  0.00  0.00    +0.000 OA
ATOM     17  H   UNL     1       3.216   3.218  16.932  0.00  0.00    +0.000 HD
ENDBRANCH  12  16
ENDBRANCH   4   9
BRANCH   8  18
ATOM     18  C   UNL     1      -0.394  11.676  21.732  0.00  0.00    +0.000 A 
ATOM     19  C   UNL     1       0.259  12.900  21.514  0.00  0.00    +0.000 A 
ATOM     20  C   UNL     1      -0.124  14.042  22.219  0.00  0.00    +0.000 A 
ATOM     21  C   UNL     1      -1.133  13.962  23.177  0.00  0.00    +0.000 A 
ATOM     22  C   UNL     1      -1.780  12.749  23.410  0.00  0.00    +0.000 A 
ATOM     23  C   UNL     1      -1.428  11.617  22.675  0.00  0.00    +0.000 A 
ENDBRANCH   8  18
BRANCH   7  24
ATOM     24  C   UNL     1      -1.710  10.609  17.772  0.00  0.00    +0.000 C 
ATOM     25  C   UNL     1      -2.933   9.672  17.610  0.00  0.00    +0.000 C 
ATOM     26  C   UNL     1      -3.405  10.621  16.484  0.00  0.00    +0.000 C 
ATOM     27  C   UNL     1      -2.630  11.733  17.217  0.00  0.00    +0.000 C 
ENDBRANCH   7  24
TORSDOF 4
ENDMDL
MODEL 6
REMARK VINA RESULT:      -6.7      4.131      7.036
REMARK  Name = 
REMARK  4 active torsions:
REMARK  status: ('A' for Active; 'I' for Inactive)
REMARK    1  A    between atoms: C_4  and  C_5
REMARK    2  A    between atoms: C_8  and  O_9
REMARK    3  A    between atoms: N_15  and  C_16
REMARK    4  A    between atoms: N_20  and  C_21
REMARK                            x       y       z     vdW  Elec       q    Type
REMARK                         _______ _______ _______ _____ _____    ______ ____
ROOT
ATOM      1  O   UNL     1       0.975  10.226  22.216  0.00  0.00    +0.000 OA
ATOM      2  C   UNL     1       0.140  10.586  21.392  0.00  0.00    +0.000 C 
ATOM      3  C   UNL     1      -0.936  11.555  21.727  0.00  0.00    +0.000 C 
ATOM      4  C   UNL     1      -0.979  12.168  22.917  0.00  0.00    +0.000 C 
ATOM      5  S   UNL     1      -2.005  11.746  20.394  0.00  0.00    +0.000 S 
ATOM      6  C   UNL     1      -0.992  10.785  19.335  0.00  0.00    +0.000 C 
ATOM      7  N   UNL     1      -1.182  10.560  18.077  0.00  0.00    +0.000 NA
ATOM      8  N   UNL     1       0.051  10.233  20.057  0.00  0.00    +0.000 N 
ENDROOT
BRANCH   4   9
ATOM      9  C   UNL     1      -2.028  13.090  23.346  0.00  0.00    +0.000 A 
ATOM     10  C   UNL     1      -1.683  14.420  23.620  0.00  0.00    +0.000 A 
ATOM     11  C   UNL     1      -2.654  15.318  24.073  0.00  0.00    +0.000 A 
ATOM     12  C   UNL     1      -3.968  14.886  24.247  0.00  0.00    +0.000 A 
ATOM     13  C   UNL     1      -4.319  13.563  23.960  0.00  0.00    +0.000 A 
ATOM     14 CL   UNL     1      -5.941  12.999  24.158  0.00  0.00    +0.000 Cl
ATOM     15  C   UNL     1      -3.349  12.664  23.508  0.00  0.00    +0.000 A 
BRANCH  12  16
ATOM     16  O   UNL     1      -4.913  15.764  24.704  0.00  0.00    +0.000 OA
ATOM     17  H   UNL     1      -4.990  15.681  25.669  0.00  0.00    +0.000 HD
ENDBRANCH  12  16
ENDBRANCH   4   9
BRANCH   8  18
ATOM     18  C   UNL     1       0.988   9.336  19.488  0.00  0.00    +0.000 A 
ATOM     19  C   UNL     1       1.517   9.576  18.209  0.00  0.00    +0.000 A 
ATOM     20  C   UNL     1       2.429   8.685  17.642  0.00  0.00    +0.000 A 
ATOM     21  C   UNL     1       2.790   7.528  18.329  0.00  0.00    +0.000 A 
ATOM     22  C   UNL     1       2.262   7.274  19.594  0.00  0.00    +0.000 A 
ATOM     23  C   UNL     1       1.384   8.186  20.181  0.00  0.00    +0.000 A 
ENDBRANCH   8  18
BRANCH   7  24
ATOM     24  C   UNL     1      -2.367  11.060  17.407  0.00  0.00    +0.000 C 
ATOM     25  C   UNL     1      -2.392  10.852  15.872  0.00  0.00    +0.000 C 
ATOM     26  C   UNL     1      -3.867  10.421  16.039  0.00  0.00    +0.000 C 
ATOM     27  C   UNL     1      -3.486   9.982  17.466  0.00  0.00    +0.000 C 
ENDBRANCH   7  24
TORSDOF 4
ENDMDL
MODEL 7
REMARK VINA RESULT:      -6.6      3.869      9.037
REMARK  Name = 
REMARK  4 active torsions:
REMARK  status: ('A' for Active; 'I' for Inactive)
REMARK    1  A    between atoms: C_4  and  C_5
REMARK    2  A    between atoms: C_8  and  O_9
REMARK    3  A    between atoms: N_15  and  C_16
REMARK    4  A    between atoms: N_20  and  C_21
REMARK                            x       y       z     vdW  Elec       q    Type
REMARK                         _______ _______ _______ _____ _____    ______ ____
ROOT
ATOM      1  O   UNL     1       0.472  10.055  23.340  0.00  0.00    +0.000 OA
ATOM      2  C   UNL     1       0.073  10.125  22.182  0.00  0.00    +0.000 C 
ATOM      3  C   UNL     1       0.492   9.151  21.141  0.00  0.00    +0.000 C 
ATOM      4  C   UNL     1       1.241   8.083  21.443  0.00  0.00    +0.000 C 
ATOM      5  S   UNL     1      -0.143   9.604  19.608  0.00  0.00    +0.000 S 
ATOM      6  C   UNL     1      -1.116  10.889  20.297  0.00  0.00    +0.000 C 
ATOM      7  N   UNL     1      -1.953  11.647  19.669  0.00  0.00    +0.000 NA
ATOM      8  N   UNL     1      -0.826  11.028  21.642  0.00  0.00    +0.000 N 
ENDROOT
BRANCH   4   9
ATOM      9  C   UNL     1       1.740   7.109  20.474  0.00  0.00    +0.000 A 
ATOM     10  C   UNL     1       1.449   5.753  20.673  0.00  0.00    +0.000 A 
ATOM     11  C   UNL     1       1.946   4.792  19.789  0.00  0.00    +0.000 A 
ATOM     12  C   UNL     1       2.731   5.187  18.707  0.00  0.00    +0.000 A 
ATOM     13  C   UNL     1       3.011   6.541  18.497  0.00  0.00    +0.000 A 
ATOM     14 CL   UNL     1       3.974   7.064  17.160  0.00  0.00    +0.000 Cl
ATOM     15  C   UNL     1       2.515   7.503  19.381  0.00  0.00    +0.000 A 
BRANCH  12  16
ATOM     16  O   UNL     1       3.228   4.242  17.851  0.00  0.00    +0.000 OA
ATOM     17  H   UNL     1       2.598   4.099  17.127  0.00  0.00    +0.000 HD
ENDBRANCH  12  16
ENDBRANCH   4   9
BRANCH   8  18
ATOM     18  C   UNL     1      -1.394  12.044  22.449  0.00  0.00    +0.000 A 
ATOM     19  C   UNL     1      -2.624  11.837  23.093  0.00  0.00    +0.000 A 
ATOM     20  C   UNL     1      -3.192  12.843  23.876  0.00  0.00    +0.000 A 
ATOM     21  C   UNL     1      -2.557  14.078  23.988  0.00  0.00    +0.000 A 
ATOM     22  C   UNL     1      -1.341  14.299  23.343  0.00  0.00    +0.000 A 
ATOM     23  C   UNL     1      -0.751  13.279  22.595  0.00  0.00    +0.000 A 
ENDBRANCH   8  18
BRANCH   7  24
ATOM     24  C   UNL     1      -2.115  11.537  18.232  0.00  0.00    +0.000 C 
ATOM     25  C   UNL     1      -2.382  10.104  17.708  0.00  0.00    +0.000 C 
ATOM     26  C   UNL     1      -3.459  10.728  16.793  0.00  0.00    +0.000 C 
ATOM     27  C   UNL     1      -3.594  11.836  17.856  0.00  0.00    +0.000 C 
ENDBRANCH   7  24
TORSDOF 4
ENDMDL
MODEL 8
REMARK VINA RESULT:      -6.6      1.278      1.638
REMARK  Name = 
REMARK  4 active torsions:
REMARK  status: ('A' for Active; 'I' for Inactive)
REMARK    1  A    between atoms: C_4  and  C_5
REMARK    2  A    between atoms: C_8  and  O_9
REMARK    3  A    between atoms: N_15  and  C_16
REMARK    4  A    between atoms: N_20  and  C_21
REMARK                            x       y       z     vdW  Elec       q    Type
REMARK                         _______ _______ _______ _____ _____    ______ ____
ROOT
ATOM      1  O   UNL     1       3.452   8.530  17.007  0.00  0.00    +0.000 OA
ATOM      2  C   UNL     1       3.033   7.845  17.933  0.00  0.00    +0.000 C 
ATOM      3  C   UNL     1       2.055   8.365  18.924  0.00  0.00    +0.000 C 
ATOM      4  C   UNL     1       1.499   9.576  18.788  0.00  0.00    +0.000 C 
ATOM      5  S   UNL     1       1.773   7.198  20.155  0.00  0.00    +0.000 S 
ATOM      6  C   UNL     1       2.707   5.970  19.324  0.00  0.00    +0.000 C 
ATOM      7  N   UNL     1       2.866   4.741  19.688  0.00  0.00    +0.000 NA
ATOM      8  N   UNL     1       3.319   6.519  18.211  0.00  0.00    +0.000 N 
ENDROOT
BRANCH   4   9
ATOM      9  C   UNL     1       0.573  10.183  19.742  0.00  0.00    +0.000 A 
ATOM     10  C   UNL     1       0.808  10.008  21.112  0.00  0.00    +0.000 A 
ATOM     11  C   UNL     1      -0.081  10.540  22.050  0.00  0.00    +0.000 A 
ATOM     12  C   UNL     1      -1.201  11.249  21.617  0.00  0.00    +0.000 A 
ATOM     13  C   UNL     1      -1.430  11.438  20.250  0.00  0.00    +0.000 A 
ATOM     14 CL   UNL     1      -2.805  12.318  19.682  0.00  0.00    +0.000 Cl
ATOM     15  C   UNL     1      -0.542  10.906  19.312  0.00  0.00    +0.000 A 
BRANCH  12  16
ATOM     16  O   UNL     1      -2.078  11.756  22.538  0.00  0.00    +0.000 OA
ATOM     17  H   UNL     1      -2.587  12.477  22.134  0.00  0.00    +0.000 HD
ENDBRANCH  12  16
ENDBRANCH   4   9
BRANCH   8  18
ATOM     18  C   UNL     1       4.210   5.789  17.387  0.00  0.00    +0.000 A 
ATOM     19  C   UNL     1       5.440   6.345  17.001  0.00  0.00    +0.000 A 
ATOM     20  C   UNL     1       6.311   5.632  16.176  0.00  0.00    +0.000 A 
ATOM     21  C   UNL     1       5.944   4.377  15.697  0.00  0.00    +0.000 A 
ATOM     22  C   UNL     1       4.720   3.820  16.065  0.00  0.00    +0.000 A 
ATOM     23  C   UNL     1       3.867   4.513  16.924  0.00  0.00    +0.000 A 
ENDBRANCH   8  18
BRANCH   7  24
ATOM     24  C   UNL     1       2.305   4.261  20.936  0.00  0.00    +0.000 C 
ATOM     25  C   UNL     1       0.962   3.500  20.803  0.00  0.00    +0.000 C 
ATOM     26  C   UNL     1       1.539   2.476  21.808  0.00  0.00    +0.000 C 
ATOM     27  C   UNL     1       2.932   2.881  21.285  0.00  0.00    +0.000 C 
ENDBRANCH   7  24
TORSDOF 4
ENDMDL
MODEL 9
REMARK VINA RESULT:      -6.5      4.033      6.902
REMARK  Name = 
REMARK  4 active torsions:
REMARK  status: ('A' for Active; 'I' for Inactive)
REMARK    1  A    between atoms: C_4  and  C_5
REMARK    2  A    between atoms: C_8  and  O_9
REMARK    3  A    between atoms: N_15  and  C_16
REMARK    4  A    between atoms: N_20  and  C_21
REMARK                            x       y       z     vdW  Elec       q    Type
REMARK                         _______ _______ _______ _____ _____    ______ ____
ROOT
ATOM      1  O   UNL     1       1.004  10.169  22.180  0.00  0.00    +0.000 OA
ATOM      2  C   UNL     1       0.161  10.528  21.364  0.00  0.00    +0.000 C 
ATOM      3  C   UNL     1      -0.920  11.487  21.711  0.00  0.00    +0.000 C 
ATOM      4  C   UNL     1      -0.960  12.092  22.905  0.00  0.00    +0.000 C 
ATOM      5  S   UNL     1      -1.998  11.679  20.386  0.00  0.00    +0.000 S 
ATOM      6  C   UNL     1      -0.984  10.732  19.314  0.00  0.00    +0.000 C 
ATOM      7  N   UNL     1      -1.180  10.514  18.056  0.00  0.00    +0.000 NA
ATOM      8  N   UNL     1       0.067  10.183  20.027  0.00  0.00    +0.000 N 
ENDROOT
BRANCH   4   9
ATOM      9  C   UNL     1      -2.014  13.004  23.346  0.00  0.00    +0.000 A 
ATOM     10  C   UNL     1      -3.261  12.471  23.699  0.00  0.00    +0.000 A 
ATOM     11  C   UNL     1      -4.303  13.318  24.084  0.00  0.00    +0.000 A 
ATOM     12  C   UNL     1      -4.096  14.696  24.120  0.00  0.00    +0.000 A 
ATOM     13  C   UNL     1      -2.848  15.231  23.783  0.00  0.00    +0.000 A 
ATOM     14 CL   UNL     1      -2.558  16.934  23.826  0.00  0.00    +0.000 Cl
ATOM     15  C   UNL     1      -1.806  14.384  23.397  0.00  0.00    +0.000 A 
BRANCH  12  16
ATOM     16  O   UNL     1      -5.123  15.525  24.484  0.00  0.00    +0.000 OA
ATOM     17  H   UNL     1      -4.951  16.418  24.144  0.00  0.00    +0.000 HD
ENDBRANCH  12  16
ENDBRANCH   4   9
BRANCH   8  18
ATOM     18  C   UNL     1       1.007   9.296  19.447  0.00  0.00    +0.000 A 
ATOM     19  C   UNL     1       1.541   9.558  18.174  0.00  0.00    +0.000 A 
ATOM     20  C   UNL     1       2.456   8.678  17.596  0.00  0.00    +0.000 A 
ATOM     21  C   UNL     1       2.815   7.509  18.265  0.00  0.00    +0.000 A 
ATOM     22  C   UNL     1       2.283   7.234  19.524  0.00  0.00    +0.000 A 
ATOM     23  C   UNL     1       1.401   8.134  20.122  0.00  0.00    +0.000 A 
ENDBRANCH   8  18
BRANCH   7  24
ATOM     24  C   UNL     1      -2.372  11.009  17.397  0.00  0.00    +0.000 C 
ATOM     25  C   UNL     1      -2.395  10.832  15.858  0.00  0.00    +0.000 C 
ATOM     26  C   UNL     1      -3.863  10.376  16.016  0.00  0.00    +0.000 C 
ATOM     27  C   UNL     1      -3.475   9.913  17.433  0.00  0.00    +0.000 C 
ENDBRANCH   7  24
TORSDOF 4
ENDMDL
