MODEL 1
REMARK VINA RESULT:      -6.9      0.000      0.000
REMARK  Name = 
REMARK  4 active torsions:
REMARK  status: ('A' for Active; 'I' for Inactive)
REMARK    1  A    between atoms: N_1  and  C_2
REMARK    2  A    between atoms: C_5  and  S_6
REMARK    3  A    between atoms: S_6  and  C_7
REMARK    4  A    between atoms: C_13  and  N_14
REMARK                            x       y       z     vdW  Elec       q    Type
REMARK                         _______ _______ _______ _____ _____    ______ ____
ROOT
ATOM      1  S   UNL     1       5.118   3.695  16.591  0.00  0.00    +0.000 S 
ENDROOT
BRANCH   1   2
ATOM      2  C   UNL     1       6.171   4.989  17.235  0.00  0.00    +0.000 A 
ATOM      3  C   UNL     1       7.245   4.608  18.055  0.00  0.00    +0.000 A 
ATOM      4  C   UNL     1       8.100   5.566  18.611  0.00  0.00    +0.000 A 
ATOM      5  C   UNL     1       7.889   6.916  18.355  0.00  0.00    +0.000 A 
ATOM      6  F   UNL     1       8.711   7.826  18.892  0.00  0.00    +0.000 F 
ATOM      7  C   UNL     1       6.830   7.333  17.563  0.00  0.00    +0.000 A 
ATOM      8  C   UNL     1       5.975   6.364  17.021  0.00  0.00    +0.000 A 
BRANCH   8   9
ATOM      9  N   UNL     1       4.854   6.849  16.244  0.00  0.00    +0.000 N 
ATOM     10  O   UNL     1       3.836   7.188  16.859  0.00  0.00    +0.000 OA
ATOM     11  O   UNL     1       5.024   6.946  15.021  0.00  0.00    +0.000 OA
ENDBRANCH   8   9
ENDBRANCH   1   2
BRANCH   1  15
ATOM     12  C   UNL     1       1.728   3.372  19.685  0.00  0.00    +0.000 A 
ATOM     13  C   UNL     1       1.460   3.786  18.379  0.00  0.00    +0.000 A 
ATOM     14  C   UNL     1       2.489   3.895  17.436  0.00  0.00    +0.000 A 
ATOM     15  C   UNL     1       3.814   3.643  17.804  0.00  0.00    +0.000 A 
ATOM     16  C   UNL     1       4.094   3.288  19.125  0.00  0.00    +0.000 A 
ATOM     17  C   UNL     1       3.059   3.176  20.061  0.00  0.00    +0.000 A 
BRANCH  12  18
ATOM     18  N   UNL     1       0.714   3.377  20.650  0.00  0.00    +0.000 N 
ATOM     19  H   UNL     1       1.035   3.155  21.588  0.00  0.00    +0.000 HD
ATOM     20  H   UNL     1       0.136   4.212  20.632  0.00  0.00    +0.000 HD
ENDBRANCH  12  18
ENDBRANCH   1  15
TORSDOF 4
ENDMDL
MODEL 2
REMARK VINA RESULT:      -6.8      0.252      1.358
REMARK  Name = 
REMARK  4 active torsions:
REMARK  status: ('A' for Active; 'I' for Inactive)
REMARK    1  A    between atoms: N_1  and  C_2
REMARK    2  A    between atoms: C_5  and  S_6
REMARK    3  A    between atoms: S_6  and  C_7
REMARK    4  A    between atoms: C_13  and  N_14
REMARK                            x       y       z     vdW  Elec       q    Type
REMARK                         _______ _______ _______ _____ _____    ______ ____
ROOT
ATOM      1  S   UNL     1       5.182   3.732  16.516  0.00  0.00    +0.000 S 
ENDROOT
BRANCH   1   2
ATOM      2  C   UNL     1       6.225   5.013  17.200  0.00  0.00    +0.000 A 
ATOM      3  C   UNL     1       7.277   4.617  18.041  0.00  0.00    +0.000 A 
ATOM      4  C   UNL     1       8.123   5.565  18.628  0.00  0.00    +0.000 A 
ATOM      5  C   UNL     1       7.924   6.919  18.382  0.00  0.00    +0.000 A 
ATOM      6  F   UNL     1       8.738   7.818  18.949  0.00  0.00    +0.000 F 
ATOM      7  C   UNL     1       6.888   7.350  17.570  0.00  0.00    +0.000 A 
ATOM      8  C   UNL     1       6.041   6.391  16.996  0.00  0.00    +0.000 A 
BRANCH   8   9
ATOM      9  N   UNL     1       4.941   6.890  16.199  0.00  0.00    +0.000 N 
ATOM     10  O   UNL     1       5.109   6.963  14.975  0.00  0.00    +0.000 OA
ATOM     11  O   UNL     1       3.888   7.148  16.800  0.00  0.00    +0.000 OA
ENDBRANCH   8   9
ENDBRANCH   1   2
BRANCH   1  15
ATOM     12  C   UNL     1       1.698   3.824  19.520  0.00  0.00    +0.000 A 
ATOM     13  C   UNL     1       3.018   3.742  19.966  0.00  0.00    +0.000 A 
ATOM     14  C   UNL     1       4.082   3.705  19.057  0.00  0.00    +0.000 A 
ATOM     15  C   UNL     1       3.834   3.693  17.681  0.00  0.00    +0.000 A 
ATOM     16  C   UNL     1       2.513   3.713  17.230  0.00  0.00    +0.000 A 
ATOM     17  C   UNL     1       1.455   3.755  18.147  0.00  0.00    +0.000 A 
BRANCH  12  18
ATOM     18  N   UNL     1       0.639   3.744  20.431  0.00  0.00    +0.000 N 
ATOM     19  H   UNL     1      -0.165   4.313  20.180  0.00  0.00    +0.000 HD
ATOM     20  H   UNL     1       0.372   2.794  20.669  0.00  0.00    +0.000 HD
ENDBRANCH  12  18
ENDBRANCH   1  15
TORSDOF 4
ENDMDL
MODEL 3
REMARK VINA RESULT:      -6.8      3.584      5.893
REMARK  Name = 
REMARK  4 active torsions:
REMARK  status: ('A' for Active; 'I' for Inactive)
REMARK    1  A    between atoms: N_1  and  C_2
REMARK    2  A    between atoms: C_5  and  S_6
REMARK    3  A    between atoms: S_6  and  C_7
REMARK    4  A    between atoms: C_13  and  N_14
REMARK                            x       y       z     vdW  Elec       q    Type
REMARK                         _______ _______ _______ _____ _____    ______ ____
ROOT
ATOM      1  S   UNL     1       4.219   3.300  19.018  0.00  0.00    +0.000 S 
ENDROOT
BRANCH   1   2
ATOM      2  C   UNL     1       3.235   4.705  19.519  0.00  0.00    +0.000 A 
ATOM      3  C   UNL     1       3.536   5.950  18.944  0.00  0.00    +0.000 A 
ATOM      4  C   UNL     1       2.820   7.099  19.302  0.00  0.00    +0.000 A 
ATOM      5  C   UNL     1       1.798   7.015  20.240  0.00  0.00    +0.000 A 
ATOM      6  F   UNL     1       1.120   8.119  20.577  0.00  0.00    +0.000 F 
ATOM      7  C   UNL     1       1.481   5.808  20.842  0.00  0.00    +0.000 A 
ATOM      8  C   UNL     1       2.212   4.667  20.482  0.00  0.00    +0.000 A 
BRANCH   8   9
ATOM      9  N   UNL     1       1.882   3.439  21.174  0.00  0.00    +0.000 N 
ATOM     10  O   UNL     1       2.409   3.243  22.275  0.00  0.00    +0.000 OA
ATOM     11  O   UNL     1       1.042   2.704  20.635  0.00  0.00    +0.000 OA
ENDBRANCH   8   9
ENDBRANCH   1   2
BRANCH   1  15
ATOM     12  C   UNL     1       6.831   4.903  15.586  0.00  0.00    +0.000 A 
ATOM     13  C   UNL     1       7.276   4.971  16.908  0.00  0.00    +0.000 A 
ATOM     14  C   UNL     1       6.481   4.494  17.957  0.00  0.00    +0.000 A 
ATOM     15  C   UNL     1       5.203   3.989  17.702  0.00  0.00    +0.000 A 
ATOM     16  C   UNL     1       4.731   3.974  16.387  0.00  0.00    +0.000 A 
ATOM     17  C   UNL     1       5.533   4.449  15.343  0.00  0.00    +0.000 A 
BRANCH  12  18
ATOM     18  N   UNL     1       7.581   5.486  14.558  0.00  0.00    +0.000 N 
ATOM     19  H   UNL     1       7.797   4.852  13.794  0.00  0.00    +0.000 HD
ATOM     20  H   UNL     1       7.204   6.368  14.226  0.00  0.00    +0.000 HD
ENDBRANCH  12  18
ENDBRANCH   1  15
TORSDOF 4
ENDMDL
MODEL 4
REMARK VINA RESULT:      -6.8      2.888      3.305
REMARK  Name = 
REMARK  4 active torsions:
REMARK  status: ('A' for Active; 'I' for Inactive)
REMARK    1  A    between atoms: N_1  and  C_2
REMARK    2  A    between atoms: C_5  and  S_6
REMARK    3  A    between atoms: S_6  and  C_7
REMARK    4  A    between atoms: C_13  and  N_14
REMARK                            x       y       z     vdW  Elec       q    Type
REMARK                         _______ _______ _______ _____ _____    ______ ____
ROOT
ATOM      1  S   UNL     1       3.921   7.001  18.274  0.00  0.00    +0.000 S 
ENDROOT
BRANCH   1   2
ATOM      2  C   UNL     1       5.022   6.102  17.188  0.00  0.00    +0.000 A 
ATOM      3  C   UNL     1       4.937   6.365  15.811  0.00  0.00    +0.000 A 
ATOM      4  C   UNL     1       5.753   5.686  14.899  0.00  0.00    +0.000 A 
ATOM      5  C   UNL     1       6.661   4.736  15.353  0.00  0.00    +0.000 A 
ATOM      6  F   UNL     1       7.436   4.091  14.473  0.00  0.00    +0.000 F 
ATOM      7  C   UNL     1       6.763   4.438  16.703  0.00  0.00    +0.000 A 
ATOM      8  C   UNL     1       5.933   5.117  17.605  0.00  0.00    +0.000 A 
BRANCH   8   9
ATOM      9  N   UNL     1       6.037   4.735  18.998  0.00  0.00    +0.000 N 
ATOM     10  O   UNL     1       6.727   5.448  19.736  0.00  0.00    +0.000 OA
ATOM     11  O   UNL     1       5.372   3.753  19.358  0.00  0.00    +0.000 OA
ENDBRANCH   8   9
ENDBRANCH   1   2
BRANCH   1  15
ATOM     12  C   UNL     1       1.131   3.599  19.621  0.00  0.00    +0.000 A 
ATOM     13  C   UNL     1       1.450   3.764  18.271  0.00  0.00    +0.000 A 
ATOM     14  C   UNL     1       2.291   4.802  17.855  0.00  0.00    +0.000 A 
ATOM     15  C   UNL     1       2.782   5.727  18.780  0.00  0.00    +0.000 A 
ATOM     16  C   UNL     1       2.417   5.602  20.122  0.00  0.00    +0.000 A 
ATOM     17  C   UNL     1       1.580   4.557  20.532  0.00  0.00    +0.000 A 
BRANCH  12  18
ATOM     18  N   UNL     1       0.201   2.631  20.013  0.00  0.00    +0.000 N 
ATOM     19  H   UNL     1      -0.607   2.561  19.400  0.00  0.00    +0.000 HD
ATOM     20  H   UNL     1       0.611   1.722  20.207  0.00  0.00    +0.000 HD
ENDBRANCH  12  18
ENDBRANCH   1  15
TORSDOF 4
ENDMDL
MODEL 5
REMARK VINA RESULT:      -6.8      2.866      3.386
REMARK  Name = 
REMARK  4 active torsions:
REMARK  status: ('A' for Active; 'I' for Inactive)
REMARK    1  A    between atoms: N_1  and  C_2
REMARK    2  A    between atoms: C_5  and  S_6
REMARK    3  A    between atoms: S_6  and  C_7
REMARK    4  A    between atoms: C_13  and  N_14
REMARK                            x       y       z     vdW  Elec       q    Type
REMARK                         _______ _______ _______ _____ _____    ______ ____
ROOT
ATOM      1  S   UNL     1       3.898   6.955  18.259  0.00  0.00    +0.000 S 
ENDROOT
BRANCH   1   2
ATOM      2  C   UNL     1       5.047   6.097  17.192  0.00  0.00    +0.000 A 
ATOM      3  C   UNL     1       4.973   6.353  15.814  0.00  0.00    +0.000 A 
ATOM      4  C   UNL     1       5.828   5.704  14.915  0.00  0.00    +0.000 A 
ATOM      5  C   UNL     1       6.765   4.791  15.385  0.00  0.00    +0.000 A 
ATOM      6  F   UNL     1       7.577   4.174  14.518  0.00  0.00    +0.000 F 
ATOM      7  C   UNL     1       6.859   4.500  16.737  0.00  0.00    +0.000 A 
ATOM      8  C   UNL     1       5.990   5.149  17.625  0.00  0.00    +0.000 A 
BRANCH   8   9
ATOM      9  N   UNL     1       6.089   4.775  19.020  0.00  0.00    +0.000 N 
ATOM     10  O   UNL     1       5.494   3.753  19.382  0.00  0.00    +0.000 OA
ATOM     11  O   UNL     1       6.818   5.477  19.735  0.00  0.00    +0.000 OA
ENDBRANCH   8   9
ENDBRANCH   1   2
BRANCH   1  15
ATOM     12  C   UNL     1       1.004   3.644  19.616  0.00  0.00    +0.000 A 
ATOM     13  C   UNL     1       1.578   4.512  20.547  0.00  0.00    +0.000 A 
ATOM     14  C   UNL     1       2.466   5.515  20.142  0.00  0.00    +0.000 A 
ATOM     15  C   UNL     1       2.836   5.629  18.799  0.00  0.00    +0.000 A 
ATOM     16  C   UNL     1       2.311   4.726  17.872  0.00  0.00    +0.000 A 
ATOM     17  C   UNL     1       1.420   3.728  18.285  0.00  0.00    +0.000 A 
BRANCH  12  18
ATOM     18  N   UNL     1       0.210   2.575  20.042  0.00  0.00    +0.000 N 
ATOM     19  H   UNL     1      -0.067   2.629  21.018  0.00  0.00    +0.000 HD
ATOM     20  H   UNL     1      -0.579   2.381  19.433  0.00  0.00    +0.000 HD
ENDBRANCH  12  18
ENDBRANCH   1  15
TORSDOF 4
ENDMDL
MODEL 6
REMARK VINA RESULT:      -6.8      3.490      6.109
REMARK  Name = 
REMARK  4 active torsions:
REMARK  status: ('A' for Active; 'I' for Inactive)
REMARK    1  A    between atoms: N_1  and  C_2
REMARK    2  A    between atoms: C_5  and  S_6
REMARK    3  A    between atoms: S_6  and  C_7
REMARK    4  A    between atoms: C_13  and  N_14
REMARK                            x       y       z     vdW  Elec       q    Type
REMARK                         _______ _______ _______ _____ _____    ______ ____
ROOT
ATOM      1  S   UNL     1       4.993   3.889  16.887  0.00  0.00    +0.000 S 
ENDROOT
BRANCH   1   2
ATOM      2  C   UNL     1       3.610   4.001  18.014  0.00  0.00    +0.000 A 
ATOM      3  C   UNL     1       2.782   5.131  17.921  0.00  0.00    +0.000 A 
ATOM      4  C   UNL     1       1.692   5.297  18.782  0.00  0.00    +0.000 A 
ATOM      5  C   UNL     1       1.419   4.335  19.748  0.00  0.00    +0.000 A 
ATOM      6  F   UNL     1       0.374   4.503  20.569  0.00  0.00    +0.000 F 
ATOM      7  C   UNL     1       2.221   3.213  19.882  0.00  0.00    +0.000 A 
ATOM      8  C   UNL     1       3.316   3.064  19.020  0.00  0.00    +0.000 A 
BRANCH   8   9
ATOM      9  N   UNL     1       4.156   1.904  19.231  0.00  0.00    +0.000 N 
ATOM     10  O   UNL     1       5.010   1.971  20.123  0.00  0.00    +0.000 OA
ATOM     11  O   UNL     1       3.911   0.906  18.539  0.00  0.00    +0.000 OA
ENDBRANCH   8   9
ENDBRANCH   1   2
BRANCH   1  15
ATOM     12  C   UNL     1       7.905   7.145  18.333  0.00  0.00    +0.000 A 
ATOM     13  C   UNL     1       7.775   5.946  19.036  0.00  0.00    +0.000 A 
ATOM     14  C   UNL     1       6.884   4.956  18.606  0.00  0.00    +0.000 A 
ATOM     15  C   UNL     1       6.067   5.175  17.493  0.00  0.00    +0.000 A 
ATOM     16  C   UNL     1       6.151   6.397  16.822  0.00  0.00    +0.000 A 
ATOM     17  C   UNL     1       7.048   7.381  17.256  0.00  0.00    +0.000 A 
BRANCH  12  18
ATOM     18  N   UNL     1       8.711   8.173  18.833  0.00  0.00    +0.000 N 
ATOM     19  H   UNL     1       8.892   8.108  19.831  0.00  0.00    +0.000 HD
ATOM     20  H   UNL     1       9.563   8.323  18.301  0.00  0.00    +0.000 HD
ENDBRANCH  12  18
ENDBRANCH   1  15
TORSDOF 4
ENDMDL
MODEL 7
REMARK VINA RESULT:      -6.8      1.286      1.490
REMARK  Name = 
REMARK  4 active torsions:
REMARK  status: ('A' for Active; 'I' for Inactive)
REMARK    1  A    between atoms: N_1  and  C_2
REMARK    2  A    between atoms: C_5  and  S_6
REMARK    3  A    between atoms: S_6  and  C_7
REMARK    4  A    between atoms: C_13  and  N_14
REMARK                            x       y       z     vdW  Elec       q    Type
REMARK                         _______ _______ _______ _____ _____    ______ ____
ROOT
ATOM      1  S   UNL     1       3.911   3.981  17.123  0.00  0.00    +0.000 S 
ENDROOT
BRANCH   1   2
ATOM      2  C   UNL     1       5.360   4.917  17.592  0.00  0.00    +0.000 A 
ATOM      3  C   UNL     1       5.754   4.878  18.939  0.00  0.00    +0.000 A 
ATOM      4  C   UNL     1       6.868   5.601  19.384  0.00  0.00    +0.000 A 
ATOM      5  C   UNL     1       7.597   6.372  18.486  0.00  0.00    +0.000 A 
ATOM      6  F   UNL     1       8.660   7.061  18.921  0.00  0.00    +0.000 F 
ATOM      7  C   UNL     1       7.231   6.448  17.152  0.00  0.00    +0.000 A 
ATOM      8  C   UNL     1       6.108   5.728  16.721  0.00  0.00    +0.000 A 
BRANCH   8   9
ATOM      9  N   UNL     1       5.733   5.879  15.331  0.00  0.00    +0.000 N 
ATOM     10  O   UNL     1       5.071   6.877  15.023  0.00  0.00    +0.000 OA
ATOM     11  O   UNL     1       6.160   5.024  14.542  0.00  0.00    +0.000 OA
ENDBRANCH   8   9
ENDBRANCH   1   2
BRANCH   1  15
ATOM     12  C   UNL     1       1.910   2.910  21.126  0.00  0.00    +0.000 A 
ATOM     13  C   UNL     1       1.435   3.974  20.357  0.00  0.00    +0.000 A 
ATOM     14  C   UNL     1       2.046   4.310  19.143  0.00  0.00    +0.000 A 
ATOM     15  C   UNL     1       3.179   3.618  18.707  0.00  0.00    +0.000 A 
ATOM     16  C   UNL     1       3.693   2.592  19.502  0.00  0.00    +0.000 A 
ATOM     17  C   UNL     1       3.074   2.258  20.713  0.00  0.00    +0.000 A 
BRANCH  12  18
ATOM     18  N   UNL     1       1.367   2.655  22.390  0.00  0.00    +0.000 N 
ATOM     19  H   UNL     1       1.348   1.670  22.640  0.00  0.00    +0.000 HD
ATOM     20  H   UNL     1       1.761   3.228  23.129  0.00  0.00    +0.000 HD
ENDBRANCH  12  18
ENDBRANCH   1  15
TORSDOF 4
ENDMDL
MODEL 8
REMARK VINA RESULT:      -6.7      3.302      5.971
REMARK  Name = 
REMARK  4 active torsions:
REMARK  status: ('A' for Active; 'I' for Inactive)
REMARK    1  A    between atoms: N_1  and  C_2
REMARK    2  A    between atoms: C_5  and  S_6
REMARK    3  A    between atoms: S_6  and  C_7
REMARK    4  A    between atoms: C_13  and  N_14
REMARK                            x       y       z     vdW  Elec       q    Type
REMARK                         _______ _______ _______ _____ _____    ______ ____
ROOT
ATOM      1  S   UNL     1       5.198   5.085  19.323  0.00  0.00    +0.000 S 
ENDROOT
BRANCH   1   2
ATOM      2  C   UNL     1       3.688   4.148  19.125  0.00  0.00    +0.000 A 
ATOM      3  C   UNL     1       3.801   2.797  18.759  0.00  0.00    +0.000 A 
ATOM      4  C   UNL     1       2.663   2.006  18.568  0.00  0.00    +0.000 A 
ATOM      5  C   UNL     1       1.398   2.558  18.738  0.00  0.00    +0.000 A 
ATOM      6  F   UNL     1       0.315   1.794  18.552  0.00  0.00    +0.000 F 
ATOM      7  C   UNL     1       1.244   3.891  19.084  0.00  0.00    +0.000 A 
ATOM      8  C   UNL     1       2.392   4.675  19.263  0.00  0.00    +0.000 A 
BRANCH   8   9
ATOM      9  N   UNL     1       2.182   6.074  19.572  0.00  0.00    +0.000 N 
ATOM     10  O   UNL     1       2.357   6.893  18.663  0.00  0.00    +0.000 OA
ATOM     11  O   UNL     1       1.780   6.338  20.714  0.00  0.00    +0.000 OA
ENDBRANCH   8   9
ENDBRANCH   1   2
BRANCH   1  15
ATOM     12  C   UNL     1       6.712   5.064  14.978  0.00  0.00    +0.000 A 
ATOM     13  C   UNL     1       7.531   4.619  16.017  0.00  0.00    +0.000 A 
ATOM     14  C   UNL     1       7.079   4.632  17.342  0.00  0.00    +0.000 A 
ATOM     15  C   UNL     1       5.816   5.144  17.652  0.00  0.00    +0.000 A 
ATOM     16  C   UNL     1       5.016   5.645  16.623  0.00  0.00    +0.000 A 
ATOM     17  C   UNL     1       5.474   5.625  15.300  0.00  0.00    +0.000 A 
BRANCH  12  18
ATOM     18  N   UNL     1       7.212   5.156  13.674  0.00  0.00    +0.000 N 
ATOM     19  H   UNL     1       6.496   5.277  12.964  0.00  0.00    +0.000 HD
ATOM     20  H   UNL     1       7.968   5.827  13.571  0.00  0.00    +0.000 HD
ENDBRANCH  12  18
ENDBRANCH   1  15
TORSDOF 4
ENDMDL
MODEL 9
REMARK VINA RESULT:      -6.7      0.987      1.125
REMARK  Name = 
REMARK  4 active torsions:
REMARK  status: ('A' for Active; 'I' for Inactive)
REMARK    1  A    between atoms: N_1  and  C_2
REMARK    2  A    between atoms: C_5  and  S_6
REMARK    3  A    between atoms: S_6  and  C_7
REMARK    4  A    between atoms: C_13  and  N_14
REMARK                            x       y       z     vdW  Elec       q    Type
REMARK                         _______ _______ _______ _____ _____    ______ ____
ROOT
ATOM      1  S   UNL     1       5.128   3.435  16.644  0.00  0.00    +0.000 S 
ENDROOT
BRANCH   1   2
ATOM      2  C   UNL     1       6.182   4.737  17.268  0.00  0.00    +0.000 A 
ATOM      3  C   UNL     1       6.614   4.645  18.601  0.00  0.00    +0.000 A 
ATOM      4  C   UNL     1       7.425   5.637  19.165  0.00  0.00    +0.000 A 
ATOM      5  C   UNL     1       7.810   6.733  18.402  0.00  0.00    +0.000 A 
ATOM      6  F   UNL     1       8.585   7.678  18.949  0.00  0.00    +0.000 F 
ATOM      7  C   UNL     1       7.392   6.869  17.088  0.00  0.00    +0.000 A 
ATOM      8  C   UNL     1       6.571   5.874  16.538  0.00  0.00    +0.000 A 
BRANCH   8   9
ATOM      9  N   UNL     1       6.116   6.083  15.180  0.00  0.00    +0.000 N 
ATOM     10  O   UNL     1       5.137   6.821  15.013  0.00  0.00    +0.000 OA
ATOM     11  O   UNL     1       6.784   5.555  14.280  0.00  0.00    +0.000 OA
ENDBRANCH   8   9
ENDBRANCH   1   2
BRANCH   1  15
ATOM     12  C   UNL     1       1.528   3.436  19.510  0.00  0.00    +0.000 A 
ATOM     13  C   UNL     1       1.869   4.588  18.798  0.00  0.00    +0.000 A 
ATOM     14  C   UNL     1       2.969   4.596  17.932  0.00  0.00    +0.000 A 
ATOM     15  C   UNL     1       3.779   3.463  17.808  0.00  0.00    +0.000 A 
ATOM     16  C   UNL     1       3.477   2.328  18.564  0.00  0.00    +0.000 A 
ATOM     17  C   UNL     1       2.372   2.327  19.424  0.00  0.00    +0.000 A 
BRANCH  12  18
ATOM     18  N   UNL     1       0.500   3.470  20.458  0.00  0.00    +0.000 N 
ATOM     19  H   UNL     1      -0.249   2.809  20.279  0.00  0.00    +0.000 HD
ATOM     20  H   UNL     1       0.826   3.426  21.419  0.00  0.00    +0.000 HD
ENDBRANCH  12  18
ENDBRANCH   1  15
TORSDOF 4
ENDMDL
