MODEL 1
REMARK VINA RESULT:      -7.6      0.000      0.000
REMARK  Name = 
REMARK  10 active torsions:
REMARK  status: ('A' for Active; 'I' for Inactive)
REMARK    1  A    between atoms: C_1  and  O_2
REMARK    2  A    between atoms: O_2  and  C_3
REMARK    3  A    between atoms: C_7  and  C_8
REMARK    4  A    between atoms: C_9  and  C_10
REMARK    5  A    between atoms: C_10  and  O_12
REMARK    6  A    between atoms: O_12  and  C_13
REMARK    7  A    between atoms: C_13  and  C_14
REMARK    8  A    between atoms: C_22  and  O_23
REMARK    9  A    between atoms: O_23  and  S_24
REMARK   10  A    between atoms: S_24  and  O_27
REMARK                            x       y       z     vdW  Elec       q    Type
REMARK                         _______ _______ _______ _____ _____    ______ ____
ROOT
ATOM      1  C   UNL     1       5.893   4.267  16.862  0.00  0.00    +0.000 A 
ATOM      2  C   UNL     1       4.774   3.449  16.649  0.00  0.00    +0.000 A 
ATOM      3  C   UNL     1       3.798   3.426  17.643  0.00  0.00    +0.000 A 
ATOM      4  O   UNL     1       2.664   2.692  17.580  0.00  0.00    +0.000 OA
ATOM      5  C   UNL     1       1.955   2.942  18.713  0.00  0.00    +0.000 A 
ATOM      6  C   UNL     1       0.652   2.245  18.804  0.00  0.00    +0.000 C 
ATOM      7  C   UNL     1       2.637   3.841  19.526  0.00  0.00    +0.000 A 
ATOM      8  C   UNL     1       3.855   4.146  18.825  0.00  0.00    +0.000 A 
ATOM      9  C   UNL     1       4.995   4.947  19.038  0.00  0.00    +0.000 A 
ATOM     10  C   UNL     1       6.008   5.004  18.052  0.00  0.00    +0.000 A 
ENDROOT
BRANCH   1  12
ATOM     11  C   UNL     1       6.525   4.333  14.584  0.00  0.00    +0.000 C 
ATOM     12  O   UNL     1       6.930   4.311  15.959  0.00  0.00    +0.000 OA
ENDBRANCH   1  12
BRANCH   7  13
ATOM     13  C   UNL     1       2.122   4.370  20.782  0.00  0.00    +0.000 C 
ATOM     14  O   UNL     1       2.351   3.862  21.868  0.00  0.00    +0.000 OA
BRANCH  13  15
ATOM     15  O   UNL     1       1.292   5.435  20.588  0.00  0.00    +0.000 OA
BRANCH  15  16
ATOM     16  C   UNL     1       1.791   6.708  21.016  0.00  0.00    +0.000 C 
BRANCH  16  17
ATOM     17  C   UNL     1       1.743   7.734  19.914  0.00  0.00    +0.000 A 
ATOM     18  C   UNL     1       1.095   8.963  20.098  0.00  0.00    +0.000 A 
ATOM     19  C   UNL     1       1.113   9.931  19.090  0.00  0.00    +0.000 A 
ATOM     20  C   UNL     1       1.781   9.683  17.892  0.00  0.00    +0.000 A 
ATOM     21  C   UNL     1       2.432   8.466  17.700  0.00  0.00    +0.000 A 
ATOM     22  C   UNL     1       2.414   7.498  18.706  0.00  0.00    +0.000 A 
ENDBRANCH  16  17
ENDBRANCH  15  16
ENDBRANCH  13  15
ENDBRANCH   7  13
BRANCH  10  23
ATOM     23  O   UNL     1       7.093   5.762  18.426  0.00  0.00    +0.000 OA
BRANCH  23  24
ATOM     24  S   UNL     1       7.439   7.231  17.817  0.00  0.00    +0.000 S 
ATOM     25  O   UNL     1       6.219   7.972  17.574  0.00  0.00    +0.000 OA
ATOM     26  O   UNL     1       8.498   7.802  18.622  0.00  0.00    +0.000 OA
BRANCH  24  27
ATOM     27  O   UNL     1       8.079   6.895  16.373  0.00  0.00    +0.000 OA
ATOM     28  H   UNL     1       8.106   7.738  15.871  0.00  0.00    +0.000 HD
ENDBRANCH  24  27
ENDBRANCH  23  24
ENDBRANCH  10  23
TORSDOF 8
ENDMDL
MODEL 2
REMARK VINA RESULT:      -7.2      0.920      1.198
REMARK  Name = 
REMARK  10 active torsions:
REMARK  status: ('A' for Active; 'I' for Inactive)
REMARK    1  A    between atoms: C_1  and  O_2
REMARK    2  A    between atoms: O_2  and  C_3
REMARK    3  A    between atoms: C_7  and  C_8
REMARK    4  A    between atoms: C_9  and  C_10
REMARK    5  A    between atoms: C_10  and  O_12
REMARK    6  A    between atoms: O_12  and  C_13
REMARK    7  A    between atoms: C_13  and  C_14
REMARK    8  A    between atoms: C_22  and  O_23
REMARK    9  A    between atoms: O_23  and  S_24
REMARK   10  A    between atoms: S_24  and  O_27
REMARK                            x       y       z     vdW  Elec       q    Type
REMARK                         _______ _______ _______ _____ _____    ______ ____
ROOT
ATOM      1  C   UNL     1       5.144   4.859  16.493  0.00  0.00    +0.000 A 
ATOM      2  C   UNL     1       4.138   3.895  16.334  0.00  0.00    +0.000 A 
ATOM      3  C   UNL     1       3.250   3.715  17.392  0.00  0.00    +0.000 A 
ATOM      4  O   UNL     1       2.227   2.828  17.386  0.00  0.00    +0.000 OA
ATOM      5  C   UNL     1       1.575   2.953  18.573  0.00  0.00    +0.000 A 
ATOM      6  C   UNL     1       0.393   2.077  18.733  0.00  0.00    +0.000 C 
ATOM      7  C   UNL     1       2.183   3.923  19.363  0.00  0.00    +0.000 A 
ATOM      8  C   UNL     1       3.292   4.411  18.589  0.00  0.00    +0.000 A 
ATOM      9  C   UNL     1       4.322   5.360  18.746  0.00  0.00    +0.000 A 
ATOM     10  C   UNL     1       5.242   5.580  17.694  0.00  0.00    +0.000 A 
ENDROOT
BRANCH   1  12
ATOM     11  C   UNL     1       6.118   4.078  14.485  0.00  0.00    +0.000 C 
ATOM     12  O   UNL     1       6.096   5.067  15.522  0.00  0.00    +0.000 OA
ENDBRANCH   1  12
BRANCH   7  13
ATOM     13  C   UNL     1       1.693   4.348  20.667  0.00  0.00    +0.000 C 
ATOM     14  O   UNL     1       1.727   3.639  21.660  0.00  0.00    +0.000 OA
BRANCH  13  15
ATOM     15  O   UNL     1       1.117   5.584  20.621  0.00  0.00    +0.000 OA
BRANCH  15  16
ATOM     16  C   UNL     1       1.986   6.692  20.886  0.00  0.00    +0.000 C 
BRANCH  16  17
ATOM     17  C   UNL     1       1.594   7.918  20.104  0.00  0.00    +0.000 A 
ATOM     18  C   UNL     1       0.801   8.922  20.679  0.00  0.00    +0.000 A 
ATOM     19  C   UNL     1       0.499  10.083  19.963  0.00  0.00    +0.000 A 
ATOM     20  C   UNL     1       0.986  10.255  18.668  0.00  0.00    +0.000 A 
ATOM     21  C   UNL     1       1.778   9.266  18.088  0.00  0.00    +0.000 A 
ATOM     22  C   UNL     1       2.080   8.105  18.802  0.00  0.00    +0.000 A 
ENDBRANCH  16  17
ENDBRANCH  15  16
ENDBRANCH  13  15
ENDBRANCH   7  13
BRANCH  10  23
ATOM     23  O   UNL     1       6.235   6.476  18.015  0.00  0.00    +0.000 OA
BRANCH  23  24
ATOM     24  S   UNL     1       7.619   6.077  18.774  0.00  0.00    +0.000 S 
ATOM     25  O   UNL     1       8.540   7.193  18.755  0.00  0.00    +0.000 OA
ATOM     26  O   UNL     1       7.266   5.436  20.023  0.00  0.00    +0.000 OA
BRANCH  24  27
ATOM     27  O   UNL     1       8.249   4.933  17.824  0.00  0.00    +0.000 OA
ATOM     28  H   UNL     1       7.633   4.819  17.069  0.00  0.00    +0.000 HD
ENDBRANCH  24  27
ENDBRANCH  23  24
ENDBRANCH  10  23
TORSDOF 8
ENDMDL
MODEL 3
REMARK VINA RESULT:      -7.2      0.388      1.007
REMARK  Name = 
REMARK  10 active torsions:
REMARK  status: ('A' for Active; 'I' for Inactive)
REMARK    1  A    between atoms: C_1  and  O_2
REMARK    2  A    between atoms: O_2  and  C_3
REMARK    3  A    between atoms: C_7  and  C_8
REMARK    4  A    between atoms: C_9  and  C_10
REMARK    5  A    between atoms: C_10  and  O_12
REMARK    6  A    between atoms: O_12  and  C_13
REMARK    7  A    between atoms: C_13  and  C_14
REMARK    8  A    between atoms: C_22  and  O_23
REMARK    9  A    between atoms: O_23  and  S_24
REMARK   10  A    between atoms: S_24  and  O_27
REMARK                            x       y       z     vdW  Elec       q    Type
REMARK                         _______ _______ _______ _____ _____    ______ ____
ROOT
ATOM      1  C   UNL     1       5.741   4.134  16.657  0.00  0.00    +0.000 A 
ATOM      2  C   UNL     1       4.575   3.371  16.503  0.00  0.00    +0.000 A 
ATOM      3  C   UNL     1       3.685   3.335  17.574  0.00  0.00    +0.000 A 
ATOM      4  O   UNL     1       2.519   2.649  17.574  0.00  0.00    +0.000 OA
ATOM      5  C   UNL     1       1.918   2.870  18.774  0.00  0.00    +0.000 A 
ATOM      6  C   UNL     1       0.599   2.220  18.943  0.00  0.00    +0.000 C 
ATOM      7  C   UNL     1       2.703   3.700  19.567  0.00  0.00    +0.000 A 
ATOM      8  C   UNL     1       3.870   3.992  18.780  0.00  0.00    +0.000 A 
ATOM      9  C   UNL     1       5.057   4.738  18.931  0.00  0.00    +0.000 A 
ATOM     10  C   UNL     1       5.985   4.804  17.866  0.00  0.00    +0.000 A 
ENDROOT
BRANCH   1  12
ATOM     11  C   UNL     1       6.208   4.542  14.375  0.00  0.00    +0.000 C 
ATOM     12  O   UNL     1       6.700   4.182  15.673  0.00  0.00    +0.000 OA
ENDBRANCH   1  12
BRANCH   7  13
ATOM     13  C   UNL     1       2.317   4.185  20.885  0.00  0.00    +0.000 C 
ATOM     14  O   UNL     1       1.780   3.483  21.726  0.00  0.00    +0.000 OA
BRANCH  13  15
ATOM     15  O   UNL     1       2.546   5.523  21.027  0.00  0.00    +0.000 OA
BRANCH  15  16
ATOM     16  C   UNL     1       1.406   6.376  20.865  0.00  0.00    +0.000 C 
BRANCH  16  17
ATOM     17  C   UNL     1       1.665   7.485  19.879  0.00  0.00    +0.000 A 
ATOM     18  C   UNL     1       2.397   7.254  18.706  0.00  0.00    +0.000 A 
ATOM     19  C   UNL     1       2.575   8.276  17.769  0.00  0.00    +0.000 A 
ATOM     20  C   UNL     1       2.022   9.536  17.994  0.00  0.00    +0.000 A 
ATOM     21  C   UNL     1       1.289   9.775  19.154  0.00  0.00    +0.000 A 
ATOM     22  C   UNL     1       1.112   8.756  20.091  0.00  0.00    +0.000 A 
ENDBRANCH  16  17
ENDBRANCH  15  16
ENDBRANCH  13  15
ENDBRANCH   7  13
BRANCH  10  23
ATOM     23  O   UNL     1       7.130   5.501  18.182  0.00  0.00    +0.000 OA
BRANCH  23  24
ATOM     24  S   UNL     1       7.425   7.034  17.723  0.00  0.00    +0.000 S 
ATOM     25  O   UNL     1       6.181   7.751  17.542  0.00  0.00    +0.000 OA
ATOM     26  O   UNL     1       8.458   7.561  18.590  0.00  0.00    +0.000 OA
BRANCH  24  27
ATOM     27  O   UNL     1       8.085   6.865  16.259  0.00  0.00    +0.000 OA
ATOM     28  H   UNL     1       9.021   6.604  16.397  0.00  0.00    +0.000 HD
ENDBRANCH  24  27
ENDBRANCH  23  24
ENDBRANCH  10  23
TORSDOF 8
ENDMDL
MODEL 4
REMARK VINA RESULT:      -7.0      3.099      4.996
REMARK  Name = 
REMARK  10 active torsions:
REMARK  status: ('A' for Active; 'I' for Inactive)
REMARK    1  A    between atoms: C_1  and  O_2
REMARK    2  A    between atoms: O_2  and  C_3
REMARK    3  A    between atoms: C_7  and  C_8
REMARK    4  A    between atoms: C_9  and  C_10
REMARK    5  A    between atoms: C_10  and  O_12
REMARK    6  A    between atoms: O_12  and  C_13
REMARK    7  A    between atoms: C_13  and  C_14
REMARK    8  A    between atoms: C_22  and  O_23
REMARK    9  A    between atoms: O_23  and  S_24
REMARK   10  A    between atoms: S_24  and  O_27
REMARK                            x       y       z     vdW  Elec       q    Type
REMARK                         _______ _______ _______ _____ _____    ______ ____
ROOT
ATOM      1  C   UNL     1       3.595   5.001  18.874  0.00  0.00    +0.000 A 
ATOM      2  C   UNL     1       2.836   5.433  19.970  0.00  0.00    +0.000 A 
ATOM      3  C   UNL     1       2.286   6.711  19.904  0.00  0.00    +0.000 A 
ATOM      4  O   UNL     1       1.528   7.266  20.878  0.00  0.00    +0.000 OA
ATOM      5  C   UNL     1       1.158   8.503  20.450  0.00  0.00    +0.000 A 
ATOM      6  C   UNL     1       0.285   9.253  21.381  0.00  0.00    +0.000 C 
ATOM      7  C   UNL     1       1.686   8.760  19.190  0.00  0.00    +0.000 A 
ATOM      8  C   UNL     1       2.438   7.586  18.841  0.00  0.00    +0.000 A 
ATOM      9  C   UNL     1       3.223   7.148  17.754  0.00  0.00    +0.000 A 
ATOM     10  C   UNL     1       3.796   5.855  17.778  0.00  0.00    +0.000 A 
ENDROOT
BRANCH   1  12
ATOM     11  C   UNL     1       3.429   2.700  18.353  0.00  0.00    +0.000 C 
ATOM     12  O   UNL     1       4.221   3.775  18.875  0.00  0.00    +0.000 OA
ENDBRANCH   1  12
BRANCH   7  13
ATOM     13  C   UNL     1       1.425   9.968  18.418  0.00  0.00    +0.000 C 
ATOM     14  O   UNL     1       2.308  10.660  17.936  0.00  0.00    +0.000 OA
BRANCH  13  15
ATOM     15  O   UNL     1       0.096  10.274  18.378  0.00  0.00    +0.000 OA
BRANCH  15  16
ATOM     16  C   UNL     1      -0.694   9.526  17.446  0.00  0.00    +0.000 C 
BRANCH  16  17
ATOM     17  C   UNL     1      -2.032  10.170  17.194  0.00  0.00    +0.000 A 
ATOM     18  C   UNL     1      -2.681  10.907  18.194  0.00  0.00    +0.000 A 
ATOM     19  C   UNL     1      -3.892  11.552  17.927  0.00  0.00    +0.000 A 
ATOM     20  C   UNL     1      -4.464  11.469  16.659  0.00  0.00    +0.000 A 
ATOM     21  C   UNL     1      -3.826  10.743  15.656  0.00  0.00    +0.000 A 
ATOM     22  C   UNL     1      -2.618  10.097  15.921  0.00  0.00    +0.000 A 
ENDBRANCH  16  17
ENDBRANCH  15  16
ENDBRANCH  13  15
ENDBRANCH   7  13
BRANCH  10  23
ATOM     23  O   UNL     1       4.597   5.593  16.690  0.00  0.00    +0.000 OA
BRANCH  23  24
ATOM     24  S   UNL     1       6.224   5.608  16.725  0.00  0.00    +0.000 S 
ATOM     25  O   UNL     1       6.751   5.862  15.401  0.00  0.00    +0.000 OA
ATOM     26  O   UNL     1       6.631   6.428  17.847  0.00  0.00    +0.000 OA
BRANCH  24  27
ATOM     27  O   UNL     1       6.605   4.084  17.098  0.00  0.00    +0.000 OA
ATOM     28  H   UNL     1       5.796   3.671  17.468  0.00  0.00    +0.000 HD
ENDBRANCH  24  27
ENDBRANCH  23  24
ENDBRANCH  10  23
TORSDOF 8
ENDMDL
MODEL 5
REMARK VINA RESULT:      -7.0      2.822      4.688
REMARK  Name = 
REMARK  10 active torsions:
REMARK  status: ('A' for Active; 'I' for Inactive)
REMARK    1  A    between atoms: C_1  and  O_2
REMARK    2  A    between atoms: O_2  and  C_3
REMARK    3  A    between atoms: C_7  and  C_8
REMARK    4  A    between atoms: C_9  and  C_10
REMARK    5  A    between atoms: C_10  and  O_12
REMARK    6  A    between atoms: O_12  and  C_13
REMARK    7  A    between atoms: C_13  and  C_14
REMARK    8  A    between atoms: C_22  and  O_23
REMARK    9  A    between atoms: O_23  and  S_24
REMARK   10  A    between atoms: S_24  and  O_27
REMARK                            x       y       z     vdW  Elec       q    Type
REMARK                         _______ _______ _______ _____ _____    ______ ____
ROOT
ATOM      1  C   UNL     1       5.248   5.109  17.601  0.00  0.00    +0.000 A 
ATOM      2  C   UNL     1       4.683   6.235  16.986  0.00  0.00    +0.000 A 
ATOM      3  C   UNL     1       3.704   6.929  17.694  0.00  0.00    +0.000 A 
ATOM      4  O   UNL     1       3.072   8.034  17.236  0.00  0.00    +0.000 OA
ATOM      5  C   UNL     1       2.207   8.437  18.205  0.00  0.00    +0.000 A 
ATOM      6  C   UNL     1       1.444   9.667  17.892  0.00  0.00    +0.000 C 
ATOM      7  C   UNL     1       2.269   7.583  19.300  0.00  0.00    +0.000 A 
ATOM      8  C   UNL     1       3.244   6.585  18.955  0.00  0.00    +0.000 A 
ATOM      9  C   UNL     1       3.804   5.437  19.553  0.00  0.00    +0.000 A 
ATOM     10  C   UNL     1       4.805   4.706  18.871  0.00  0.00    +0.000 A 
ENDROOT
BRANCH   1  12
ATOM     11  C   UNL     1       7.543   4.623  17.300  0.00  0.00    +0.000 C 
ATOM     12  O   UNL     1       6.182   4.333  16.954  0.00  0.00    +0.000 OA
ENDBRANCH   1  12
BRANCH   7  13
ATOM     13  C   UNL     1       1.520   7.771  20.535  0.00  0.00    +0.000 C 
ATOM     14  O   UNL     1       0.975   6.857  21.134  0.00  0.00    +0.000 OA
BRANCH  13  15
ATOM     15  O   UNL     1       1.429   9.086  20.885  0.00  0.00    +0.000 OA
BRANCH  15  16
ATOM     16  C   UNL     1       0.813   9.359  22.150  0.00  0.00    +0.000 C 
BRANCH  16  17
ATOM     17  C   UNL     1      -0.277  10.393  22.038  0.00  0.00    +0.000 A 
ATOM     18  C   UNL     1      -1.059  10.743  23.147  0.00  0.00    +0.000 A 
ATOM     19  C   UNL     1      -2.024  11.749  23.044  0.00  0.00    +0.000 A 
ATOM     20  C   UNL     1      -2.214  12.416  21.835  0.00  0.00    +0.000 A 
ATOM     21  C   UNL     1      -1.440  12.079  20.728  0.00  0.00    +0.000 A 
ATOM     22  C   UNL     1      -0.477  11.073  20.828  0.00  0.00    +0.000 A 
ENDBRANCH  16  17
ENDBRANCH  15  16
ENDBRANCH  13  15
ENDBRANCH   7  13
BRANCH  10  23
ATOM     23  O   UNL     1       5.202   3.570  19.538  0.00  0.00    +0.000 OA
BRANCH  23  24
ATOM     24  S   UNL     1       4.247   2.277  19.794  0.00  0.00    +0.000 S 
ATOM     25  O   UNL     1       3.434   2.479  20.974  0.00  0.00    +0.000 OA
ATOM     26  O   UNL     1       3.634   1.928  18.529  0.00  0.00    +0.000 OA
BRANCH  24  27
ATOM     27  O   UNL     1       5.297   1.101  20.144  0.00  0.00    +0.000 OA
ATOM     28  H   UNL     1       5.846   0.962  19.343  0.00  0.00    +0.000 HD
ENDBRANCH  24  27
ENDBRANCH  23  24
ENDBRANCH  10  23
TORSDOF 8
ENDMDL
MODEL 6
REMARK VINA RESULT:      -6.9      0.886      1.549
REMARK  Name = 
REMARK  10 active torsions:
REMARK  status: ('A' for Active; 'I' for Inactive)
REMARK    1  A    between atoms: C_1  and  O_2
REMARK    2  A    between atoms: O_2  and  C_3
REMARK    3  A    between atoms: C_7  and  C_8
REMARK    4  A    between atoms: C_9  and  C_10
REMARK    5  A    between atoms: C_10  and  O_12
REMARK    6  A    between atoms: O_12  and  C_13
REMARK    7  A    between atoms: C_13  and  C_14
REMARK    8  A    between atoms: C_22  and  O_23
REMARK    9  A    between atoms: O_23  and  S_24
REMARK   10  A    between atoms: S_24  and  O_27
REMARK                            x       y       z     vdW  Elec       q    Type
REMARK                         _______ _______ _______ _____ _____    ______ ____
ROOT
ATOM      1  C   UNL     1       5.310   5.260  16.120  0.00  0.00    +0.000 A 
ATOM      2  C   UNL     1       4.580   4.067  16.211  0.00  0.00    +0.000 A 
ATOM      3  C   UNL     1       3.792   3.883  17.345  0.00  0.00    +0.000 A 
ATOM      4  O   UNL     1       3.029   2.788  17.573  0.00  0.00    +0.000 OA
ATOM      5  C   UNL     1       2.393   2.978  18.761  0.00  0.00    +0.000 A 
ATOM      6  C   UNL     1       1.477   1.886  19.162  0.00  0.00    +0.000 C 
ATOM      7  C   UNL     1       2.751   4.202  19.315  0.00  0.00    +0.000 A 
ATOM      8  C   UNL     1       3.681   4.787  18.388  0.00  0.00    +0.000 A 
ATOM      9  C   UNL     1       4.438   5.973  18.295  0.00  0.00    +0.000 A 
ATOM     10  C   UNL     1       5.248   6.203  17.159  0.00  0.00    +0.000 A 
ENDROOT
BRANCH   1  12
ATOM     11  C   UNL     1       6.375   4.377  14.202  0.00  0.00    +0.000 C 
ATOM     12  O   UNL     1       6.156   5.502  15.062  0.00  0.00    +0.000 OA
ENDBRANCH   1  12
BRANCH   7  13
ATOM     13  C   UNL     1       2.197   4.739  20.550  0.00  0.00    +0.000 C 
ATOM     14  O   UNL     1       2.371   4.224  21.643  0.00  0.00    +0.000 OA
BRANCH  13  15
ATOM     15  O   UNL     1       1.398   5.822  20.326  0.00  0.00    +0.000 OA
BRANCH  15  16
ATOM     16  C   UNL     1       1.794   7.039  20.970  0.00  0.00    +0.000 C 
BRANCH  16  17
ATOM     17  C   UNL     1       1.565   8.243  20.094  0.00  0.00    +0.000 A 
ATOM     18  C   UNL     1       1.964   8.246  18.750  0.00  0.00    +0.000 A 
ATOM     19  C   UNL     1       1.689   9.345  17.932  0.00  0.00    +0.000 A 
ATOM     20  C   UNL     1       1.011  10.449  18.446  0.00  0.00    +0.000 A 
ATOM     21  C   UNL     1       0.606  10.455  19.779  0.00  0.00    +0.000 A 
ATOM     22  C   UNL     1       0.881   9.359  20.598  0.00  0.00    +0.000 A 
ENDBRANCH  16  17
ENDBRANCH  15  16
ENDBRANCH  13  15
ENDBRANCH   7  13
BRANCH  10  23
ATOM     23  O   UNL     1       5.986   7.361  17.239  0.00  0.00    +0.000 OA
BRANCH  23  24
ATOM     24  S   UNL     1       7.577   7.411  17.579  0.00  0.00    +0.000 S 
ATOM     25  O   UNL     1       7.856   6.655  18.782  0.00  0.00    +0.000 OA
ATOM     26  O   UNL     1       8.297   7.134  16.354  0.00  0.00    +0.000 OA
BRANCH  24  27
ATOM     27  O   UNL     1       7.836   8.965  17.932  0.00  0.00    +0.000 OA
ATOM     28  H   UNL     1       8.657   9.003  18.468  0.00  0.00    +0.000 HD
ENDBRANCH  24  27
ENDBRANCH  23  24
ENDBRANCH  10  23
TORSDOF 8
ENDMDL
MODEL 7
REMARK VINA RESULT:      -6.9      2.567      4.516
REMARK  Name = 
REMARK  10 active torsions:
REMARK  status: ('A' for Active; 'I' for Inactive)
REMARK    1  A    between atoms: C_1  and  O_2
REMARK    2  A    between atoms: O_2  and  C_3
REMARK    3  A    between atoms: C_7  and  C_8
REMARK    4  A    between atoms: C_9  and  C_10
REMARK    5  A    between atoms: C_10  and  O_12
REMARK    6  A    between atoms: O_12  and  C_13
REMARK    7  A    between atoms: C_13  and  C_14
REMARK    8  A    between atoms: C_22  and  O_23
REMARK    9  A    between atoms: O_23  and  S_24
REMARK   10  A    between atoms: S_24  and  O_27
REMARK                            x       y       z     vdW  Elec       q    Type
REMARK                         _______ _______ _______ _____ _____    ______ ____
ROOT
ATOM      1  C   UNL     1       3.787   4.366  18.957  0.00  0.00    +0.000 A 
ATOM      2  C   UNL     1       2.933   4.759  19.998  0.00  0.00    +0.000 A 
ATOM      3  C   UNL     1       2.408   6.048  19.944  0.00  0.00    +0.000 A 
ATOM      4  O   UNL     1       1.569   6.568  20.869  0.00  0.00    +0.000 OA
ATOM      5  C   UNL     1       1.257   7.831  20.470  0.00  0.00    +0.000 A 
ATOM      6  C   UNL     1       0.310   8.551  21.351  0.00  0.00    +0.000 C 
ATOM      7  C   UNL     1       1.905   8.139  19.278  0.00  0.00    +0.000 A 
ATOM      8  C   UNL     1       2.671   6.970  18.944  0.00  0.00    +0.000 A 
ATOM      9  C   UNL     1       3.549   6.570  17.915  0.00  0.00    +0.000 A 
ATOM     10  C   UNL     1       4.101   5.268  17.928  0.00  0.00    +0.000 A 
ENDROOT
BRANCH   1  12
ATOM     11  C   UNL     1       3.612   2.081  18.372  0.00  0.00    +0.000 C 
ATOM     12  O   UNL     1       4.393   3.131  18.957  0.00  0.00    +0.000 OA
ENDBRANCH   1  12
BRANCH   7  13
ATOM     13  C   UNL     1       1.732   9.386  18.546  0.00  0.00    +0.000 C 
ATOM     14  O   UNL     1       2.133   9.554  17.405  0.00  0.00    +0.000 OA
BRANCH  13  15
ATOM     15  O   UNL     1       1.157  10.357  19.313  0.00  0.00    +0.000 OA
BRANCH  15  16
ATOM     16  C   UNL     1       0.496  11.410  18.603  0.00  0.00    +0.000 C 
BRANCH  16  17
ATOM     17  C   UNL     1      -0.971  11.130  18.411  0.00  0.00    +0.000 A 
ATOM     18  C   UNL     1      -1.948  11.970  18.965  0.00  0.00    +0.000 A 
ATOM     19  C   UNL     1      -3.304  11.734  18.725  0.00  0.00    +0.000 A 
ATOM     20  C   UNL     1      -3.699  10.659  17.930  0.00  0.00    +0.000 A 
ATOM     21  C   UNL     1      -2.737   9.820  17.372  0.00  0.00    +0.000 A 
ATOM     22  C   UNL     1      -1.382  10.054  17.611  0.00  0.00    +0.000 A 
ENDBRANCH  16  17
ENDBRANCH  15  16
ENDBRANCH  13  15
ENDBRANCH   7  13
BRANCH  10  23
ATOM     23  O   UNL     1       4.997   5.044  16.908  0.00  0.00    +0.000 OA
BRANCH  23  24
ATOM     24  S   UNL     1       6.607   5.241  17.044  0.00  0.00    +0.000 S 
ATOM     25  O   UNL     1       7.274   4.737  15.862  0.00  0.00    +0.000 OA
ATOM     26  O   UNL     1       6.847   6.593  17.503  0.00  0.00    +0.000 OA
BRANCH  24  27
ATOM     27  O   UNL     1       7.003   4.257  18.261  0.00  0.00    +0.000 OA
ATOM     28  H   UNL     1       6.170   3.843  18.575  0.00  0.00    +0.000 HD
ENDBRANCH  24  27
ENDBRANCH  23  24
ENDBRANCH  10  23
TORSDOF 8
ENDMDL
MODEL 8
REMARK VINA RESULT:      -6.9      2.967      4.794
REMARK  Name = 
REMARK  10 active torsions:
REMARK  status: ('A' for Active; 'I' for Inactive)
REMARK    1  A    between atoms: C_1  and  O_2
REMARK    2  A    between atoms: O_2  and  C_3
REMARK    3  A    between atoms: C_7  and  C_8
REMARK    4  A    between atoms: C_9  and  C_10
REMARK    5  A    between atoms: C_10  and  O_12
REMARK    6  A    between atoms: O_12  and  C_13
REMARK    7  A    between atoms: C_13  and  C_14
REMARK    8  A    between atoms: C_22  and  O_23
REMARK    9  A    between atoms: O_23  and  S_24
REMARK   10  A    between atoms: S_24  and  O_27
REMARK                            x       y       z     vdW  Elec       q    Type
REMARK                         _______ _______ _______ _____ _____    ______ ____
ROOT
ATOM      1  C   UNL     1       3.978   4.625  18.814  0.00  0.00    +0.000 A 
ATOM      2  C   UNL     1       3.207   5.064  19.900  0.00  0.00    +0.000 A 
ATOM      3  C   UNL     1       2.608   6.317  19.794  0.00  0.00    +0.000 A 
ATOM      4  O   UNL     1       1.833   6.875  20.754  0.00  0.00    +0.000 OA
ATOM      5  C   UNL     1       1.414   8.082  20.287  0.00  0.00    +0.000 A 
ATOM      6  C   UNL     1       0.517   8.828  21.197  0.00  0.00    +0.000 C 
ATOM      7  C   UNL     1       1.926   8.317  19.016  0.00  0.00    +0.000 A 
ATOM      8  C   UNL     1       2.722   7.161  18.702  0.00  0.00    +0.000 A 
ATOM      9  C   UNL     1       3.518   6.717  17.626  0.00  0.00    +0.000 A 
ATOM     10  C   UNL     1       4.141   5.449  17.689  0.00  0.00    +0.000 A 
ENDROOT
BRANCH   1  12
ATOM     11  C   UNL     1       3.878   2.324  19.350  0.00  0.00    +0.000 C 
ATOM     12  O   UNL     1       4.650   3.425  18.853  0.00  0.00    +0.000 OA
ENDBRANCH   1  12
BRANCH   7  13
ATOM     13  C   UNL     1       1.615   9.487  18.206  0.00  0.00    +0.000 C 
ATOM     14  O   UNL     1       2.422  10.372  17.970  0.00  0.00    +0.000 OA
BRANCH  13  15
ATOM     15  O   UNL     1       0.306   9.514  17.825  0.00  0.00    +0.000 OA
BRANCH  15  16
ATOM     16  C   UNL     1      -0.493  10.559  18.395  0.00  0.00    +0.000 C 
BRANCH  16  17
ATOM     17  C   UNL     1      -1.849  10.652  17.744  0.00  0.00    +0.000 A 
ATOM     18  C   UNL     1      -2.863  11.447  18.297  0.00  0.00    +0.000 A 
ATOM     19  C   UNL     1      -4.095  11.575  17.649  0.00  0.00    +0.000 A 
ATOM     20  C   UNL     1      -4.325  10.914  16.444  0.00  0.00    +0.000 A 
ATOM     21  C   UNL     1      -3.322  10.126  15.883  0.00  0.00    +0.000 A 
ATOM     22  C   UNL     1      -2.092   9.995  16.530  0.00  0.00    +0.000 A 
ENDBRANCH  16  17
ENDBRANCH  15  16
ENDBRANCH  13  15
ENDBRANCH   7  13
BRANCH  10  23
ATOM     23  O   UNL     1       4.946   5.181  16.606  0.00  0.00    +0.000 OA
BRANCH  23  24
ATOM     24  S   UNL     1       6.542   5.498  16.551  0.00  0.00    +0.000 S 
ATOM     25  O   UNL     1       7.282   4.459  17.235  0.00  0.00    +0.000 OA
ATOM     26  O   UNL     1       6.872   5.859  15.189  0.00  0.00    +0.000 OA
BRANCH  24  27
ATOM     27  O   UNL     1       6.688   6.839  17.439  0.00  0.00    +0.000 OA
ATOM     28  H   UNL     1       6.611   6.568  18.379  0.00  0.00    +0.000 HD
ENDBRANCH  24  27
ENDBRANCH  23  24
ENDBRANCH  10  23
TORSDOF 8
ENDMDL
MODEL 9
REMARK VINA RESULT:      -6.9      0.629      1.404
REMARK  Name = 
REMARK  10 active torsions:
REMARK  status: ('A' for Active; 'I' for Inactive)
REMARK    1  A    between atoms: C_1  and  O_2
REMARK    2  A    between atoms: O_2  and  C_3
REMARK    3  A    between atoms: C_7  and  C_8
REMARK    4  A    between atoms: C_9  and  C_10
REMARK    5  A    between atoms: C_10  and  O_12
REMARK    6  A    between atoms: O_12  and  C_13
REMARK    7  A    between atoms: C_13  and  C_14
REMARK    8  A    between atoms: C_22  and  O_23
REMARK    9  A    between atoms: O_23  and  S_24
REMARK   10  A    between atoms: S_24  and  O_27
REMARK                            x       y       z     vdW  Elec       q    Type
REMARK                         _______ _______ _______ _____ _____    ______ ____
ROOT
ATOM      1  C   UNL     1       5.525   3.934  16.571  0.00  0.00    +0.000 A 
ATOM      2  C   UNL     1       4.298   3.264  16.463  0.00  0.00    +0.000 A 
ATOM      3  C   UNL     1       3.448   3.301  17.566  0.00  0.00    +0.000 A 
ATOM      4  O   UNL     1       2.233   2.707  17.612  0.00  0.00    +0.000 OA
ATOM      5  C   UNL     1       1.696   2.977  18.832  0.00  0.00    +0.000 A 
ATOM      6  C   UNL     1       0.337   2.431  19.053  0.00  0.00    +0.000 C 
ATOM      7  C   UNL     1       2.571   3.746  19.591  0.00  0.00    +0.000 A 
ATOM      8  C   UNL     1       3.728   3.944  18.760  0.00  0.00    +0.000 A 
ATOM      9  C   UNL     1       4.974   4.596  18.865  0.00  0.00    +0.000 A 
ATOM     10  C   UNL     1       5.865   4.587  17.766  0.00  0.00    +0.000 A 
ENDROOT
BRANCH   1  12
ATOM     11  C   UNL     1       5.912   4.177  14.251  0.00  0.00    +0.000 C 
ATOM     12  O   UNL     1       6.448   3.905  15.551  0.00  0.00    +0.000 OA
ENDBRANCH   1  12
BRANCH   7  13
ATOM     13  C   UNL     1       2.273   4.263  20.919  0.00  0.00    +0.000 C 
ATOM     14  O   UNL     1       2.304   3.576  21.929  0.00  0.00    +0.000 OA
BRANCH  13  15
ATOM     15  O   UNL     1       1.874   5.567  20.885  0.00  0.00    +0.000 OA
BRANCH  15  16
ATOM     16  C   UNL     1       2.603   6.424  19.999  0.00  0.00    +0.000 C 
BRANCH  16  17
ATOM     17  C   UNL     1       1.907   7.744  19.788  0.00  0.00    +0.000 A 
ATOM     18  C   UNL     1       1.927   8.382  18.540  0.00  0.00    +0.000 A 
ATOM     19  C   UNL     1       1.224   9.573  18.342  0.00  0.00    +0.000 A 
ATOM     20  C   UNL     1       0.493  10.137  19.386  0.00  0.00    +0.000 A 
ATOM     21  C   UNL     1       0.462   9.509  20.630  0.00  0.00    +0.000 A 
ATOM     22  C   UNL     1       1.165   8.320  20.829  0.00  0.00    +0.000 A 
ENDBRANCH  16  17
ENDBRANCH  15  16
ENDBRANCH  13  15
ENDBRANCH   7  13
BRANCH  10  23
ATOM     23  O   UNL     1       7.070   5.194  18.036  0.00  0.00    +0.000 OA
BRANCH  23  24
ATOM     24  S   UNL     1       7.450   6.714  17.597  0.00  0.00    +0.000 S 
ATOM     25  O   UNL     1       8.209   7.363  18.645  0.00  0.00    +0.000 OA
ATOM     26  O   UNL     1       7.959   6.666  16.243  0.00  0.00    +0.000 OA
BRANCH  24  27
ATOM     27  O   UNL     1       6.016   7.453  17.532  0.00  0.00    +0.000 OA
ATOM     28  H   UNL     1       5.761   7.663  18.456  0.00  0.00    +0.000 HD
ENDBRANCH  24  27
ENDBRANCH  23  24
ENDBRANCH  10  23
TORSDOF 8
ENDMDL
