MODEL 1
REMARK VINA RESULT:      -7.3      0.000      0.000
REMARK  Name = 
REMARK  9 active torsions:
REMARK  status: ('A' for Active; 'I' for Inactive)
REMARK    1  A    between atoms: N_3  and  C_4
REMARK    2  A    between atoms: C_4  and  C_5
REMARK    3  A    between atoms: C_5  and  C_6
REMARK    4  A    between atoms: C_6  and  C_7
REMARK    5  A    between atoms: C_7  and  N_8
REMARK    6  A    between atoms: C_7  and  C_17
REMARK    7  A    between atoms: C_9  and  C_11
REMARK    8  A    between atoms: C_13  and  N_14
REMARK    9  A    between atoms: N_20  and  N_21
REMARK                            x       y       z     vdW  Elec       q    Type
REMARK                         _______ _______ _______ _____ _____    ______ ____
ROOT
ATOM      1  C   UNL     1       6.021   5.356  18.034  0.00  0.00    +0.000 C 
ENDROOT
BRANCH   1   2
ATOM      2  C   UNL     1       7.275   5.945  18.716  0.00  0.00    +0.000 C 
ATOM      3  N   UNL     1       7.655   5.426  19.919  0.00  0.00    +0.000 N 
ATOM      4  O   UNL     1       7.868   6.933  18.279  0.00  0.00    +0.000 OA
ATOM      5  H   UNL     1       7.236   4.623  20.362  0.00  0.00    +0.000 HD
ATOM      6  H   UNL     1       8.415   5.895  20.400  0.00  0.00    +0.000 HD
ENDBRANCH   1   2
BRANCH   1   7
ATOM      7  N   UNL     1       5.099   4.735  18.980  0.00  0.00    +0.000 N 
ATOM      8  C   UNL     1       4.316   3.642  18.616  0.00  0.00    +0.000 C 
ATOM      9  O   UNL     1       4.292   3.188  17.475  0.00  0.00    +0.000 OA
ATOM     10  H   UNL     1       5.048   5.076  19.930  0.00  0.00    +0.000 HD
BRANCH   8  11
ATOM     11  C   UNL     1       3.497   3.050  19.772  0.00  0.00    +0.000 C 
ATOM     12  C   UNL     1       2.708   4.119  20.522  0.00  0.00    +0.000 C 
ATOM     13  C   UNL     1       1.421   3.417  20.923  0.00  0.00    +0.000 C 
ATOM     14  C   UNL     1       1.171   2.538  19.692  0.00  0.00    +0.000 C 
ATOM     15  N   UNL     1       2.502   2.046  19.305  0.00  0.00    +0.000 NA
ATOM     16  H   UNL     1       2.567   1.956  18.286  0.00  0.00    +0.000 HD
BRANCH  13  17
ATOM     17  N   UNL     1       1.641   2.627  22.143  0.00  0.00    +0.000 NA
ATOM     18  H   UNL     1       2.638   2.396  22.196  0.00  0.00    +0.000 HD
ATOM     19  H   UNL     1       1.184   1.720  22.033  0.00  0.00    +0.000 HD
ENDBRANCH  13  17
ENDBRANCH   8  11
ENDBRANCH   1   7
BRANCH   1  20
ATOM     20  C   UNL     1       5.300   6.392  17.151  0.00  0.00    +0.000 C 
BRANCH  20  21
ATOM     21  C   UNL     1       5.486   6.199  15.637  0.00  0.00    +0.000 C 
BRANCH  21  22
ATOM     22  C   UNL     1       6.229   4.906  15.322  0.00  0.00    +0.000 C 
BRANCH  22  25
ATOM     23  N   UNL     1       7.532   4.610  11.900  0.00  0.00    +0.000 NA
ATOM     24  C   UNL     1       6.819   4.304  12.932  0.00  0.00    +0.000 C 
ATOM     25  N   UNL     1       6.978   5.026  14.081  0.00  0.00    +0.000 N 
ATOM     26  N   UNL     1       5.930   3.280  13.009  0.00  0.00    +0.000 N 
ATOM     27  H   UNL     1       8.148   5.400  12.094  0.00  0.00    +0.000 HD
ATOM     28  H   UNL     1       7.493   5.896  13.990  0.00  0.00    +0.000 HD
ATOM     29  H   UNL     1       6.058   2.681  13.805  0.00  0.00    +0.000 HD
BRANCH  26  30
ATOM     30  N   UNL     1       5.523   2.672  11.885  0.00  0.00    +0.000 N 
ATOM     31  O   UNL     1       6.255   1.822  11.369  0.00  0.00    +0.000 OA
ATOM     32  O   UNL     1       4.520   3.184  11.390  0.00  0.00    +0.000 OA
ENDBRANCH  26  30
ENDBRANCH  22  25
ENDBRANCH  21  22
ENDBRANCH  20  21
ENDBRANCH   1  20
TORSDOF 9
ENDMDL
MODEL 2
REMARK VINA RESULT:      -7.1      1.675      2.118
REMARK  Name = 
REMARK  9 active torsions:
REMARK  status: ('A' for Active; 'I' for Inactive)
REMARK    1  A    between atoms: N_3  and  C_4
REMARK    2  A    between atoms: C_4  and  C_5
REMARK    3  A    between atoms: C_5  and  C_6
REMARK    4  A    between atoms: C_6  and  C_7
REMARK    5  A    between atoms: C_7  and  N_8
REMARK    6  A    between atoms: C_7  and  C_17
REMARK    7  A    between atoms: C_9  and  C_11
REMARK    8  A    between atoms: C_13  and  N_14
REMARK    9  A    between atoms: N_20  and  N_21
REMARK                            x       y       z     vdW  Elec       q    Type
REMARK                         _______ _______ _______ _____ _____    ______ ____
ROOT
ATOM      1  C   UNL     1       6.697   4.740  17.675  0.00  0.00    +0.000 C 
ENDROOT
BRANCH   1   2
ATOM      2  C   UNL     1       7.408   5.807  18.535  0.00  0.00    +0.000 C 
ATOM      3  N   UNL     1       7.869   5.437  19.765  0.00  0.00    +0.000 N 
ATOM      4  O   UNL     1       7.468   6.993  18.208  0.00  0.00    +0.000 OA
ATOM      5  H   UNL     1       7.865   4.496  20.125  0.00  0.00    +0.000 HD
ATOM      6  H   UNL     1       8.237   6.175  20.356  0.00  0.00    +0.000 HD
ENDBRANCH   1   2
BRANCH   1   7
ATOM      7  N   UNL     1       5.267   4.650  17.948  0.00  0.00    +0.000 N 
ATOM      8  C   UNL     1       4.777   3.876  18.997  0.00  0.00    +0.000 C 
ATOM      9  O   UNL     1       5.496   3.171  19.699  0.00  0.00    +0.000 OA
ATOM     10  H   UNL     1       4.615   5.185  17.390  0.00  0.00    +0.000 HD
BRANCH   8  11
ATOM     11  C   UNL     1       3.259   3.997  19.204  0.00  0.00    +0.000 C 
ATOM     12  C   UNL     1       2.692   2.816  19.985  0.00  0.00    +0.000 C 
ATOM     13  C   UNL     1       1.580   3.426  20.823  0.00  0.00    +0.000 C 
ATOM     14  C   UNL     1       2.198   4.780  21.188  0.00  0.00    +0.000 C 
ATOM     15  N   UNL     1       2.888   5.220  19.966  0.00  0.00    +0.000 NA
ATOM     16  H   UNL     1       3.739   5.740  20.205  0.00  0.00    +0.000 HD
BRANCH  13  17
ATOM     17  N   UNL     1       0.361   3.564  20.013  0.00  0.00    +0.000 NA
ATOM     18  H   UNL     1       0.049   4.538  20.073  0.00  0.00    +0.000 HD
ATOM     19  H   UNL     1      -0.391   3.036  20.458  0.00  0.00    +0.000 HD
ENDBRANCH  13  17
ENDBRANCH   8  11
ENDBRANCH   1   7
BRANCH   1  20
ATOM     20  C   UNL     1       6.968   4.932  16.171  0.00  0.00    +0.000 C 
BRANCH  20  21
ATOM     21  C   UNL     1       6.247   3.938  15.246  0.00  0.00    +0.000 C 
BRANCH  21  22
ATOM     22  C   UNL     1       6.456   4.284  13.776  0.00  0.00    +0.000 C 
BRANCH  22  25
ATOM     23  N   UNL     1       5.779   1.643  11.314  0.00  0.00    +0.000 NA
ATOM     24  C   UNL     1       5.562   2.717  11.997  0.00  0.00    +0.000 C 
ATOM     25  N   UNL     1       6.463   3.083  12.956  0.00  0.00    +0.000 N 
ATOM     26  N   UNL     1       4.475   3.524  11.885  0.00  0.00    +0.000 N 
ATOM     27  H   UNL     1       6.648   1.191  11.598  0.00  0.00    +0.000 HD
ATOM     28  H   UNL     1       7.358   2.604  12.930  0.00  0.00    +0.000 HD
ATOM     29  H   UNL     1       4.021   3.729  12.757  0.00  0.00    +0.000 HD
BRANCH  26  30
ATOM     30  N   UNL     1       3.664   3.397  10.824  0.00  0.00    +0.000 N 
ATOM     31  O   UNL     1       3.486   4.373  10.089  0.00  0.00    +0.000 OA
ATOM     32  O   UNL     1       3.033   2.340  10.817  0.00  0.00    +0.000 OA
ENDBRANCH  26  30
ENDBRANCH  22  25
ENDBRANCH  21  22
ENDBRANCH  20  21
ENDBRANCH   1  20
TORSDOF 9
ENDMDL
MODEL 3
REMARK VINA RESULT:      -7.1      4.062      7.590
REMARK  Name = 
REMARK  9 active torsions:
REMARK  status: ('A' for Active; 'I' for Inactive)
REMARK    1  A    between atoms: N_3  and  C_4
REMARK    2  A    between atoms: C_4  and  C_5
REMARK    3  A    between atoms: C_5  and  C_6
REMARK    4  A    between atoms: C_6  and  C_7
REMARK    5  A    between atoms: C_7  and  N_8
REMARK    6  A    between atoms: C_7  and  C_17
REMARK    7  A    between atoms: C_9  and  C_11
REMARK    8  A    between atoms: C_13  and  N_14
REMARK    9  A    between atoms: N_20  and  N_21
REMARK                            x       y       z     vdW  Elec       q    Type
REMARK                         _______ _______ _______ _____ _____    ______ ____
ROOT
ATOM      1  C   UNL     1       4.019   3.882  19.433  0.00  0.00    +0.000 C 
ENDROOT
BRANCH   1   2
ATOM      2  C   UNL     1       4.083   2.341  19.509  0.00  0.00    +0.000 C 
ATOM      3  N   UNL     1       5.097   1.775  20.227  0.00  0.00    +0.000 N 
ATOM      4  O   UNL     1       3.336   1.611  18.857  0.00  0.00    +0.000 OA
ATOM      5  H   UNL     1       5.759   2.283  20.791  0.00  0.00    +0.000 HD
ATOM      6  H   UNL     1       5.184   0.766  20.177  0.00  0.00    +0.000 HD
ENDBRANCH   1   2
BRANCH   1   7
ATOM      7  N   UNL     1       4.755   4.427  18.297  0.00  0.00    +0.000 N 
ATOM      8  C   UNL     1       6.021   4.987  18.454  0.00  0.00    +0.000 C 
ATOM      9  O   UNL     1       6.557   5.127  19.550  0.00  0.00    +0.000 OA
ATOM     10  H   UNL     1       4.360   4.368  17.369  0.00  0.00    +0.000 HD
BRANCH   8  11
ATOM     11  C   UNL     1       6.688   5.399  17.134  0.00  0.00    +0.000 C 
ATOM     12  C   UNL     1       6.854   4.218  16.182  0.00  0.00    +0.000 C 
ATOM     13  C   UNL     1       6.648   4.822  14.803  0.00  0.00    +0.000 C 
ATOM     14  C   UNL     1       5.542   5.843  15.092  0.00  0.00    +0.000 C 
ATOM     15  N   UNL     1       5.898   6.423  16.397  0.00  0.00    +0.000 NA
ATOM     16  H   UNL     1       5.051   6.644  16.931  0.00  0.00    +0.000 HD
BRANCH  13  17
ATOM     17  N   UNL     1       7.892   5.456  14.343  0.00  0.00    +0.000 NA
ATOM     18  H   UNL     1       7.986   5.280  13.339  0.00  0.00    +0.000 HD
ATOM     19  H   UNL     1       8.685   4.961  14.755  0.00  0.00    +0.000 HD
ENDBRANCH  13  17
ENDBRANCH   8  11
ENDBRANCH   1   7
BRANCH   1  20
ATOM     20  C   UNL     1       2.571   4.405  19.464  0.00  0.00    +0.000 C 
BRANCH  20  21
ATOM     21  C   UNL     1       2.287   5.592  18.529  0.00  0.00    +0.000 C 
BRANCH  21  22
ATOM     22  C   UNL     1       2.638   6.922  19.187  0.00  0.00    +0.000 C 
BRANCH  22  25
ATOM     23  N   UNL     1       1.777  10.045  17.456  0.00  0.00    +0.000 NA
ATOM     24  C   UNL     1       1.712   9.134  18.368  0.00  0.00    +0.000 C 
ATOM     25  N   UNL     1       2.495   8.020  18.246  0.00  0.00    +0.000 N 
ATOM     26  N   UNL     1       0.890   9.148  19.450  0.00  0.00    +0.000 N 
ATOM     27  H   UNL     1       2.447   9.797  16.729  0.00  0.00    +0.000 HD
ATOM     28  H   UNL     1       3.237   8.074  17.555  0.00  0.00    +0.000 HD
ATOM     29  H   UNL     1       0.355   8.307  19.574  0.00  0.00    +0.000 HD
BRANCH  26  30
ATOM     30  N   UNL     1       0.269  10.287  19.793  0.00  0.00    +0.000 N 
ATOM     31  O   UNL     1      -0.800  10.571  19.244  0.00  0.00    +0.000 OA
ATOM     32  O   UNL     1       0.955  11.021  20.503  0.00  0.00    +0.000 OA
ENDBRANCH  26  30
ENDBRANCH  22  25
ENDBRANCH  21  22
ENDBRANCH  20  21
ENDBRANCH   1  20
TORSDOF 9
ENDMDL
MODEL 4
REMARK VINA RESULT:      -7.0      4.813      8.866
REMARK  Name = 
REMARK  9 active torsions:
REMARK  status: ('A' for Active; 'I' for Inactive)
REMARK    1  A    between atoms: N_3  and  C_4
REMARK    2  A    between atoms: C_4  and  C_5
REMARK    3  A    between atoms: C_5  and  C_6
REMARK    4  A    between atoms: C_6  and  C_7
REMARK    5  A    between atoms: C_7  and  N_8
REMARK    6  A    between atoms: C_7  and  C_17
REMARK    7  A    between atoms: C_9  and  C_11
REMARK    8  A    between atoms: C_13  and  N_14
REMARK    9  A    between atoms: N_20  and  N_21
REMARK                            x       y       z     vdW  Elec       q    Type
REMARK                         _______ _______ _______ _____ _____    ______ ____
ROOT
ATOM      1  C   UNL     1       2.413   4.212  19.697  0.00  0.00    +0.000 C 
ENDROOT
BRANCH   1   2
ATOM      2  C   UNL     1       1.401   3.304  18.964  0.00  0.00    +0.000 C 
ATOM      3  N   UNL     1       0.406   2.728  19.700  0.00  0.00    +0.000 N 
ATOM      4  O   UNL     1       1.525   2.989  17.780  0.00  0.00    +0.000 OA
ATOM      5  H   UNL     1       0.221   2.918  20.672  0.00  0.00    +0.000 HD
ATOM      6  H   UNL     1      -0.182   2.053  19.223  0.00  0.00    +0.000 HD
ENDBRANCH   1   2
BRANCH   1   7
ATOM      7  N   UNL     1       3.534   4.611  18.853  0.00  0.00    +0.000 N 
ATOM      8  C   UNL     1       4.739   3.912  18.871  0.00  0.00    +0.000 C 
ATOM      9  O   UNL     1       4.959   2.982  19.640  0.00  0.00    +0.000 OA
ATOM     10  H   UNL     1       3.430   5.387  18.214  0.00  0.00    +0.000 HD
BRANCH   8  11
ATOM     11  C   UNL     1       5.759   4.404  17.833  0.00  0.00    +0.000 C 
ATOM     12  C   UNL     1       5.518   5.857  17.436  0.00  0.00    +0.000 C 
ATOM     13  C   UNL     1       6.913   6.416  17.208  0.00  0.00    +0.000 C 
ATOM     14  C   UNL     1       7.698   5.703  18.316  0.00  0.00    +0.000 C 
ATOM     15  N   UNL     1       7.158   4.335  18.338  0.00  0.00    +0.000 NA
ATOM     16  H   UNL     1       7.152   3.969  19.296  0.00  0.00    +0.000 HD
BRANCH  13  17
ATOM     17  N   UNL     1       7.384   6.054  15.864  0.00  0.00    +0.000 NA
ATOM     18  H   UNL     1       8.363   6.344  15.782  0.00  0.00    +0.000 HD
ATOM     19  H   UNL     1       6.897   6.635  15.179  0.00  0.00    +0.000 HD
ENDBRANCH  13  17
ENDBRANCH   8  11
ENDBRANCH   1   7
BRANCH   1  20
ATOM     20  C   UNL     1       1.735   5.436  20.341  0.00  0.00    +0.000 C 
BRANCH  20  21
ATOM     21  C   UNL     1       2.472   6.770  20.140  0.00  0.00    +0.000 C 
BRANCH  21  22
ATOM     22  C   UNL     1       1.522   7.958  20.244  0.00  0.00    +0.000 C 
BRANCH  22  25
ATOM     23  N   UNL     1       0.663   9.660  23.384  0.00  0.00    +0.000 NA
ATOM     24  C   UNL     1       0.842   9.529  22.112  0.00  0.00    +0.000 C 
ATOM     25  N   UNL     1       1.324   8.345  21.631  0.00  0.00    +0.000 N 
ATOM     26  N   UNL     1       0.634  10.492  21.177  0.00  0.00    +0.000 N 
ATOM     27  H   UNL     1       0.915   8.808  23.885  0.00  0.00    +0.000 HD
ATOM     28  H   UNL     1       1.311   7.565  22.282  0.00  0.00    +0.000 HD
ATOM     29  H   UNL     1       1.408  10.636  20.552  0.00  0.00    +0.000 HD
BRANCH  26  30
ATOM     30  N   UNL     1      -0.060  11.593  21.504  0.00  0.00    +0.000 N 
ATOM     31  O   UNL     1       0.557  12.607  21.844  0.00  0.00    +0.000 OA
ATOM     32  O   UNL     1      -1.270  11.394  21.603  0.00  0.00    +0.000 OA
ENDBRANCH  26  30
ENDBRANCH  22  25
ENDBRANCH  21  22
ENDBRANCH  20  21
ENDBRANCH   1  20
TORSDOF 9
ENDMDL
MODEL 5
REMARK VINA RESULT:      -7.0      1.731      2.034
REMARK  Name = 
REMARK  9 active torsions:
REMARK  status: ('A' for Active; 'I' for Inactive)
REMARK    1  A    between atoms: N_3  and  C_4
REMARK    2  A    between atoms: C_4  and  C_5
REMARK    3  A    between atoms: C_5  and  C_6
REMARK    4  A    between atoms: C_6  and  C_7
REMARK    5  A    between atoms: C_7  and  N_8
REMARK    6  A    between atoms: C_7  and  C_17
REMARK    7  A    between atoms: C_9  and  C_11
REMARK    8  A    between atoms: C_13  and  N_14
REMARK    9  A    between atoms: N_20  and  N_21
REMARK                            x       y       z     vdW  Elec       q    Type
REMARK                         _______ _______ _______ _____ _____    ______ ____
ROOT
ATOM      1  C   UNL     1       7.089   4.812  17.766  0.00  0.00    +0.000 C 
ENDROOT
BRANCH   1   2
ATOM      2  C   UNL     1       7.754   5.830  18.718  0.00  0.00    +0.000 C 
ATOM      3  N   UNL     1       8.027   5.432  19.995  0.00  0.00    +0.000 N 
ATOM      4  O   UNL     1       7.935   7.009  18.410  0.00  0.00    +0.000 OA
ATOM      5  H   UNL     1       7.913   4.494  20.345  0.00  0.00    +0.000 HD
ATOM      6  H   UNL     1       8.365   6.144  20.633  0.00  0.00    +0.000 HD
ENDBRANCH   1   2
BRANCH   1   7
ATOM      7  N   UNL     1       5.927   4.156  18.357  0.00  0.00    +0.000 N 
ATOM      8  C   UNL     1       4.738   4.848  18.576  0.00  0.00    +0.000 C 
ATOM      9  O   UNL     1       4.617   6.051  18.364  0.00  0.00    +0.000 OA
ATOM     10  H   UNL     1       5.966   3.172  18.582  0.00  0.00    +0.000 HD
BRANCH   8  11
ATOM     11  C   UNL     1       3.591   3.968  19.094  0.00  0.00    +0.000 C 
ATOM     12  C   UNL     1       2.247   4.363  18.491  0.00  0.00    +0.000 C 
ATOM     13  C   UNL     1       1.506   3.044  18.342  0.00  0.00    +0.000 C 
ATOM     14  C   UNL     1       2.652   2.109  17.937  0.00  0.00    +0.000 C 
ATOM     15  N   UNL     1       3.791   2.529  18.767  0.00  0.00    +0.000 NA
ATOM     16  H   UNL     1       4.669   2.420  18.249  0.00  0.00    +0.000 HD
BRANCH  13  17
ATOM     17  N   UNL     1       0.897   2.664  19.624  0.00  0.00    +0.000 NA
ATOM     18  H   UNL     1       0.222   3.391  19.882  0.00  0.00    +0.000 HD
ATOM     19  H   UNL     1       1.608   2.718  20.355  0.00  0.00    +0.000 HD
ENDBRANCH  13  17
ENDBRANCH   8  11
ENDBRANCH   1   7
BRANCH   1  20
ATOM     20  C   UNL     1       6.745   5.434  16.400  0.00  0.00    +0.000 C 
BRANCH  20  21
ATOM     21  C   UNL     1       7.186   4.610  15.179  0.00  0.00    +0.000 C 
BRANCH  21  22
ATOM     22  C   UNL     1       6.038   4.403  14.197  0.00  0.00    +0.000 C 
BRANCH  22  25
ATOM     23  N   UNL     1       6.063   1.966  11.449  0.00  0.00    +0.000 NA
ATOM     24  C   UNL     1       5.596   2.905  12.202  0.00  0.00    +0.000 C 
ATOM     25  N   UNL     1       6.333   3.318  13.275  0.00  0.00    +0.000 N 
ATOM     26  N   UNL     1       4.392   3.516  12.055  0.00  0.00    +0.000 N 
ATOM     27  H   UNL     1       6.974   1.645  11.775  0.00  0.00    +0.000 HD
ATOM     28  H   UNL     1       7.300   3.008  13.295  0.00  0.00    +0.000 HD
ATOM     29  H   UNL     1       3.838   3.543  12.893  0.00  0.00    +0.000 HD
BRANCH  26  30
ATOM     30  N   UNL     1       3.708   3.364  10.912  0.00  0.00    +0.000 N 
ATOM     31  O   UNL     1       3.608   4.327  10.145  0.00  0.00    +0.000 OA
ATOM     32  O   UNL     1       3.089   2.302  10.852  0.00  0.00    +0.000 OA
ENDBRANCH  26  30
ENDBRANCH  22  25
ENDBRANCH  21  22
ENDBRANCH  20  21
ENDBRANCH   1  20
TORSDOF 9
ENDMDL
MODEL 6
REMARK VINA RESULT:      -6.9      1.805      2.068
REMARK  Name = 
REMARK  9 active torsions:
REMARK  status: ('A' for Active; 'I' for Inactive)
REMARK    1  A    between atoms: N_3  and  C_4
REMARK    2  A    between atoms: C_4  and  C_5
REMARK    3  A    between atoms: C_5  and  C_6
REMARK    4  A    between atoms: C_6  and  C_7
REMARK    5  A    between atoms: C_7  and  N_8
REMARK    6  A    between atoms: C_7  and  C_17
REMARK    7  A    between atoms: C_9  and  C_11
REMARK    8  A    between atoms: C_13  and  N_14
REMARK    9  A    between atoms: N_20  and  N_21
REMARK                            x       y       z     vdW  Elec       q    Type
REMARK                         _______ _______ _______ _____ _____    ______ ____
ROOT
ATOM      1  C   UNL     1       6.648   4.482  18.066  0.00  0.00    +0.000 C 
ENDROOT
BRANCH   1   2
ATOM      2  C   UNL     1       7.249   5.593  18.956  0.00  0.00    +0.000 C 
ATOM      3  N   UNL     1       7.690   6.733  18.349  0.00  0.00    +0.000 N 
ATOM      4  O   UNL     1       7.454   5.443  20.161  0.00  0.00    +0.000 OA
ATOM      5  H   UNL     1       7.572   6.951  17.372  0.00  0.00    +0.000 HD
ATOM      6  H   UNL     1       8.176   7.403  18.934  0.00  0.00    +0.000 HD
ENDBRANCH   1   2
BRANCH   1   7
ATOM      7  N   UNL     1       5.200   4.368  18.200  0.00  0.00    +0.000 N 
ATOM      8  C   UNL     1       4.623   3.526  19.148  0.00  0.00    +0.000 C 
ATOM      9  O   UNL     1       5.283   2.781  19.866  0.00  0.00    +0.000 OA
ATOM     10  H   UNL     1       4.596   4.935  17.619  0.00  0.00    +0.000 HD
BRANCH   8  11
ATOM     11  C   UNL     1       3.093   3.626  19.221  0.00  0.00    +0.000 C 
ATOM     12  C   UNL     1       2.495   2.597  20.175  0.00  0.00    +0.000 C 
ATOM     13  C   UNL     1       1.309   3.314  20.798  0.00  0.00    +0.000 C 
ATOM     14  C   UNL     1       1.865   4.736  20.935  0.00  0.00    +0.000 C 
ATOM     15  N   UNL     1       2.635   4.959  19.701  0.00  0.00    +0.000 NA
ATOM     16  H   UNL     1       3.453   5.547  19.893  0.00  0.00    +0.000 HD
BRANCH  13  17
ATOM     17  N   UNL     1       0.152   3.247  19.893  0.00  0.00    +0.000 NA
ATOM     18  H   UNL     1      -0.544   3.923  20.218  0.00  0.00    +0.000 HD
ATOM     19  H   UNL     1      -0.307   2.343  20.013  0.00  0.00    +0.000 HD
ENDBRANCH  13  17
ENDBRANCH   8  11
ENDBRANCH   1   7
BRANCH   1  20
ATOM     20  C   UNL     1       7.064   4.632  16.591  0.00  0.00    +0.000 C 
BRANCH  20  21
ATOM     21  C   UNL     1       6.059   4.073  15.570  0.00  0.00    +0.000 C 
BRANCH  21  22
ATOM     22  C   UNL     1       6.593   4.167  14.146  0.00  0.00    +0.000 C 
BRANCH  22  25
ATOM     23  N   UNL     1       4.426   3.005  11.417  0.00  0.00    +0.000 NA
ATOM     24  C   UNL     1       5.501   3.094  12.127  0.00  0.00    +0.000 C 
ATOM     25  N   UNL     1       5.527   3.967  13.178  0.00  0.00    +0.000 N 
ATOM     26  N   UNL     1       6.658   2.419  11.904  0.00  0.00    +0.000 N 
ATOM     27  H   UNL     1       3.699   3.631  11.762  0.00  0.00    +0.000 HD
ATOM     28  H   UNL     1       4.628   4.338  13.468  0.00  0.00    +0.000 HD
ATOM     29  H   UNL     1       7.477   3.001  11.879  0.00  0.00    +0.000 HD
BRANCH  26  30
ATOM     30  N   UNL     1       6.663   1.373  11.065  0.00  0.00    +0.000 N 
ATOM     31  O   UNL     1       7.221   1.491   9.969  0.00  0.00    +0.000 OA
ATOM     32  O   UNL     1       5.930   0.454  11.427  0.00  0.00    +0.000 OA
ENDBRANCH  26  30
ENDBRANCH  22  25
ENDBRANCH  21  22
ENDBRANCH  20  21
ENDBRANCH   1  20
TORSDOF 9
ENDMDL
MODEL 7
REMARK VINA RESULT:      -6.9      3.355      6.863
REMARK  Name = 
REMARK  9 active torsions:
REMARK  status: ('A' for Active; 'I' for Inactive)
REMARK    1  A    between atoms: N_3  and  C_4
REMARK    2  A    between atoms: C_4  and  C_5
REMARK    3  A    between atoms: C_5  and  C_6
REMARK    4  A    between atoms: C_6  and  C_7
REMARK    5  A    between atoms: C_7  and  N_8
REMARK    6  A    between atoms: C_7  and  C_17
REMARK    7  A    between atoms: C_9  and  C_11
REMARK    8  A    between atoms: C_13  and  N_14
REMARK    9  A    between atoms: N_20  and  N_21
REMARK                            x       y       z     vdW  Elec       q    Type
REMARK                         _______ _______ _______ _____ _____    ______ ____
ROOT
ATOM      1  C   UNL     1       4.011   2.649  19.964  0.00  0.00    +0.000 C 
ENDROOT
BRANCH   1   2
ATOM      2  C   UNL     1       4.942   1.485  20.369  0.00  0.00    +0.000 C 
ATOM      3  N   UNL     1       4.980   0.384  19.563  0.00  0.00    +0.000 N 
ATOM      4  O   UNL     1       5.552   1.462  21.438  0.00  0.00    +0.000 OA
ATOM      5  H   UNL     1       4.517   0.303  18.672  0.00  0.00    +0.000 HD
ATOM      6  H   UNL     1       5.515  -0.409  19.900  0.00  0.00    +0.000 HD
ENDBRANCH   1   2
BRANCH   1   7
ATOM      7  N   UNL     1       4.490   3.381  18.797  0.00  0.00    +0.000 N 
ATOM      8  C   UNL     1       5.427   4.405  18.918  0.00  0.00    +0.000 C 
ATOM      9  O   UNL     1       5.844   4.803  20.002  0.00  0.00    +0.000 OA
ATOM     10  H   UNL     1       4.166   3.123  17.875  0.00  0.00    +0.000 HD
BRANCH   8  11
ATOM     11  C   UNL     1       5.898   4.980  17.574  0.00  0.00    +0.000 C 
ATOM     12  C   UNL     1       7.250   4.413  17.151  0.00  0.00    +0.000 C 
ATOM     13  C   UNL     1       7.154   4.316  15.637  0.00  0.00    +0.000 C 
ATOM     14  C   UNL     1       5.690   3.893  15.463  0.00  0.00    +0.000 C 
ATOM     15  N   UNL     1       4.952   4.676  16.466  0.00  0.00    +0.000 NA
ATOM     16  H   UNL     1       4.165   4.132  16.834  0.00  0.00    +0.000 HD
BRANCH  13  17
ATOM     17  N   UNL     1       7.436   5.626  15.032  0.00  0.00    +0.000 NA
ATOM     18  H   UNL     1       6.674   6.262  15.283  0.00  0.00    +0.000 HD
ATOM     19  H   UNL     1       7.363   5.541  14.017  0.00  0.00    +0.000 HD
ENDBRANCH  13  17
ENDBRANCH   8  11
ENDBRANCH   1   7
BRANCH   1  20
ATOM     20  C   UNL     1       2.554   2.187  19.775  0.00  0.00    +0.000 C 
BRANCH  20  21
ATOM     21  C   UNL     1       1.516   2.938  20.625  0.00  0.00    +0.000 C 
BRANCH  21  22
ATOM     22  C   UNL     1       0.974   4.163  19.898  0.00  0.00    +0.000 C 
BRANCH  22  25
ATOM     23  N   UNL     1       2.180   7.520  20.775  0.00  0.00    +0.000 NA
ATOM     24  C   UNL     1       1.965   6.491  20.024  0.00  0.00    +0.000 C 
ATOM     25  N   UNL     1       1.376   5.387  20.572  0.00  0.00    +0.000 N 
ATOM     26  N   UNL     1       2.314   6.375  18.717  0.00  0.00    +0.000 N 
ATOM     27  H   UNL     1       1.855   7.360  21.728  0.00  0.00    +0.000 HD
ATOM     28  H   UNL     1       0.948   5.519  21.483  0.00  0.00    +0.000 HD
ATOM     29  H   UNL     1       2.826   5.538  18.499  0.00  0.00    +0.000 HD
BRANCH  26  30
ATOM     30  N   UNL     1       2.669   7.469  18.027  0.00  0.00    +0.000 N 
ATOM     31  O   UNL     1       1.853   8.388  17.907  0.00  0.00    +0.000 OA
ATOM     32  O   UNL     1       3.734   7.341  17.424  0.00  0.00    +0.000 OA
ENDBRANCH  26  30
ENDBRANCH  22  25
ENDBRANCH  21  22
ENDBRANCH  20  21
ENDBRANCH   1  20
TORSDOF 9
ENDMDL
MODEL 8
REMARK VINA RESULT:      -6.9      1.877      2.144
REMARK  Name = 
REMARK  9 active torsions:
REMARK  status: ('A' for Active; 'I' for Inactive)
REMARK    1  A    between atoms: N_3  and  C_4
REMARK    2  A    between atoms: C_4  and  C_5
REMARK    3  A    between atoms: C_5  and  C_6
REMARK    4  A    between atoms: C_6  and  C_7
REMARK    5  A    between atoms: C_7  and  N_8
REMARK    6  A    between atoms: C_7  and  C_17
REMARK    7  A    between atoms: C_9  and  C_11
REMARK    8  A    between atoms: C_13  and  N_14
REMARK    9  A    between atoms: N_20  and  N_21
REMARK                            x       y       z     vdW  Elec       q    Type
REMARK                         _______ _______ _______ _____ _____    ______ ____
ROOT
ATOM      1  C   UNL     1       7.247   4.631  17.850  0.00  0.00    +0.000 C 
ENDROOT
BRANCH   1   2
ATOM      2  C   UNL     1       7.786   5.690  18.836  0.00  0.00    +0.000 C 
ATOM      3  N   UNL     1       7.947   6.967  18.382  0.00  0.00    +0.000 N 
ATOM      4  O   UNL     1       8.185   5.405  19.966  0.00  0.00    +0.000 OA
ATOM      5  H   UNL     1       7.656   7.300  17.477  0.00  0.00    +0.000 HD
ATOM      6  H   UNL     1       8.401   7.621  19.010  0.00  0.00    +0.000 HD
ENDBRANCH   1   2
BRANCH   1   7
ATOM      7  N   UNL     1       6.099   3.898  18.374  0.00  0.00    +0.000 N 
ATOM      8  C   UNL     1       4.971   4.563  18.851  0.00  0.00    +0.000 C 
ATOM      9  O   UNL     1       4.902   5.786  18.932  0.00  0.00    +0.000 OA
ATOM     10  H   UNL     1       6.100   2.887  18.362  0.00  0.00    +0.000 HD
BRANCH   8  11
ATOM     11  C   UNL     1       3.820   3.628  19.251  0.00  0.00    +0.000 C 
ATOM     12  C   UNL     1       2.593   3.817  18.365  0.00  0.00    +0.000 C 
ATOM     13  C   UNL     1       2.005   2.421  18.244  0.00  0.00    +0.000 C 
ATOM     14  C   UNL     1       3.280   1.571  18.176  0.00  0.00    +0.000 C 
ATOM     15  N   UNL     1       4.196   2.191  19.146  0.00  0.00    +0.000 NA
ATOM     16  H   UNL     1       5.165   2.120  18.816  0.00  0.00    +0.000 HD
BRANCH  13  17
ATOM     17  N   UNL     1       1.189   2.117  19.428  0.00  0.00    +0.000 NA
ATOM     18  H   UNL     1       0.367   1.589  19.119  0.00  0.00    +0.000 HD
ATOM     19  H   UNL     1       0.800   2.988  19.791  0.00  0.00    +0.000 HD
ENDBRANCH  13  17
ENDBRANCH   8  11
ENDBRANCH   1   7
BRANCH   1  20
ATOM     20  C   UNL     1       6.942   5.231  16.464  0.00  0.00    +0.000 C 
BRANCH  20  21
ATOM     21  C   UNL     1       5.958   4.420  15.605  0.00  0.00    +0.000 C 
BRANCH  21  22
ATOM     22  C   UNL     1       6.550   4.081  14.241  0.00  0.00    +0.000 C 
BRANCH  22  25
ATOM     23  N   UNL     1       4.439   3.013  11.431  0.00  0.00    +0.000 NA
ATOM     24  C   UNL     1       5.502   3.085  12.161  0.00  0.00    +0.000 C 
ATOM     25  N   UNL     1       5.501   3.911  13.249  0.00  0.00    +0.000 N 
ATOM     26  N   UNL     1       6.672   2.434  11.927  0.00  0.00    +0.000 N 
ATOM     27  H   UNL     1       3.699   3.615  11.791  0.00  0.00    +0.000 HD
ATOM     28  H   UNL     1       4.593   4.259  13.540  0.00  0.00    +0.000 HD
ATOM     29  H   UNL     1       7.483   3.026  11.941  0.00  0.00    +0.000 HD
BRANCH  26  30
ATOM     30  N   UNL     1       6.703   1.426  11.043  0.00  0.00    +0.000 N 
ATOM     31  O   UNL     1       7.385   1.551  10.021  0.00  0.00    +0.000 OA
ATOM     32  O   UNL     1       5.876   0.546  11.279  0.00  0.00    +0.000 OA
ENDBRANCH  26  30
ENDBRANCH  22  25
ENDBRANCH  21  22
ENDBRANCH  20  21
ENDBRANCH   1  20
TORSDOF 9
ENDMDL
MODEL 9
REMARK VINA RESULT:      -6.9      4.402      8.337
REMARK  Name = 
REMARK  9 active torsions:
REMARK  status: ('A' for Active; 'I' for Inactive)
REMARK    1  A    between atoms: N_3  and  C_4
REMARK    2  A    between atoms: C_4  and  C_5
REMARK    3  A    between atoms: C_5  and  C_6
REMARK    4  A    between atoms: C_6  and  C_7
REMARK    5  A    between atoms: C_7  and  N_8
REMARK    6  A    between atoms: C_7  and  C_17
REMARK    7  A    between atoms: C_9  and  C_11
REMARK    8  A    between atoms: C_13  and  N_14
REMARK    9  A    between atoms: N_20  and  N_21
REMARK                            x       y       z     vdW  Elec       q    Type
REMARK                         _______ _______ _______ _____ _____    ______ ____
ROOT
ATOM      1  C   UNL     1       2.538   3.766  19.675  0.00  0.00    +0.000 C 
ENDROOT
BRANCH   1   2
ATOM      2  C   UNL     1       1.297   3.435  18.818  0.00  0.00    +0.000 C 
ATOM      3  N   UNL     1       0.352   2.608  19.350  0.00  0.00    +0.000 N 
ATOM      4  O   UNL     1       1.187   3.787  17.643  0.00  0.00    +0.000 OA
ATOM      5  H   UNL     1       0.351   2.265  20.298  0.00  0.00    +0.000 HD
ATOM      6  H   UNL     1      -0.401   2.318  18.735  0.00  0.00    +0.000 HD
ENDBRANCH   1   2
BRANCH   1   7
ATOM      7  N   UNL     1       3.632   4.339  18.896  0.00  0.00    +0.000 N 
ATOM      8  C   UNL     1       4.925   3.828  18.979  0.00  0.00    +0.000 C 
ATOM      9  O   UNL     1       5.240   2.932  19.756  0.00  0.00    +0.000 OA
ATOM     10  H   UNL     1       3.447   5.098  18.255  0.00  0.00    +0.000 HD
BRANCH   8  11
ATOM     11  C   UNL     1       5.915   4.479  18.001  0.00  0.00    +0.000 C 
ATOM     12  C   UNL     1       5.605   5.955  17.770  0.00  0.00    +0.000 C 
ATOM     13  C   UNL     1       6.971   6.599  17.604  0.00  0.00    +0.000 C 
ATOM     14  C   UNL     1       7.795   5.804  18.624  0.00  0.00    +0.000 C 
ATOM     15  N   UNL     1       7.319   4.418  18.493  0.00  0.00    +0.000 NA
ATOM     16  H   UNL     1       7.336   3.948  19.404  0.00  0.00    +0.000 HD
BRANCH  13  17
ATOM     17  N   UNL     1       7.450   6.412  16.227  0.00  0.00    +0.000 NA
ATOM     18  H   UNL     1       8.040   7.213  15.985  0.00  0.00    +0.000 HD
ATOM     19  H   UNL     1       6.655   6.490  15.590  0.00  0.00    +0.000 HD
ENDBRANCH  13  17
ENDBRANCH   8  11
ENDBRANCH   1   7
BRANCH   1  20
ATOM     20  C   UNL     1       2.189   4.655  20.884  0.00  0.00    +0.000 C 
BRANCH  20  21
ATOM     21  C   UNL     1       1.246   5.831  20.577  0.00  0.00    +0.000 C 
BRANCH  21  22
ATOM     22  C   UNL     1       2.016   7.132  20.384  0.00  0.00    +0.000 C 
BRANCH  22  25
ATOM     23  N   UNL     1       0.821   9.928  22.445  0.00  0.00    +0.000 NA
ATOM     24  C   UNL     1       1.054   9.261  21.364  0.00  0.00    +0.000 C 
ATOM     25  N   UNL     1       1.722   8.073  21.452  0.00  0.00    +0.000 N 
ATOM     26  N   UNL     1       0.729   9.652  20.104  0.00  0.00    +0.000 N 
ATOM     27  H   UNL     1       1.184   9.444  23.266  0.00  0.00    +0.000 HD
ATOM     28  H   UNL     1       1.809   7.682  22.385  0.00  0.00    +0.000 HD
ATOM     29  H   UNL     1       1.490   9.608  19.449  0.00  0.00    +0.000 HD
BRANCH  26  30
ATOM     30  N   UNL     1      -0.131  10.665  19.926  0.00  0.00    +0.000 N 
ATOM     31  O   UNL     1      -1.187  10.451  19.322  0.00  0.00    +0.000 OA
ATOM     32  O   UNL     1       0.334  11.760  20.239  0.00  0.00    +0.000 OA
ENDBRANCH  26  30
ENDBRANCH  22  25
ENDBRANCH  21  22
ENDBRANCH  20  21
ENDBRANCH   1  20
TORSDOF 9
ENDMDL
