MODEL 1
REMARK VINA RESULT:      -8.4      0.000      0.000
REMARK  Name = 
REMARK  4 active torsions:
REMARK  status: ('A' for Active; 'I' for Inactive)
REMARK    1  A    between atoms: C_13  and  C_14
REMARK    2  A    between atoms: C_14  and  N_15
REMARK    3  A    between atoms: N_19  and  C_20
REMARK    4  A    between atoms: C_20  and  C_21
REMARK                            x       y       z     vdW  Elec       q    Type
REMARK                         _______ _______ _______ _____ _____    ______ ____
ROOT
ATOM      1  O   UNL     1      -2.756  13.376  22.113  0.00  0.00    +0.000 OA
ATOM      2  C   UNL     1      -1.996  12.416  22.067  0.00  0.00    +0.000 A 
ATOM      3  N   UNL     1      -1.580  11.738  23.198  0.00  0.00    +0.000 N 
ATOM      4  N   UNL     1      -0.745  10.653  23.234  0.00  0.00    +0.000 NA
ATOM      5  C   UNL     1      -0.279  10.210  22.104  0.00  0.00    +0.000 A 
ATOM      6  C   UNL     1      -0.611  10.837  20.818  0.00  0.00    +0.000 A 
ATOM      7  C   UNL     1      -0.043  10.302  19.654  0.00  0.00    +0.000 A 
ATOM      8  C   UNL     1      -0.382  10.897  18.436  0.00  0.00    +0.000 A 
ATOM      9  C   UNL     1      -1.262  11.991  18.390  0.00  0.00    +0.000 A 
ATOM     10  C   UNL     1      -1.803  12.513  19.568  0.00  0.00    +0.000 A 
ATOM     11  C   UNL     1      -1.471  11.923  20.788  0.00  0.00    +0.000 A 
ATOM     12  N   UNL     1       0.851   9.203  19.674  0.00  0.00    +0.000 NA
ATOM     13  C   UNL     1       1.127   8.672  20.835  0.00  0.00    +0.000 C 
ATOM     14  N   UNL     1       0.561   9.130  22.007  0.00  0.00    +0.000 N 
ATOM     15  H   UNL     1      -1.935  12.068  24.090  0.00  0.00    +0.000 HD
ATOM     16  H   UNL     1       0.852   8.686  22.869  0.00  0.00    +0.000 HD
ENDROOT
BRANCH  13  17
ATOM     17  C   UNL     1       2.075   7.474  20.873  0.00  0.00    +0.000 C 
BRANCH  17  18
ATOM     18  N   UNL     1       1.577   6.261  20.136  0.00  0.00    +0.000 NA
ATOM     19  C   UNL     1       1.855   5.055  20.939  0.00  0.00    +0.000 C 
ATOM     20  C   UNL     1       1.275   3.709  20.482  0.00  0.00    +0.000 C 
ATOM     21  C   UNL     1       1.536   3.159  19.080  0.00  0.00    +0.000 C 
ATOM     22  N   UNL     1       2.568   3.765  18.252  0.00  0.00    +0.000 NA
ATOM     23  C   UNL     1       2.148   5.109  17.839  0.00  0.00    +0.000 C 
ATOM     24  C   UNL     1       2.326   6.267  18.843  0.00  0.00    +0.000 C 
BRANCH  22  25
ATOM     25  C   UNL     1       3.936   3.687  18.778  0.00  0.00    +0.000 C 
BRANCH  25  26
ATOM     26  C   UNL     1       5.027   4.018  17.777  0.00  0.00    +0.000 A 
ATOM     27  C   UNL     1       4.954   3.548  16.458  0.00  0.00    +0.000 A 
ATOM     28  C   UNL     1       5.937   3.891  15.526  0.00  0.00    +0.000 A 
ATOM     29  C   UNL     1       7.005   4.704  15.901  0.00  0.00    +0.000 A 
ATOM     30  C   UNL     1       7.095   5.171  17.211  0.00  0.00    +0.000 A 
ATOM     31  C   UNL     1       6.112   4.832  18.143  0.00  0.00    +0.000 A 
ENDBRANCH  25  26
ENDBRANCH  22  25
ENDBRANCH  17  18
ENDBRANCH  13  17
TORSDOF 4
ENDMDL
MODEL 2
REMARK VINA RESULT:      -8.3      1.329      2.291
REMARK  Name = 
REMARK  4 active torsions:
REMARK  status: ('A' for Active; 'I' for Inactive)
REMARK    1  A    between atoms: C_13  and  C_14
REMARK    2  A    between atoms: C_14  and  N_15
REMARK    3  A    between atoms: N_19  and  C_20
REMARK    4  A    between atoms: C_20  and  C_21
REMARK                            x       y       z     vdW  Elec       q    Type
REMARK                         _______ _______ _______ _____ _____    ______ ____
ROOT
ATOM      1  O   UNL     1      -0.897  13.654  19.010  0.00  0.00    +0.000 OA
ATOM      2  C   UNL     1      -0.386  12.559  19.213  0.00  0.00    +0.000 A 
ATOM      3  N   UNL     1       0.323  11.876  18.244  0.00  0.00    +0.000 N 
ATOM      4  N   UNL     1       0.933  10.659  18.389  0.00  0.00    +0.000 NA
ATOM      5  C   UNL     1       0.836  10.067  19.543  0.00  0.00    +0.000 A 
ATOM      6  C   UNL     1       0.097  10.656  20.667  0.00  0.00    +0.000 A 
ATOM      7  C   UNL     1       0.029   9.934  21.866  0.00  0.00    +0.000 A 
ATOM      8  C   UNL     1      -0.663  10.514  22.933  0.00  0.00    +0.000 A 
ATOM      9  C   UNL     1      -1.264  11.777  22.799  0.00  0.00    +0.000 A 
ATOM     10  C   UNL     1      -1.193  12.468  21.587  0.00  0.00    +0.000 A 
ATOM     11  C   UNL     1      -0.503  11.896  20.517  0.00  0.00    +0.000 A 
ATOM     12  N   UNL     1       0.622   8.657  22.026  0.00  0.00    +0.000 NA
ATOM     13  C   UNL     1       1.270   8.162  21.005  0.00  0.00    +0.000 C 
ATOM     14  N   UNL     1       1.406   8.850  19.817  0.00  0.00    +0.000 N 
ATOM     15  H   UNL     1       0.412  12.323  17.336  0.00  0.00    +0.000 HD
ATOM     16  H   UNL     1       1.894   8.383  19.062  0.00  0.00    +0.000 HD
ENDROOT
BRANCH  13  17
ATOM     17  C   UNL     1       1.932   6.794  21.165  0.00  0.00    +0.000 C 
BRANCH  17  18
ATOM     18  N   UNL     1       1.450   5.751  20.195  0.00  0.00    +0.000 NA
ATOM     19  C   UNL     1       1.612   4.414  20.798  0.00  0.00    +0.000 C 
ATOM     20  C   UNL     1       1.019   3.197  20.074  0.00  0.00    +0.000 C 
ATOM     21  C   UNL     1       1.375   2.877  18.622  0.00  0.00    +0.000 C 
ATOM     22  N   UNL     1       2.495   3.557  17.991  0.00  0.00    +0.000 NA
ATOM     23  C   UNL     1       2.165   4.972  17.784  0.00  0.00    +0.000 C 
ATOM     24  C   UNL     1       2.304   5.934  18.983  0.00  0.00    +0.000 C 
BRANCH  22  25
ATOM     25  C   UNL     1       3.810   3.320  18.597  0.00  0.00    +0.000 C 
BRANCH  25  26
ATOM     26  C   UNL     1       4.990   3.813  17.781  0.00  0.00    +0.000 A 
ATOM     27  C   UNL     1       5.038   3.606  16.395  0.00  0.00    +0.000 A 
ATOM     28  C   UNL     1       6.105   4.101  15.640  0.00  0.00    +0.000 A 
ATOM     29  C   UNL     1       7.137   4.803  16.259  0.00  0.00    +0.000 A 
ATOM     30  C   UNL     1       7.108   5.007  17.637  0.00  0.00    +0.000 A 
ATOM     31  C   UNL     1       6.041   4.516  18.393  0.00  0.00    +0.000 A 
ENDBRANCH  25  26
ENDBRANCH  22  25
ENDBRANCH  17  18
ENDBRANCH  13  17
TORSDOF 4
ENDMDL
MODEL 3
REMARK VINA RESULT:      -8.1      3.302      8.754
REMARK  Name = 
REMARK  4 active torsions:
REMARK  status: ('A' for Active; 'I' for Inactive)
REMARK    1  A    between atoms: C_13  and  C_14
REMARK    2  A    between atoms: C_14  and  N_15
REMARK    3  A    between atoms: N_19  and  C_20
REMARK    4  A    between atoms: C_20  and  C_21
REMARK                            x       y       z     vdW  Elec       q    Type
REMARK                         _______ _______ _______ _____ _____    ______ ____
ROOT
ATOM      1  O   UNL     1       5.214   3.384  16.203  0.00  0.00    +0.000 OA
ATOM      2  C   UNL     1       4.676   4.174  16.969  0.00  0.00    +0.000 A 
ATOM      3  N   UNL     1       5.090   5.486  17.101  0.00  0.00    +0.000 N 
ATOM      4  N   UNL     1       4.538   6.434  17.921  0.00  0.00    +0.000 NA
ATOM      5  C   UNL     1       3.534   6.080  18.666  0.00  0.00    +0.000 A 
ATOM      6  C   UNL     1       2.992   4.714  18.655  0.00  0.00    +0.000 A 
ATOM      7  C   UNL     1       1.920   4.420  19.509  0.00  0.00    +0.000 A 
ATOM      8  C   UNL     1       1.403   3.122  19.475  0.00  0.00    +0.000 A 
ATOM      9  C   UNL     1       1.945   2.155  18.613  0.00  0.00    +0.000 A 
ATOM     10  C   UNL     1       3.023   2.471  17.783  0.00  0.00    +0.000 A 
ATOM     11  C   UNL     1       3.543   3.766  17.809  0.00  0.00    +0.000 A 
ATOM     12  N   UNL     1       1.360   5.377  20.392  0.00  0.00    +0.000 NA
ATOM     13  C   UNL     1       1.867   6.581  20.377  0.00  0.00    +0.000 C 
ATOM     14  N   UNL     1       2.893   6.936  19.524  0.00  0.00    +0.000 N 
ATOM     15  H   UNL     1       5.872   5.783  16.525  0.00  0.00    +0.000 HD
ATOM     16  H   UNL     1       3.253   7.880  19.598  0.00  0.00    +0.000 HD
ENDROOT
BRANCH  13  17
ATOM     17  C   UNL     1       1.263   7.630  21.309  0.00  0.00    +0.000 C 
BRANCH  17  18
ATOM     18  N   UNL     1       1.373   9.045  20.810  0.00  0.00    +0.000 NA
ATOM     19  C   UNL     1       0.479   9.911  21.601  0.00  0.00    +0.000 C 
ATOM     20  C   UNL     1       0.553  11.431  21.404  0.00  0.00    +0.000 C 
ATOM     21  C   UNL     1       0.386  12.068  20.024  0.00  0.00    +0.000 C 
ATOM     22  N   UNL     1      -0.125  11.269  18.921  0.00  0.00    +0.000 NA
ATOM     23  C   UNL     1       0.872  10.265  18.532  0.00  0.00    +0.000 C 
ATOM     24  C   UNL     1       0.971   8.974  19.373  0.00  0.00    +0.000 C 
BRANCH  22  25
ATOM     25  C   UNL     1      -1.485  10.746  19.088  0.00  0.00    +0.000 C 
BRANCH  25  26
ATOM     26  C   UNL     1      -2.321  10.718  17.822  0.00  0.00    +0.000 A 
ATOM     27  C   UNL     1      -2.018   9.826  16.785  0.00  0.00    +0.000 A 
ATOM     28  C   UNL     1      -2.816   9.771  15.639  0.00  0.00    +0.000 A 
ATOM     29  C   UNL     1      -3.923  10.608  15.514  0.00  0.00    +0.000 A 
ATOM     30  C   UNL     1      -4.231  11.506  16.534  0.00  0.00    +0.000 A 
ATOM     31  C   UNL     1      -3.437  11.561  17.681  0.00  0.00    +0.000 A 
ENDBRANCH  25  26
ENDBRANCH  22  25
ENDBRANCH  17  18
ENDBRANCH  13  17
TORSDOF 4
ENDMDL
MODEL 4
REMARK VINA RESULT:      -8.1      1.198      2.351
REMARK  Name = 
REMARK  4 active torsions:
REMARK  status: ('A' for Active; 'I' for Inactive)
REMARK    1  A    between atoms: C_13  and  C_14
REMARK    2  A    between atoms: C_14  and  N_15
REMARK    3  A    between atoms: N_19  and  C_20
REMARK    4  A    between atoms: C_20  and  C_21
REMARK                            x       y       z     vdW  Elec       q    Type
REMARK                         _______ _______ _______ _____ _____    ______ ____
ROOT
ATOM      1  O   UNL     1      -2.598  13.427  20.049  0.00  0.00    +0.000 OA
ATOM      2  C   UNL     1      -1.793  12.515  19.898  0.00  0.00    +0.000 A 
ATOM      3  N   UNL     1      -1.223  12.218  18.675  0.00  0.00    +0.000 N 
ATOM      4  N   UNL     1      -0.311  11.229  18.423  0.00  0.00    +0.000 NA
ATOM      5  C   UNL     1       0.058  10.477  19.417  0.00  0.00    +0.000 A 
ATOM      6  C   UNL     1      -0.475  10.654  20.774  0.00  0.00    +0.000 A 
ATOM      7  C   UNL     1      -0.034   9.781  21.778  0.00  0.00    +0.000 A 
ATOM      8  C   UNL     1      -0.535   9.972  23.069  0.00  0.00    +0.000 A 
ATOM      9  C   UNL     1      -1.448  11.006  23.340  0.00  0.00    +0.000 A 
ATOM     10  C   UNL     1      -1.881  11.852  22.317  0.00  0.00    +0.000 A 
ATOM     11  C   UNL     1      -1.384  11.669  21.025  0.00  0.00    +0.000 A 
ATOM     12  N   UNL     1       0.881   8.728  21.530  0.00  0.00    +0.000 NA
ATOM     13  C   UNL     1       1.333   8.598  20.311  0.00  0.00    +0.000 C 
ATOM     14  N   UNL     1       0.967   9.457  19.295  0.00  0.00    +0.000 N 
ATOM     15  H   UNL     1      -1.497  12.796  17.886  0.00  0.00    +0.000 HD
ATOM     16  H   UNL     1       1.336   9.269  18.370  0.00  0.00    +0.000 HD
ENDROOT
BRANCH  13  17
ATOM     17  C   UNL     1       2.335   7.480  20.028  0.00  0.00    +0.000 C 
BRANCH  17  18
ATOM     18  N   UNL     1       1.713   6.171  19.626  0.00  0.00    +0.000 NA
ATOM     19  C   UNL     1       1.934   5.178  20.695  0.00  0.00    +0.000 C 
ATOM     20  C   UNL     1       1.232   3.817  20.599  0.00  0.00    +0.000 C 
ATOM     21  C   UNL     1       1.385   2.921  19.370  0.00  0.00    +0.000 C 
ATOM     22  N   UNL     1       2.420   3.216  18.392  0.00  0.00    +0.000 NA
ATOM     23  C   UNL     1       2.087   4.449  17.671  0.00  0.00    +0.000 C 
ATOM     24  C   UNL     1       2.399   5.798  18.353  0.00  0.00    +0.000 C 
BRANCH  22  25
ATOM     25  C   UNL     1       3.801   3.151  18.884  0.00  0.00    +0.000 C 
BRANCH  25  26
ATOM     26  C   UNL     1       4.841   3.751  17.957  0.00  0.00    +0.000 A 
ATOM     27  C   UNL     1       5.905   4.506  18.469  0.00  0.00    +0.000 A 
ATOM     28  C   UNL     1       6.887   5.019  17.616  0.00  0.00    +0.000 A 
ATOM     29  C   UNL     1       6.815   4.787  16.244  0.00  0.00    +0.000 A 
ATOM     30  C   UNL     1       5.757   4.047  15.720  0.00  0.00    +0.000 A 
ATOM     31  C   UNL     1       4.777   3.530  16.570  0.00  0.00    +0.000 A 
ENDBRANCH  25  26
ENDBRANCH  22  25
ENDBRANCH  17  18
ENDBRANCH  13  17
TORSDOF 4
ENDMDL
MODEL 5
REMARK VINA RESULT:      -8.0      3.218      8.561
REMARK  Name = 
REMARK  4 active torsions:
REMARK  status: ('A' for Active; 'I' for Inactive)
REMARK    1  A    between atoms: C_13  and  C_14
REMARK    2  A    between atoms: C_14  and  N_15
REMARK    3  A    between atoms: N_19  and  C_20
REMARK    4  A    between atoms: C_20  and  C_21
REMARK                            x       y       z     vdW  Elec       q    Type
REMARK                         _______ _______ _______ _____ _____    ______ ____
ROOT
ATOM      1  O   UNL     1       2.946   1.684  17.737  0.00  0.00    +0.000 OA
ATOM      2  C   UNL     1       2.570   2.625  18.426  0.00  0.00    +0.000 A 
ATOM      3  N   UNL     1       1.678   2.476  19.470  0.00  0.00    +0.000 N 
ATOM      4  N   UNL     1       1.216   3.468  20.294  0.00  0.00    +0.000 NA
ATOM      5  C   UNL     1       1.639   4.679  20.079  0.00  0.00    +0.000 A 
ATOM      6  C   UNL     1       2.573   5.003  18.993  0.00  0.00    +0.000 A 
ATOM      7  C   UNL     1       2.957   6.340  18.825  0.00  0.00    +0.000 A 
ATOM      8  C   UNL     1       3.861   6.631  17.799  0.00  0.00    +0.000 A 
ATOM      9  C   UNL     1       4.361   5.612  16.971  0.00  0.00    +0.000 A 
ATOM     10  C   UNL     1       3.950   4.289  17.152  0.00  0.00    +0.000 A 
ATOM     11  C   UNL     1       3.050   3.990  18.175  0.00  0.00    +0.000 A 
ATOM     12  N   UNL     1       2.462   7.386  19.643  0.00  0.00    +0.000 NA
ATOM     13  C   UNL     1       1.631   7.063  20.598  0.00  0.00    +0.000 C 
ATOM     14  N   UNL     1       1.256   5.757  20.835  0.00  0.00    +0.000 N 
ATOM     15  H   UNL     1       1.337   1.537  19.656  0.00  0.00    +0.000 HD
ATOM     16  H   UNL     1       0.582   5.593  21.573  0.00  0.00    +0.000 HD
ENDROOT
BRANCH  13  17
ATOM     17  C   UNL     1       1.103   8.176  21.501  0.00  0.00    +0.000 C 
BRANCH  17  18
ATOM     18  N   UNL     1       1.205   9.557  20.914  0.00  0.00    +0.000 NA
ATOM     19  C   UNL     1       0.305  10.466  21.649  0.00  0.00    +0.000 C 
ATOM     20  C   UNL     1       0.370  11.972  21.355  0.00  0.00    +0.000 C 
ATOM     21  C   UNL     1       0.201  12.520  19.939  0.00  0.00    +0.000 C 
ATOM     22  N   UNL     1      -0.304  11.649  18.888  0.00  0.00    +0.000 NA
ATOM     23  C   UNL     1       0.699  10.628  18.564  0.00  0.00    +0.000 C 
ATOM     24  C   UNL     1       0.805   9.394  19.484  0.00  0.00    +0.000 C 
BRANCH  22  25
ATOM     25  C   UNL     1      -1.662  11.130  19.086  0.00  0.00    +0.000 C 
BRANCH  25  26
ATOM     26  C   UNL     1      -2.477  10.966  17.817  0.00  0.00    +0.000 A 
ATOM     27  C   UNL     1      -1.964  10.252  16.725  0.00  0.00    +0.000 A 
ATOM     28  C   UNL     1      -2.735  10.065  15.574  0.00  0.00    +0.000 A 
ATOM     29  C   UNL     1      -4.024  10.589  15.500  0.00  0.00    +0.000 A 
ATOM     30  C   UNL     1      -4.543  11.308  16.575  0.00  0.00    +0.000 A 
ATOM     31  C   UNL     1      -3.776  11.495  17.727  0.00  0.00    +0.000 A 
ENDBRANCH  25  26
ENDBRANCH  22  25
ENDBRANCH  17  18
ENDBRANCH  13  17
TORSDOF 4
ENDMDL
MODEL 6
REMARK VINA RESULT:      -8.0      3.096      9.516
REMARK  Name = 
REMARK  4 active torsions:
REMARK  status: ('A' for Active; 'I' for Inactive)
REMARK    1  A    between atoms: C_13  and  C_14
REMARK    2  A    between atoms: C_14  and  N_15
REMARK    3  A    between atoms: N_19  and  C_20
REMARK    4  A    between atoms: C_20  and  C_21
REMARK                            x       y       z     vdW  Elec       q    Type
REMARK                         _______ _______ _______ _____ _____    ______ ____
ROOT
ATOM      1  O   UNL     1       3.314   1.604  18.714  0.00  0.00    +0.000 OA
ATOM      2  C   UNL     1       2.918   2.674  19.160  0.00  0.00    +0.000 A 
ATOM      3  N   UNL     1       2.088   2.762  20.262  0.00  0.00    +0.000 N 
ATOM      4  N   UNL     1       1.611   3.913  20.830  0.00  0.00    +0.000 NA
ATOM      5  C   UNL     1       1.952   5.044  20.286  0.00  0.00    +0.000 A 
ATOM      6  C   UNL     1       2.811   5.115  19.096  0.00  0.00    +0.000 A 
ATOM      7  C   UNL     1       3.107   6.378  18.567  0.00  0.00    +0.000 A 
ATOM      8  C   UNL     1       3.941   6.431  17.446  0.00  0.00    +0.000 A 
ATOM      9  C   UNL     1       4.458   5.255  16.878  0.00  0.00    +0.000 A 
ATOM     10  C   UNL     1       4.134   4.008  17.418  0.00  0.00    +0.000 A 
ATOM     11  C   UNL     1       3.304   3.946  18.538  0.00  0.00    +0.000 A 
ATOM     12  N   UNL     1       2.594   7.578  19.118  0.00  0.00    +0.000 NA
ATOM     13  C   UNL     1       1.831   7.478  20.174  0.00  0.00    +0.000 C 
ATOM     14  N   UNL     1       1.544   6.263  20.762  0.00  0.00    +0.000 N 
ATOM     15  H   UNL     1       1.812   1.890  20.703  0.00  0.00    +0.000 HD
ATOM     16  H   UNL     1       0.918   6.268  21.558  0.00  0.00    +0.000 HD
ENDROOT
BRANCH  13  17
ATOM     17  C   UNL     1       1.284   8.764  20.793  0.00  0.00    +0.000 C 
BRANCH  17  18
ATOM     18  N   UNL     1       0.751   9.757  19.797  0.00  0.00    +0.000 NA
ATOM     19  C   UNL     1       1.510  11.017  19.913  0.00  0.00    +0.000 C 
ATOM     20  C   UNL     1       1.274  12.123  18.875  0.00  0.00    +0.000 C 
ATOM     21  C   UNL     1      -0.122  12.680  18.600  0.00  0.00    +0.000 C 
ATOM     22  N   UNL     1      -1.211  12.371  19.514  0.00  0.00    +0.000 NA
ATOM     23  C   UNL     1      -1.563  10.950  19.407  0.00  0.00    +0.000 C 
ATOM     24  C   UNL     1      -0.688   9.925  20.160  0.00  0.00    +0.000 C 
BRANCH  22  25
ATOM     25  C   UNL     1      -1.047  12.856  20.889  0.00  0.00    +0.000 C 
BRANCH  25  26
ATOM     26  C   UNL     1      -2.303  12.810  21.739  0.00  0.00    +0.000 A 
ATOM     27  C   UNL     1      -2.275  12.257  23.027  0.00  0.00    +0.000 A 
ATOM     28  C   UNL     1      -3.423  12.256  23.825  0.00  0.00    +0.000 A 
ATOM     29  C   UNL     1      -4.611  12.804  23.346  0.00  0.00    +0.000 A 
ATOM     30  C   UNL     1      -4.656  13.349  22.064  0.00  0.00    +0.000 A 
ATOM     31  C   UNL     1      -3.510  13.353  21.266  0.00  0.00    +0.000 A 
ENDBRANCH  25  26
ENDBRANCH  22  25
ENDBRANCH  17  18
ENDBRANCH  13  17
TORSDOF 4
ENDMDL
MODEL 7
REMARK VINA RESULT:      -7.8      3.426      9.414
REMARK  Name = 
REMARK  4 active torsions:
REMARK  status: ('A' for Active; 'I' for Inactive)
REMARK    1  A    between atoms: C_13  and  C_14
REMARK    2  A    between atoms: C_14  and  N_15
REMARK    3  A    between atoms: N_19  and  C_20
REMARK    4  A    between atoms: C_20  and  C_21
REMARK                            x       y       z     vdW  Elec       q    Type
REMARK                         _______ _______ _______ _____ _____    ______ ____
ROOT
ATOM      1  O   UNL     1       4.164   2.569  19.053  0.00  0.00    +0.000 OA
ATOM      2  C   UNL     1       3.577   3.572  19.442  0.00  0.00    +0.000 A 
ATOM      3  N   UNL     1       2.794   3.584  20.580  0.00  0.00    +0.000 N 
ATOM      4  N   UNL     1       2.117   4.660  21.089  0.00  0.00    +0.000 NA
ATOM      5  C   UNL     1       2.198   5.787  20.445  0.00  0.00    +0.000 A 
ATOM      6  C   UNL     1       2.974   5.929  19.207  0.00  0.00    +0.000 A 
ATOM      7  C   UNL     1       2.986   7.177  18.571  0.00  0.00    +0.000 A 
ATOM      8  C   UNL     1       3.743   7.303  17.403  0.00  0.00    +0.000 A 
ATOM      9  C   UNL     1       4.465   6.210  16.893  0.00  0.00    +0.000 A 
ATOM     10  C   UNL     1       4.424   4.972  17.540  0.00  0.00    +0.000 A 
ATOM     11  C   UNL     1       3.671   4.839  18.708  0.00  0.00    +0.000 A 
ATOM     12  N   UNL     1       2.262   8.293  19.061  0.00  0.00    +0.000 NA
ATOM     13  C   UNL     1       1.581   8.131  20.164  0.00  0.00    +0.000 C 
ATOM     14  N   UNL     1       1.571   6.936  20.854  0.00  0.00    +0.000 N 
ATOM     15  H   UNL     1       2.719   2.714  21.098  0.00  0.00    +0.000 HD
ATOM     16  H   UNL     1       0.991   6.882  21.683  0.00  0.00    +0.000 HD
ENDROOT
BRANCH  13  17
ATOM     17  C   UNL     1       0.810   9.328  20.718  0.00  0.00    +0.000 C 
BRANCH  17  18
ATOM     18  N   UNL     1       0.543  10.416  19.714  0.00  0.00    +0.000 NA
ATOM     19  C   UNL     1       0.373  11.700  20.422  0.00  0.00    +0.000 C 
ATOM     20  C   UNL     1       0.275  12.992  19.599  0.00  0.00    +0.000 C 
ATOM     21  C   UNL     1      -0.767  13.160  18.493  0.00  0.00    +0.000 C 
ATOM     22  N   UNL     1      -1.863  12.209  18.389  0.00  0.00    +0.000 NA
ATOM     23  C   UNL     1      -1.350  10.905  17.952  0.00  0.00    +0.000 C 
ATOM     24  C   UNL     1      -0.702   9.987  19.010  0.00  0.00    +0.000 C 
BRANCH  22  25
ATOM     25  C   UNL     1      -2.772  12.153  19.540  0.00  0.00    +0.000 C 
BRANCH  25  26
ATOM     26  C   UNL     1      -4.248  12.130  19.191  0.00  0.00    +0.000 A 
ATOM     27  C   UNL     1      -4.729  11.294  18.173  0.00  0.00    +0.000 A 
ATOM     28  C   UNL     1      -6.095  11.242  17.884  0.00  0.00    +0.000 A 
ATOM     29  C   UNL     1      -6.995  12.025  18.604  0.00  0.00    +0.000 A 
ATOM     30  C   UNL     1      -6.530  12.867  19.612  0.00  0.00    +0.000 A 
ATOM     31  C   UNL     1      -5.166  12.919  19.905  0.00  0.00    +0.000 A 
ENDBRANCH  25  26
ENDBRANCH  22  25
ENDBRANCH  17  18
ENDBRANCH  13  17
TORSDOF 4
ENDMDL
MODEL 8
REMARK VINA RESULT:      -7.8      3.452      9.637
REMARK  Name = 
REMARK  4 active torsions:
REMARK  status: ('A' for Active; 'I' for Inactive)
REMARK    1  A    between atoms: C_13  and  C_14
REMARK    2  A    between atoms: C_14  and  N_15
REMARK    3  A    between atoms: N_19  and  C_20
REMARK    4  A    between atoms: C_20  and  C_21
REMARK                            x       y       z     vdW  Elec       q    Type
REMARK                         _______ _______ _______ _____ _____    ______ ____
ROOT
ATOM      1  O   UNL     1       4.919   3.718  17.094  0.00  0.00    +0.000 OA
ATOM      2  C   UNL     1       4.332   4.695  17.543  0.00  0.00    +0.000 A 
ATOM      3  N   UNL     1       4.409   5.945  16.961  0.00  0.00    +0.000 N 
ATOM      4  N   UNL     1       3.778   7.082  17.390  0.00  0.00    +0.000 NA
ATOM      5  C   UNL     1       3.038   6.999  18.456  0.00  0.00    +0.000 A 
ATOM      6  C   UNL     1       2.872   5.743  19.200  0.00  0.00    +0.000 A 
ATOM      7  C   UNL     1       2.071   5.755  20.349  0.00  0.00    +0.000 A 
ATOM      8  C   UNL     1       1.908   4.549  21.037  0.00  0.00    +0.000 A 
ATOM      9  C   UNL     1       2.529   3.373  20.584  0.00  0.00    +0.000 A 
ATOM     10  C   UNL     1       3.334   3.393  19.443  0.00  0.00    +0.000 A 
ATOM     11  C   UNL     1       3.500   4.593  18.749  0.00  0.00    +0.000 A 
ATOM     12  N   UNL     1       1.440   6.928  20.830  0.00  0.00    +0.000 NA
ATOM     13  C   UNL     1       1.610   8.028  20.145  0.00  0.00    +0.000 C 
ATOM     14  N   UNL     1       2.351   8.063  18.982  0.00  0.00    +0.000 N 
ATOM     15  H   UNL     1       4.981   6.031  16.126  0.00  0.00    +0.000 HD
ATOM     16  H   UNL     1       2.463   8.961  18.528  0.00  0.00    +0.000 HD
ENDROOT
BRANCH  13  17
ATOM     17  C   UNL     1       0.920   9.299  20.639  0.00  0.00    +0.000 C 
BRANCH  17  18
ATOM     18  N   UNL     1       0.601  10.295  19.558  0.00  0.00    +0.000 NA
ATOM     19  C   UNL     1       0.466  11.637  20.157  0.00  0.00    +0.000 C 
ATOM     20  C   UNL     1       0.324  12.852  19.230  0.00  0.00    +0.000 C 
ATOM     21  C   UNL     1      -0.774  12.925  18.168  0.00  0.00    +0.000 C 
ATOM     22  N   UNL     1      -1.872  11.972  18.204  0.00  0.00    +0.000 NA
ATOM     23  C   UNL     1      -1.381  10.633  17.859  0.00  0.00    +0.000 C 
ATOM     24  C   UNL     1      -0.678   9.810  18.959  0.00  0.00    +0.000 C 
BRANCH  22  25
ATOM     25  C   UNL     1      -2.720  12.021  19.401  0.00  0.00    +0.000 C 
BRANCH  25  26
ATOM     26  C   UNL     1      -4.212  12.076  19.127  0.00  0.00    +0.000 A 
ATOM     27  C   UNL     1      -5.107  12.482  20.127  0.00  0.00    +0.000 A 
ATOM     28  C   UNL     1      -6.476  12.575  19.859  0.00  0.00    +0.000 A 
ATOM     29  C   UNL     1      -6.966  12.262  18.593  0.00  0.00    +0.000 A 
ATOM     30  C   UNL     1      -6.088  11.848  17.593  0.00  0.00    +0.000 A 
ATOM     31  C   UNL     1      -4.720  11.757  17.857  0.00  0.00    +0.000 A 
ENDBRANCH  25  26
ENDBRANCH  22  25
ENDBRANCH  17  18
ENDBRANCH  13  17
TORSDOF 4
ENDMDL
MODEL 9
REMARK VINA RESULT:      -7.8      3.504      9.147
REMARK  Name = 
REMARK  4 active torsions:
REMARK  status: ('A' for Active; 'I' for Inactive)
REMARK    1  A    between atoms: C_13  and  C_14
REMARK    2  A    between atoms: C_14  and  N_15
REMARK    3  A    between atoms: N_19  and  C_20
REMARK    4  A    between atoms: C_20  and  C_21
REMARK                            x       y       z     vdW  Elec       q    Type
REMARK                         _______ _______ _______ _____ _____    ______ ____
ROOT
ATOM      1  O   UNL     1       3.281   2.176  20.351  0.00  0.00    +0.000 OA
ATOM      2  C   UNL     1       3.013   3.349  20.123  0.00  0.00    +0.000 A 
ATOM      3  N   UNL     1       2.156   4.086  20.918  0.00  0.00    +0.000 N 
ATOM      4  N   UNL     1       1.813   5.401  20.742  0.00  0.00    +0.000 NA
ATOM      5  C   UNL     1       2.324   6.030  19.726  0.00  0.00    +0.000 A 
ATOM      6  C   UNL     1       3.236   5.377  18.777  0.00  0.00    +0.000 A 
ATOM      7  C   UNL     1       3.721   6.129  17.699  0.00  0.00    +0.000 A 
ATOM      8  C   UNL     1       4.601   5.501  16.814  0.00  0.00    +0.000 A 
ATOM      9  C   UNL     1       4.981   4.162  17.007  0.00  0.00    +0.000 A 
ATOM     10  C   UNL     1       4.471   3.431  18.083  0.00  0.00    +0.000 A 
ATOM     11  C   UNL     1       3.593   4.052  18.972  0.00  0.00    +0.000 A 
ATOM     12  N   UNL     1       3.349   7.479  17.479  0.00  0.00    +0.000 NA
ATOM     13  C   UNL     1       2.535   8.028  18.341  0.00  0.00    +0.000 C 
ATOM     14  N   UNL     1       2.064   7.346  19.444  0.00  0.00    +0.000 N 
ATOM     15  H   UNL     1       1.747   3.614  21.718  0.00  0.00    +0.000 HD
ATOM     16  H   UNL     1       1.410   7.831  20.047  0.00  0.00    +0.000 HD
ENDROOT
BRANCH  13  17
ATOM     17  C   UNL     1       2.138   9.488  18.130  0.00  0.00    +0.000 C 
BRANCH  17  18
ATOM     18  N   UNL     1       0.898   9.910  18.869  0.00  0.00    +0.000 NA
ATOM     19  C   UNL     1      -0.193  10.132  17.900  0.00  0.00    +0.000 C 
ATOM     20  C   UNL     1      -1.611  10.391  18.428  0.00  0.00    +0.000 C 
ATOM     21  C   UNL     1      -1.904  11.517  19.419  0.00  0.00    +0.000 C 
ATOM     22  N   UNL     1      -0.897  12.538  19.664  0.00  0.00    +0.000 NA
ATOM     23  C   UNL     1       0.237  11.954  20.390  0.00  0.00    +0.000 C 
ATOM     24  C   UNL     1       1.287  11.163  19.582  0.00  0.00    +0.000 C 
BRANCH  22  25
ATOM     25  C   UNL     1      -0.523  13.357  18.505  0.00  0.00    +0.000 C 
BRANCH  25  26
ATOM     26  C   UNL     1       0.148  14.676  18.842  0.00  0.00    +0.000 A 
ATOM     27  C   UNL     1       1.528  14.840  18.665  0.00  0.00    +0.000 A 
ATOM     28  C   UNL     1       2.137  16.070  18.934  0.00  0.00    +0.000 A 
ATOM     29  C   UNL     1       1.375  17.146  19.384  0.00  0.00    +0.000 A 
ATOM     30  C   UNL     1       0.003  16.994  19.573  0.00  0.00    +0.000 A 
ATOM     31  C   UNL     1      -0.608  15.767  19.303  0.00  0.00    +0.000 A 
ENDBRANCH  25  26
ENDBRANCH  22  25
ENDBRANCH  17  18
ENDBRANCH  13  17
TORSDOF 4
ENDMDL
