MODEL 1
REMARK VINA RESULT:     -10.0      0.000      0.000
REMARK  Name = 
REMARK  6 active torsions:
REMARK  status: ('A' for Active; 'I' for Inactive)
REMARK    1  A    between atoms: C_1  and  O_2
REMARK    2  A    between atoms: O_2  and  C_3
REMARK    3  A    between atoms: C_8  and  C_9
REMARK    4  A    between atoms: N_16  and  C_17
REMARK    5  A    between atoms: C_20  and  N_21
REMARK    6  A    between atoms: N_24  and  C_25
REMARK                            x       y       z     vdW  Elec       q    Type
REMARK                         _______ _______ _______ _____ _____    ______ ____
ROOT
ATOM      1  C   UNL     1       4.301   3.768  18.523  0.00  0.00    +0.000 A 
ATOM      2  C   UNL     1       4.135   2.535  19.154  0.00  0.00    +0.000 A 
ATOM      3  C   UNL     1       3.175   2.672  20.181  0.00  0.00    +0.000 A 
ATOM      4  C   UNL     1       2.770   3.981  20.149  0.00  0.00    +0.000 A 
ATOM      5  C   UNL     1       1.856   4.725  20.923  0.00  0.00    +0.000 A 
ATOM      6  N   UNL     1       1.662   5.972  20.660  0.00  0.00    +0.000 NA
ATOM      7  C   UNL     1       2.341   6.566  19.625  0.00  0.00    +0.000 A 
ATOM      8  N   UNL     1       2.141   7.894  19.354  0.00  0.00    +0.000 N 
ATOM      9  N   UNL     1       3.216   5.951  18.873  0.00  0.00    +0.000 NA
ATOM     10  N   UNL     1       3.425   4.643  19.155  0.00  0.00    +0.000 N 
ATOM     11  H   UNL     1       2.749   8.267  18.640  0.00  0.00    +0.000 HD
ENDROOT
BRANCH   8  12
ATOM     12  C   UNL     1       1.247   8.793  19.954  0.00  0.00    +0.000 A 
ATOM     13  C   UNL     1       0.859   9.943  19.259  0.00  0.00    +0.000 A 
ATOM     14  C   UNL     1       0.006  10.894  19.843  0.00  0.00    +0.000 A 
ATOM     15  C   UNL     1      -0.501  10.736  21.142  0.00  0.00    +0.000 A 
ATOM     16  C   UNL     1      -0.057   9.600  21.837  0.00  0.00    +0.000 A 
ATOM     17  F   UNL     1      -0.428   9.385  23.111  0.00  0.00    +0.000 F 
ATOM     18  C   UNL     1       0.786   8.652  21.261  0.00  0.00    +0.000 A 
BRANCH  15  19
ATOM     19  N   UNL     1      -1.463  11.606  21.627  0.00  0.00    +0.000 N 
ATOM     20  C   UNL     1      -1.418  12.059  23.027  0.00  0.00    +0.000 C 
ATOM     21  C   UNL     1      -2.860  12.261  23.540  0.00  0.00    +0.000 C 
ATOM     22  N   UNL     1      -3.635  13.209  22.708  0.00  0.00    +0.000 NA
ATOM     23  C   UNL     1      -5.000  13.318  23.215  0.00  0.00    +0.000 C 
ATOM     24  C   UNL     1      -3.630  12.741  21.301  0.00  0.00    +0.000 C 
ATOM     25  C   UNL     1      -2.201  12.520  20.740  0.00  0.00    +0.000 C 
ENDBRANCH  15  19
ENDBRANCH   8  12
BRANCH   1  31
ATOM     26  C   UNL     1       6.547   4.554  17.647  0.00  0.00    +0.000 A 
ATOM     27  C   UNL     1       7.370   4.881  16.557  0.00  0.00    +0.000 A 
ATOM     28  C   UNL     1       6.876   4.853  15.253  0.00  0.00    +0.000 A 
ATOM     29  C   UNL     1       5.565   4.471  15.019  0.00  0.00    +0.000 A 
ATOM     30  C   UNL     1       4.750   4.101  16.092  0.00  0.00    +0.000 A 
ATOM     31  C   UNL     1       5.213   4.144  17.421  0.00  0.00    +0.000 A 
BRANCH  26  33
ATOM     32  C   UNL     1       7.620   5.785  19.368  0.00  0.00    +0.000 C 
ATOM     33  O   UNL     1       7.011   4.571  18.941  0.00  0.00    +0.000 OA
ENDBRANCH  26  33
ENDBRANCH   1  31
TORSDOF 4
ENDMDL
MODEL 2
REMARK VINA RESULT:     -10.0      0.959      1.239
REMARK  Name = 
REMARK  6 active torsions:
REMARK  status: ('A' for Active; 'I' for Inactive)
REMARK    1  A    between atoms: C_1  and  O_2
REMARK    2  A    between atoms: O_2  and  C_3
REMARK    3  A    between atoms: C_8  and  C_9
REMARK    4  A    between atoms: N_16  and  C_17
REMARK    5  A    between atoms: C_20  and  N_21
REMARK    6  A    between atoms: N_24  and  C_25
REMARK                            x       y       z     vdW  Elec       q    Type
REMARK                         _______ _______ _______ _____ _____    ______ ____
ROOT
ATOM      1  C   UNL     1       4.257   3.791  18.485  0.00  0.00    +0.000 A 
ATOM      2  C   UNL     1       4.043   2.560  19.106  0.00  0.00    +0.000 A 
ATOM      3  C   UNL     1       3.074   2.722  20.120  0.00  0.00    +0.000 A 
ATOM      4  C   UNL     1       2.711   4.043  20.091  0.00  0.00    +0.000 A 
ATOM      5  C   UNL     1       1.810   4.812  20.857  0.00  0.00    +0.000 A 
ATOM      6  N   UNL     1       1.660   6.065  20.599  0.00  0.00    +0.000 NA
ATOM      7  C   UNL     1       2.371   6.644  19.577  0.00  0.00    +0.000 A 
ATOM      8  N   UNL     1       2.217   7.980  19.311  0.00  0.00    +0.000 N 
ATOM      9  N   UNL     1       3.237   6.006  18.834  0.00  0.00    +0.000 NA
ATOM     10  N   UNL     1       3.400   4.690  19.110  0.00  0.00    +0.000 N 
ATOM     11  H   UNL     1       2.847   8.337  18.608  0.00  0.00    +0.000 HD
ENDROOT
BRANCH   8  12
ATOM     12  C   UNL     1       1.345   8.903  19.905  0.00  0.00    +0.000 A 
ATOM     13  C   UNL     1       1.330   9.039  21.296  0.00  0.00    +0.000 A 
ATOM     14  C   UNL     1       0.437   9.915  21.934  0.00  0.00    +0.000 A 
ATOM     15  C   UNL     1      -0.476  10.698  21.212  0.00  0.00    +0.000 A 
ATOM     16  C   UNL     1      -0.476  10.507  19.820  0.00  0.00    +0.000 A 
ATOM     17  F   UNL     1      -1.355  11.158  19.037  0.00  0.00    +0.000 F 
ATOM     18  C   UNL     1       0.411   9.642  19.183  0.00  0.00    +0.000 A 
BRANCH  15  19
ATOM     19  N   UNL     1      -1.228  11.667  21.853  0.00  0.00    +0.000 N 
ATOM     20  C   UNL     1      -1.725  11.440  23.220  0.00  0.00    +0.000 C 
ATOM     21  C   UNL     1      -3.090  12.139  23.385  0.00  0.00    +0.000 C 
ATOM     22  N   UNL     1      -3.031  13.587  23.085  0.00  0.00    +0.000 NA
ATOM     23  C   UNL     1      -4.360  14.179  23.211  0.00  0.00    +0.000 C 
ATOM     24  C   UNL     1      -2.494  13.781  21.716  0.00  0.00    +0.000 C 
ATOM     25  C   UNL     1      -1.122  13.092  21.500  0.00  0.00    +0.000 C 
ENDBRANCH  15  19
ENDBRANCH   8  12
BRANCH   1  31
ATOM     26  C   UNL     1       6.513   4.591  17.650  0.00  0.00    +0.000 A 
ATOM     27  C   UNL     1       7.363   4.894  16.574  0.00  0.00    +0.000 A 
ATOM     28  C   UNL     1       6.913   4.806  15.256  0.00  0.00    +0.000 A 
ATOM     29  C   UNL     1       5.617   4.387  14.997  0.00  0.00    +0.000 A 
ATOM     30  C   UNL     1       4.776   4.041  16.058  0.00  0.00    +0.000 A 
ATOM     31  C   UNL     1       5.195   4.144  17.398  0.00  0.00    +0.000 A 
BRANCH  26  33
ATOM     32  C   UNL     1       7.807   5.749  19.266  0.00  0.00    +0.000 C 
ATOM     33  O   UNL     1       6.936   4.667  18.956  0.00  0.00    +0.000 OA
ENDBRANCH  26  33
ENDBRANCH   1  31
TORSDOF 4
ENDMDL
MODEL 3
REMARK VINA RESULT:      -9.7      0.600      1.042
REMARK  Name = 
REMARK  6 active torsions:
REMARK  status: ('A' for Active; 'I' for Inactive)
REMARK    1  A    between atoms: C_1  and  O_2
REMARK    2  A    between atoms: O_2  and  C_3
REMARK    3  A    between atoms: C_8  and  C_9
REMARK    4  A    between atoms: N_16  and  C_17
REMARK    5  A    between atoms: C_20  and  N_21
REMARK    6  A    between atoms: N_24  and  C_25
REMARK                            x       y       z     vdW  Elec       q    Type
REMARK                         _______ _______ _______ _____ _____    ______ ____
ROOT
ATOM      1  C   UNL     1       4.206   3.705  18.535  0.00  0.00    +0.000 A 
ATOM      2  C   UNL     1       3.969   2.471  19.141  0.00  0.00    +0.000 A 
ATOM      3  C   UNL     1       2.985   2.634  20.141  0.00  0.00    +0.000 A 
ATOM      4  C   UNL     1       2.636   3.960  20.116  0.00  0.00    +0.000 A 
ATOM      5  C   UNL     1       1.731   4.731  20.874  0.00  0.00    +0.000 A 
ATOM      6  N   UNL     1       1.598   5.989  20.625  0.00  0.00    +0.000 NA
ATOM      7  C   UNL     1       2.333   6.569  19.620  0.00  0.00    +0.000 A 
ATOM      8  N   UNL     1       2.197   7.908  19.363  0.00  0.00    +0.000 N 
ATOM      9  N   UNL     1       3.204   5.927  18.885  0.00  0.00    +0.000 NA
ATOM     10  N   UNL     1       3.349   4.607  19.153  0.00  0.00    +0.000 N 
ATOM     11  H   UNL     1       2.843   8.264  18.674  0.00  0.00    +0.000 HD
ENDROOT
BRANCH   8  12
ATOM     12  C   UNL     1       1.325   8.835  19.950  0.00  0.00    +0.000 A 
ATOM     13  C   UNL     1       0.639   9.743  19.137  0.00  0.00    +0.000 A 
ATOM     14  C   UNL     1      -0.205  10.721  19.688  0.00  0.00    +0.000 A 
ATOM     15  C   UNL     1      -0.407  10.832  21.071  0.00  0.00    +0.000 A 
ATOM     16  C   UNL     1       0.330   9.942  21.869  0.00  0.00    +0.000 A 
ATOM     17  F   UNL     1       0.263  10.003  23.211  0.00  0.00    +0.000 F 
ATOM     18  C   UNL     1       1.166   8.967  21.327  0.00  0.00    +0.000 A 
BRANCH  15  19
ATOM     19  N   UNL     1      -1.366  11.697  21.572  0.00  0.00    +0.000 N 
ATOM     20  C   UNL     1      -2.283  12.400  20.661  0.00  0.00    +0.000 C 
ATOM     21  C   UNL     1      -2.614  13.788  21.248  0.00  0.00    +0.000 C 
ATOM     22  N   UNL     1      -3.188  13.711  22.610  0.00  0.00    +0.000 NA
ATOM     23  C   UNL     1      -3.432  15.054  23.126  0.00  0.00    +0.000 C 
ATOM     24  C   UNL     1      -2.256  12.967  23.491  0.00  0.00    +0.000 C 
ATOM     25  C   UNL     1      -1.891  11.564  22.941  0.00  0.00    +0.000 C 
ENDBRANCH  15  19
ENDBRANCH   8  12
BRANCH   1  31
ATOM     26  C   UNL     1       6.456   4.567  17.744  0.00  0.00    +0.000 A 
ATOM     27  C   UNL     1       7.329   4.866  16.686  0.00  0.00    +0.000 A 
ATOM     28  C   UNL     1       6.928   4.711  15.359  0.00  0.00    +0.000 A 
ATOM     29  C   UNL     1       5.660   4.230  15.073  0.00  0.00    +0.000 A 
ATOM     30  C   UNL     1       4.797   3.888  16.118  0.00  0.00    +0.000 A 
ATOM     31  C   UNL     1       5.166   4.057  17.466  0.00  0.00    +0.000 A 
BRANCH  26  33
ATOM     32  C   UNL     1       7.811   5.704  19.324  0.00  0.00    +0.000 C 
ATOM     33  O   UNL     1       6.830   4.708  19.059  0.00  0.00    +0.000 OA
ENDBRANCH  26  33
ENDBRANCH   1  31
TORSDOF 4
ENDMDL
MODEL 4
REMARK VINA RESULT:      -9.1      1.527      1.867
REMARK  Name = 
REMARK  6 active torsions:
REMARK  status: ('A' for Active; 'I' for Inactive)
REMARK    1  A    between atoms: C_1  and  O_2
REMARK    2  A    between atoms: O_2  and  C_3
REMARK    3  A    between atoms: C_8  and  C_9
REMARK    4  A    between atoms: N_16  and  C_17
REMARK    5  A    between atoms: C_20  and  N_21
REMARK    6  A    between atoms: N_24  and  C_25
REMARK                            x       y       z     vdW  Elec       q    Type
REMARK                         _______ _______ _______ _____ _____    ______ ____
ROOT
ATOM      1  C   UNL     1       4.155   4.077  18.775  0.00  0.00    +0.000 A 
ATOM      2  C   UNL     1       3.904   2.991  19.614  0.00  0.00    +0.000 A 
ATOM      3  C   UNL     1       2.894   3.347  20.534  0.00  0.00    +0.000 A 
ATOM      4  C   UNL     1       2.544   4.638  20.232  0.00  0.00    +0.000 A 
ATOM      5  C   UNL     1       1.619   5.541  20.794  0.00  0.00    +0.000 A 
ATOM      6  N   UNL     1       1.491   6.721  20.291  0.00  0.00    +0.000 NA
ATOM      7  C   UNL     1       2.251   7.089  19.208  0.00  0.00    +0.000 A 
ATOM      8  N   UNL     1       2.120   8.347  18.681  0.00  0.00    +0.000 N 
ATOM      9  N   UNL     1       3.142   6.318  18.641  0.00  0.00    +0.000 NA
ATOM     10  N   UNL     1       3.281   5.081  19.176  0.00  0.00    +0.000 N 
ATOM     11  H   UNL     1       2.783   8.561  17.950  0.00  0.00    +0.000 HD
ENDROOT
BRANCH   8  12
ATOM     12  C   UNL     1       1.231   9.369  19.044  0.00  0.00    +0.000 A 
ATOM     13  C   UNL     1       1.210   9.823  20.367  0.00  0.00    +0.000 A 
ATOM     14  C   UNL     1       0.301  10.809  20.784  0.00  0.00    +0.000 A 
ATOM     15  C   UNL     1      -0.621  11.389  19.900  0.00  0.00    +0.000 A 
ATOM     16  C   UNL     1      -0.615  10.880  18.592  0.00  0.00    +0.000 A 
ATOM     17  F   UNL     1      -1.501  11.318  17.679  0.00  0.00    +0.000 F 
ATOM     18  C   UNL     1       0.288   9.906  18.171  0.00  0.00    +0.000 A 
BRANCH  15  19
ATOM     19  N   UNL     1      -1.391  12.468  20.301  0.00  0.00    +0.000 N 
ATOM     20  C   UNL     1      -0.913  13.843  20.089  0.00  0.00    +0.000 C 
ATOM     21  C   UNL     1      -1.414  14.736  21.243  0.00  0.00    +0.000 C 
ATOM     22  N   UNL     1      -2.887  14.712  21.387  0.00  0.00    +0.000 NA
ATOM     23  C   UNL     1      -3.293  15.535  22.523  0.00  0.00    +0.000 C 
ATOM     24  C   UNL     1      -3.338  13.310  21.562  0.00  0.00    +0.000 C 
ATOM     25  C   UNL     1      -2.855  12.371  20.426  0.00  0.00    +0.000 C 
ENDBRANCH  15  19
ENDBRANCH   8  12
BRANCH   1  31
ATOM     26  C   UNL     1       6.485   4.589  17.916  0.00  0.00    +0.000 A 
ATOM     27  C   UNL     1       7.380   4.681  16.837  0.00  0.00    +0.000 A 
ATOM     28  C   UNL     1       6.954   4.451  15.529  0.00  0.00    +0.000 A 
ATOM     29  C   UNL     1       5.635   4.099  15.285  0.00  0.00    +0.000 A 
ATOM     30  C   UNL     1       4.746   3.962  16.355  0.00  0.00    +0.000 A 
ATOM     31  C   UNL     1       5.143   4.211  17.682  0.00  0.00    +0.000 A 
BRANCH  26  33
ATOM     32  C   UNL     1       7.856   5.828  19.402  0.00  0.00    +0.000 C 
ATOM     33  O   UNL     1       6.883   4.806  19.213  0.00  0.00    +0.000 OA
ENDBRANCH  26  33
ENDBRANCH   1  31
TORSDOF 4
ENDMDL
MODEL 5
REMARK VINA RESULT:      -8.7      2.095      2.409
REMARK  Name = 
REMARK  6 active torsions:
REMARK  status: ('A' for Active; 'I' for Inactive)
REMARK    1  A    between atoms: C_1  and  O_2
REMARK    2  A    between atoms: O_2  and  C_3
REMARK    3  A    between atoms: C_8  and  C_9
REMARK    4  A    between atoms: N_16  and  C_17
REMARK    5  A    between atoms: C_20  and  N_21
REMARK    6  A    between atoms: N_24  and  C_25
REMARK                            x       y       z     vdW  Elec       q    Type
REMARK                         _______ _______ _______ _____ _____    ______ ____
ROOT
ATOM      1  C   UNL     1       4.621   4.462  17.754  0.00  0.00    +0.000 A 
ATOM      2  C   UNL     1       4.522   3.435  18.693  0.00  0.00    +0.000 A 
ATOM      3  C   UNL     1       3.664   3.849  19.735  0.00  0.00    +0.000 A 
ATOM      4  C   UNL     1       3.250   5.113  19.406  0.00  0.00    +0.000 A 
ATOM      5  C   UNL     1       2.411   6.049  20.045  0.00  0.00    +0.000 A 
ATOM      6  N   UNL     1       2.186   7.190  19.490  0.00  0.00    +0.000 NA
ATOM      7  C   UNL     1       2.760   7.486  18.278  0.00  0.00    +0.000 A 
ATOM      8  N   UNL     1       2.527   8.704  17.695  0.00  0.00    +0.000 N 
ATOM      9  N   UNL     1       3.563   6.682  17.631  0.00  0.00    +0.000 NA
ATOM     10  N   UNL     1       3.804   5.486  18.219  0.00  0.00    +0.000 N 
ATOM     11  H   UNL     1       3.063   8.870  16.855  0.00  0.00    +0.000 HD
ENDROOT
BRANCH   8  12
ATOM     12  C   UNL     1       1.691   9.744  18.125  0.00  0.00    +0.000 A 
ATOM     13  C   UNL     1       0.305   9.560  18.113  0.00  0.00    +0.000 A 
ATOM     14  C   UNL     1      -0.571  10.593  18.487  0.00  0.00    +0.000 A 
ATOM     15  C   UNL     1      -0.102  11.850  18.896  0.00  0.00    +0.000 A 
ATOM     16  C   UNL     1       1.290  12.026  18.851  0.00  0.00    +0.000 A 
ATOM     17  F   UNL     1       1.844  13.213  19.159  0.00  0.00    +0.000 F 
ATOM     18  C   UNL     1       2.163  11.004  18.485  0.00  0.00    +0.000 A 
BRANCH  15  19
ATOM     19  N   UNL     1      -0.978  12.791  19.411  0.00  0.00    +0.000 N 
ATOM     20  C   UNL     1      -0.760  14.225  19.165  0.00  0.00    +0.000 C 
ATOM     21  C   UNL     1      -1.246  15.028  20.389  0.00  0.00    +0.000 C 
ATOM     22  N   UNL     1      -2.664  14.765  20.721  0.00  0.00    +0.000 NA
ATOM     23  C   UNL     1      -3.047  15.514  21.914  0.00  0.00    +0.000 C 
ATOM     24  C   UNL     1      -2.855  13.309  20.927  0.00  0.00    +0.000 C 
ATOM     25  C   UNL     1      -2.378  12.457  19.722  0.00  0.00    +0.000 C 
ENDBRANCH  15  19
ENDBRANCH   8  12
BRANCH   1  31
ATOM     26  C   UNL     1       6.714   5.097  16.472  0.00  0.00    +0.000 A 
ATOM     27  C   UNL     1       7.432   5.111  15.265  0.00  0.00    +0.000 A 
ATOM     28  C   UNL     1       6.870   4.610  14.090  0.00  0.00    +0.000 A 
ATOM     29  C   UNL     1       5.596   4.064  14.113  0.00  0.00    +0.000 A 
ATOM     30  C   UNL     1       4.890   4.005  15.317  0.00  0.00    +0.000 A 
ATOM     31  C   UNL     1       5.421   4.525  16.512  0.00  0.00    +0.000 A 
BRANCH  26  33
ATOM     32  C   UNL     1       7.465   6.987  17.692  0.00  0.00    +0.000 C 
ATOM     33  O   UNL     1       7.247   5.581  17.642  0.00  0.00    +0.000 OA
ENDBRANCH  26  33
ENDBRANCH   1  31
TORSDOF 4
ENDMDL
MODEL 6
REMARK VINA RESULT:      -8.5      1.648      2.053
REMARK  Name = 
REMARK  6 active torsions:
REMARK  status: ('A' for Active; 'I' for Inactive)
REMARK    1  A    between atoms: C_1  and  O_2
REMARK    2  A    between atoms: O_2  and  C_3
REMARK    3  A    between atoms: C_8  and  C_9
REMARK    4  A    between atoms: N_16  and  C_17
REMARK    5  A    between atoms: C_20  and  N_21
REMARK    6  A    between atoms: N_24  and  C_25
REMARK                            x       y       z     vdW  Elec       q    Type
REMARK                         _______ _______ _______ _____ _____    ______ ____
ROOT
ATOM      1  C   UNL     1       4.271   4.202  18.352  0.00  0.00    +0.000 A 
ATOM      2  C   UNL     1       4.040   3.113  19.193  0.00  0.00    +0.000 A 
ATOM      3  C   UNL     1       3.109   3.491  20.185  0.00  0.00    +0.000 A 
ATOM      4  C   UNL     1       2.785   4.796  19.923  0.00  0.00    +0.000 A 
ATOM      5  C   UNL     1       1.932   5.723  20.559  0.00  0.00    +0.000 A 
ATOM      6  N   UNL     1       1.811   6.913  20.079  0.00  0.00    +0.000 NA
ATOM      7  C   UNL     1       2.506   7.270  18.951  0.00  0.00    +0.000 A 
ATOM      8  N   UNL     1       2.383   8.540  18.449  0.00  0.00    +0.000 N 
ATOM      9  N   UNL     1       3.329   6.478  18.315  0.00  0.00    +0.000 NA
ATOM     10  N   UNL     1       3.461   5.229  18.824  0.00  0.00    +0.000 N 
ATOM     11  H   UNL     1       3.001   8.741  17.676  0.00  0.00    +0.000 HD
ENDROOT
BRANCH   8  12
ATOM     12  C   UNL     1       1.558   9.586  18.885  0.00  0.00    +0.000 A 
ATOM     13  C   UNL     1       0.546   9.321  19.813  0.00  0.00    +0.000 A 
ATOM     14  C   UNL     1      -0.335  10.329  20.239  0.00  0.00    +0.000 A 
ATOM     15  C   UNL     1      -0.240  11.645  19.762  0.00  0.00    +0.000 A 
ATOM     16  C   UNL     1       0.751  11.874  18.794  0.00  0.00    +0.000 A 
ATOM     17  F   UNL     1       0.887  13.083  18.221  0.00  0.00    +0.000 F 
ATOM     18  C   UNL     1       1.630  10.879  18.372  0.00  0.00    +0.000 A 
BRANCH  15  19
ATOM     19  N   UNL     1      -1.016  12.649  20.318  0.00  0.00    +0.000 N 
ATOM     20  C   UNL     1      -2.292  12.325  20.975  0.00  0.00    +0.000 C 
ATOM     21  C   UNL     1      -3.283  13.487  20.754  0.00  0.00    +0.000 C 
ATOM     22  N   UNL     1      -2.761  14.785  21.239  0.00  0.00    +0.000 NA
ATOM     23  C   UNL     1      -3.721  15.848  20.957  0.00  0.00    +0.000 C 
ATOM     24  C   UNL     1      -1.459  15.061  20.584  0.00  0.00    +0.000 C 
ATOM     25  C   UNL     1      -0.428  13.919  20.776  0.00  0.00    +0.000 C 
ENDBRANCH  15  19
ENDBRANCH   8  12
BRANCH   1  31
ATOM     26  C   UNL     1       6.580   4.488  17.345  0.00  0.00    +0.000 A 
ATOM     27  C   UNL     1       7.398   4.573  16.206  0.00  0.00    +0.000 A 
ATOM     28  C   UNL     1       6.848   4.540  14.924  0.00  0.00    +0.000 A 
ATOM     29  C   UNL     1       5.479   4.393  14.764  0.00  0.00    +0.000 A 
ATOM     30  C   UNL     1       4.661   4.263  15.889  0.00  0.00    +0.000 A 
ATOM     31  C   UNL     1       5.184   4.318  17.194  0.00  0.00    +0.000 A 
BRANCH  26  33
ATOM     32  C   UNL     1       7.510   5.791  19.095  0.00  0.00    +0.000 C 
ATOM     33  O   UNL     1       7.098   4.514  18.618  0.00  0.00    +0.000 OA
ENDBRANCH  26  33
ENDBRANCH   1  31
TORSDOF 4
ENDMDL
MODEL 7
REMARK VINA RESULT:      -8.2      0.977      1.753
REMARK  Name = 
REMARK  6 active torsions:
REMARK  status: ('A' for Active; 'I' for Inactive)
REMARK    1  A    between atoms: C_1  and  O_2
REMARK    2  A    between atoms: O_2  and  C_3
REMARK    3  A    between atoms: C_8  and  C_9
REMARK    4  A    between atoms: N_16  and  C_17
REMARK    5  A    between atoms: C_20  and  N_21
REMARK    6  A    between atoms: N_24  and  C_25
REMARK                            x       y       z     vdW  Elec       q    Type
REMARK                         _______ _______ _______ _____ _____    ______ ____
ROOT
ATOM      1  C   UNL     1       4.131   4.074  19.031  0.00  0.00    +0.000 A 
ATOM      2  C   UNL     1       3.636   2.774  19.147  0.00  0.00    +0.000 A 
ATOM      3  C   UNL     1       2.350   2.825  19.730  0.00  0.00    +0.000 A 
ATOM      4  C   UNL     1       2.086   4.152  19.950  0.00  0.00    +0.000 A 
ATOM      5  C   UNL     1       0.988   4.834  20.514  0.00  0.00    +0.000 A 
ATOM      6  N   UNL     1       1.006   6.120  20.590  0.00  0.00    +0.000 NA
ATOM      7  C   UNL     1       2.089   6.819  20.117  0.00  0.00    +0.000 A 
ATOM      8  N   UNL     1       2.110   8.186  20.209  0.00  0.00    +0.000 N 
ATOM      9  N   UNL     1       3.151   6.261  19.598  0.00  0.00    +0.000 NA
ATOM     10  N   UNL     1       3.135   4.909  19.525  0.00  0.00    +0.000 N 
ATOM     11  H   UNL     1       2.982   8.607  19.924  0.00  0.00    +0.000 HD
ENDROOT
BRANCH   8  12
ATOM     12  C   UNL     1       1.113   9.055  20.676  0.00  0.00    +0.000 A 
ATOM     13  C   UNL     1       0.615  10.048  19.827  0.00  0.00    +0.000 A 
ATOM     14  C   UNL     1      -0.347  10.971  20.269  0.00  0.00    +0.000 A 
ATOM     15  C   UNL     1      -0.858  10.939  21.576  0.00  0.00    +0.000 A 
ATOM     16  C   UNL     1      -0.306   9.965  22.424  0.00  0.00    +0.000 A 
ATOM     17  F   UNL     1      -0.675   9.888  23.714  0.00  0.00    +0.000 F 
ATOM     18  C   UNL     1       0.645   9.045  21.988  0.00  0.00    +0.000 A 
BRANCH  15  19
ATOM     19  N   UNL     1      -1.918  11.755  21.933  0.00  0.00    +0.000 N 
ATOM     20  C   UNL     1      -1.960  12.382  23.264  0.00  0.00    +0.000 C 
ATOM     21  C   UNL     1      -3.428  12.493  23.725  0.00  0.00    +0.000 C 
ATOM     22  N   UNL     1      -4.273  13.242  22.768  0.00  0.00    +0.000 NA
ATOM     23  C   UNL     1      -5.656  13.269  23.236  0.00  0.00    +0.000 C 
ATOM     24  C   UNL     1      -4.179  12.606  21.432  0.00  0.00    +0.000 C 
ATOM     25  C   UNL     1      -2.720  12.469  20.926  0.00  0.00    +0.000 C 
ENDBRANCH  15  19
ENDBRANCH   8  12
BRANCH   1  31
ATOM     26  C   UNL     1       5.784   4.468  17.150  0.00  0.00    +0.000 A 
ATOM     27  C   UNL     1       7.035   4.943  16.723  0.00  0.00    +0.000 A 
ATOM     28  C   UNL     1       7.963   5.442  17.637  0.00  0.00    +0.000 A 
ATOM     29  C   UNL     1       7.643   5.499  18.984  0.00  0.00    +0.000 A 
ATOM     30  C   UNL     1       6.385   5.070  19.416  0.00  0.00    +0.000 A 
ATOM     31  C   UNL     1       5.438   4.539  18.520  0.00  0.00    +0.000 A 
BRANCH  26  33
ATOM     32  C   UNL     1       5.187   4.077  14.889  0.00  0.00    +0.000 C 
ATOM     33  O   UNL     1       4.852   3.976  16.268  0.00  0.00    +0.000 OA
ENDBRANCH  26  33
ENDBRANCH   1  31
TORSDOF 4
ENDMDL
MODEL 8
REMARK VINA RESULT:      -8.2      2.001      2.464
REMARK  Name = 
REMARK  6 active torsions:
REMARK  status: ('A' for Active; 'I' for Inactive)
REMARK    1  A    between atoms: C_1  and  O_2
REMARK    2  A    between atoms: O_2  and  C_3
REMARK    3  A    between atoms: C_8  and  C_9
REMARK    4  A    between atoms: N_16  and  C_17
REMARK    5  A    between atoms: C_20  and  N_21
REMARK    6  A    between atoms: N_24  and  C_25
REMARK                            x       y       z     vdW  Elec       q    Type
REMARK                         _______ _______ _______ _____ _____    ______ ____
ROOT
ATOM      1  C   UNL     1       4.111   4.521  18.507  0.00  0.00    +0.000 A 
ATOM      2  C   UNL     1       3.859   3.527  19.453  0.00  0.00    +0.000 A 
ATOM      3  C   UNL     1       2.945   4.026  20.407  0.00  0.00    +0.000 A 
ATOM      4  C   UNL     1       2.653   5.307  20.018  0.00  0.00    +0.000 A 
ATOM      5  C   UNL     1       1.829   6.314  20.562  0.00  0.00    +0.000 A 
ATOM      6  N   UNL     1       1.735   7.454  19.967  0.00  0.00    +0.000 NA
ATOM      7  C   UNL     1       2.431   7.679  18.805  0.00  0.00    +0.000 A 
ATOM      8  N   UNL     1       2.337   8.895  18.180  0.00  0.00    +0.000 N 
ATOM      9  N   UNL     1       3.228   6.805  18.247  0.00  0.00    +0.000 NA
ATOM     10  N   UNL     1       3.332   5.610  18.878  0.00  0.00    +0.000 N 
ATOM     11  H   UNL     1       2.954   9.001  17.388  0.00  0.00    +0.000 HD
ENDROOT
BRANCH   8  12
ATOM     12  C   UNL     1       1.542  10.000  18.514  0.00  0.00    +0.000 A 
ATOM     13  C   UNL     1       2.155  11.211  18.849  0.00  0.00    +0.000 A 
ATOM     14  C   UNL     1       1.398  12.329  19.238  0.00  0.00    +0.000 A 
ATOM     15  C   UNL     1      -0.003  12.288  19.304  0.00  0.00    +0.000 A 
ATOM     16  C   UNL     1      -0.592  11.047  19.011  0.00  0.00    +0.000 A 
ATOM     17  F   UNL     1      -1.923  10.878  19.107  0.00  0.00    +0.000 F 
ATOM     18  C   UNL     1       0.155   9.938  18.621  0.00  0.00    +0.000 A 
BRANCH  15  19
ATOM     19  N   UNL     1      -0.727  13.446  19.533  0.00  0.00    +0.000 N 
ATOM     20  C   UNL     1      -0.494  14.644  18.711  0.00  0.00    +0.000 C 
ATOM     21  C   UNL     1      -0.710  15.902  19.578  0.00  0.00    +0.000 C 
ATOM     22  N   UNL     1      -2.053  15.947  20.198  0.00  0.00    +0.000 NA
ATOM     23  C   UNL     1      -2.176  17.131  21.042  0.00  0.00    +0.000 C 
ATOM     24  C   UNL     1      -2.267  14.710  20.988  0.00  0.00    +0.000 C 
ATOM     25  C   UNL     1      -2.059  13.416  20.160  0.00  0.00    +0.000 C 
ENDBRANCH  15  19
ENDBRANCH   8  12
BRANCH   1  31
ATOM     26  C   UNL     1       6.426   4.540  17.472  0.00  0.00    +0.000 A 
ATOM     27  C   UNL     1       7.235   4.496  16.325  0.00  0.00    +0.000 A 
ATOM     28  C   UNL     1       6.671   4.457  15.050  0.00  0.00    +0.000 A 
ATOM     29  C   UNL     1       5.293   4.433  14.906  0.00  0.00    +0.000 A 
ATOM     30  C   UNL     1       4.478   4.432  16.041  0.00  0.00    +0.000 A 
ATOM     31  C   UNL     1       5.019   4.497  17.339  0.00  0.00    +0.000 A 
BRANCH  26  33
ATOM     32  C   UNL     1       7.725   5.732  19.059  0.00  0.00    +0.000 C 
ATOM     33  O   UNL     1       6.958   4.576  18.739  0.00  0.00    +0.000 OA
ENDBRANCH  26  33
ENDBRANCH   1  31
TORSDOF 4
ENDMDL
MODEL 9
REMARK VINA RESULT:      -8.2      1.240      1.542
REMARK  Name = 
REMARK  6 active torsions:
REMARK  status: ('A' for Active; 'I' for Inactive)
REMARK    1  A    between atoms: C_1  and  O_2
REMARK    2  A    between atoms: O_2  and  C_3
REMARK    3  A    between atoms: C_8  and  C_9
REMARK    4  A    between atoms: N_16  and  C_17
REMARK    5  A    between atoms: C_20  and  N_21
REMARK    6  A    between atoms: N_24  and  C_25
REMARK                            x       y       z     vdW  Elec       q    Type
REMARK                         _______ _______ _______ _____ _____    ______ ____
ROOT
ATOM      1  C   UNL     1       4.203   4.347  18.467  0.00  0.00    +0.000 A 
ATOM      2  C   UNL     1       4.074   3.188  19.232  0.00  0.00    +0.000 A 
ATOM      3  C   UNL     1       3.141   3.423  20.265  0.00  0.00    +0.000 A 
ATOM      4  C   UNL     1       2.715   4.716  20.104  0.00  0.00    +0.000 A 
ATOM      5  C   UNL     1       1.811   5.529  20.819  0.00  0.00    +0.000 A 
ATOM      6  N   UNL     1       1.591   6.737  20.429  0.00  0.00    +0.000 NA
ATOM      7  C   UNL     1       2.232   7.224  19.316  0.00  0.00    +0.000 A 
ATOM      8  N   UNL     1       2.003   8.513  18.909  0.00  0.00    +0.000 N 
ATOM      9  N   UNL     1       3.095   6.542  18.610  0.00  0.00    +0.000 NA
ATOM     10  N   UNL     1       3.331   5.275  19.026  0.00  0.00    +0.000 N 
ATOM     11  H   UNL     1       2.586   8.814  18.142  0.00  0.00    +0.000 HD
ENDROOT
BRANCH   8  12
ATOM     12  C   UNL     1       1.113   9.461  19.435  0.00  0.00    +0.000 A 
ATOM     13  C   UNL     1      -0.211   9.481  18.987  0.00  0.00    +0.000 A 
ATOM     14  C   UNL     1      -1.122  10.445  19.450  0.00  0.00    +0.000 A 
ATOM     15  C   UNL     1      -0.752  11.426  20.383  0.00  0.00    +0.000 A 
ATOM     16  C   UNL     1       0.595  11.415  20.779  0.00  0.00    +0.000 A 
ATOM     17  F   UNL     1       1.072  12.351  21.619  0.00  0.00    +0.000 F 
ATOM     18  C   UNL     1       1.501  10.459  20.326  0.00  0.00    +0.000 A 
BRANCH  15  19
ATOM     19  N   UNL     1      -1.709  12.258  20.939  0.00  0.00    +0.000 N 
ATOM     20  C   UNL     1      -2.672  12.964  20.080  0.00  0.00    +0.000 C 
ATOM     21  C   UNL     1      -3.009  14.330  20.713  0.00  0.00    +0.000 C 
ATOM     22  N   UNL     1      -3.532  14.208  22.092  0.00  0.00    +0.000 NA
ATOM     23  C   UNL     1      -3.784  15.533  22.652  0.00  0.00    +0.000 C 
ATOM     24  C   UNL     1      -2.554  13.462  22.921  0.00  0.00    +0.000 C 
ATOM     25  C   UNL     1      -2.181  12.081  22.323  0.00  0.00    +0.000 C 
ENDBRANCH  15  19
ENDBRANCH   8  12
BRANCH   1  31
ATOM     26  C   UNL     1       6.322   5.275  17.427  0.00  0.00    +0.000 A 
ATOM     27  C   UNL     1       7.116   5.481  16.288  0.00  0.00    +0.000 A 
ATOM     28  C   UNL     1       6.676   5.084  15.025  0.00  0.00    +0.000 A 
ATOM     29  C   UNL     1       5.450   4.452  14.889  0.00  0.00    +0.000 A 
ATOM     30  C   UNL     1       4.671   4.201  16.021  0.00  0.00    +0.000 A 
ATOM     31  C   UNL     1       5.078   4.613  17.304  0.00  0.00    +0.000 A 
BRANCH  26  33
ATOM     32  C   UNL     1       7.909   6.456  18.734  0.00  0.00    +0.000 C 
ATOM     33  O   UNL     1       6.735   5.653  18.682  0.00  0.00    +0.000 OA
ENDBRANCH  26  33
ENDBRANCH   1  31
TORSDOF 4
ENDMDL
