MODEL 1
REMARK VINA RESULT:      -7.6      0.000      0.000
REMARK  Name = 
REMARK  8 active torsions:
REMARK  status: ('A' for Active; 'I' for Inactive)
REMARK    1  A    between atoms: C_2  and  C_3
REMARK    2  A    between atoms: C_3  and  C_4
REMARK    3  A    between atoms: C_4  and  N_5
REMARK    4  A    between atoms: N_18  and  CA_19
REMARK    5  A    between atoms: CA_19  and  CB_20
REMARK    6  A    between atoms: CA_19  and  C_22
REMARK    7  A    between atoms: CB_20  and  SG_21
REMARK    8  A    between atoms: C_22  and  OXT_24
REMARK                            x       y       z     vdW  Elec       q    Type
REMARK                         _______ _______ _______ _____ _____    ______ ____
ROOT
ATOM      1  C   UNK A   0       2.662   7.421  19.122  0.00  0.00    +0.000 C 
ENDROOT
BRANCH   1   2
ATOM      2  N   UNK A   0       2.903   6.104  18.536  0.00  0.00    +0.000 N 
ATOM      3  C   UNK A   0       3.825   5.845  17.533  0.00  0.00    +0.000 A 
ATOM      4  C   UNK A   0       4.721   6.686  16.851  0.00  0.00    +0.000 A 
ATOM      5  C   UNK A   0       5.539   6.124  15.865  0.00  0.00    +0.000 A 
ATOM      6  C   UNK A   0       5.468   4.769  15.561  0.00  0.00    +0.000 A 
ATOM      7  C   UNK A   0       4.580   3.937  16.248  0.00  0.00    +0.000 A 
ATOM      8  C   UNK A   0       3.751   4.478  17.255  0.00  0.00    +0.000 A 
ATOM      9  C   UNK A   0       2.789   3.905  18.143  0.00  0.00    +0.000 A 
ATOM     10  C   UNK A   0       2.317   2.592  18.347  0.00  0.00    +0.000 A 
ATOM     11  C   UNK A   0       1.372   2.336  19.339  0.00  0.00    +0.000 A 
ATOM     12  C   UNK A   0       0.889   3.375  20.131  0.00  0.00    +0.000 A 
ATOM     13  C   UNK A   0       1.333   4.689  19.946  0.00  0.00    +0.000 A 
ATOM     14  C   UNK A   0       2.286   4.934  18.942  0.00  0.00    +0.000 A 
ENDBRANCH   1   2
BRANCH   1  15
ATOM     15  C   UNK A   0       1.891   8.307  18.157  0.00  0.00    +0.000 C 
BRANCH  15  17
ATOM     16  O   UNK A   0       0.983   9.540  20.041  0.00  0.00    +0.000 OA
ATOM     17  C   UNK A   0       0.985   9.308  18.840  0.00  0.00    +0.000 C 
ATOM     18  N   CYS A   1       0.145   9.927  17.942  0.00  0.00    +0.000 N 
ATOM     19  H   CYS A   1       0.092   9.551  16.996  0.00  0.00    +0.000 HD
BRANCH  18  20
ATOM     20  CA  CYS A   1      -0.932  10.864  18.299  0.00  0.00    +0.000 C 
BRANCH  20  21
ATOM     21  C   CYS A   1      -2.041  10.655  17.251  0.00  0.00    +0.000 C 
ATOM     22  O   CYS A   1      -2.800   9.690  17.281  0.00  0.00    +0.000 OA
BRANCH  21  23
ATOM     23  OXT CYS A   1      -2.169  11.624  16.324  0.00  0.00    +0.000 OA
ATOM     24  HXT CYS A   1      -2.985  11.620  15.793  0.00  0.00    +0.000 HD
ENDBRANCH  21  23
ENDBRANCH  20  21
BRANCH  20  25
ATOM     25  CB  CYS A   1      -0.466  12.323  18.402  0.00  0.00    +0.000 C 
BRANCH  25  26
ATOM     26  SG  CYS A   1      -1.182  13.263  19.792  0.00  0.00    +0.000 S 
ATOM     27  HG  CYS A   1      -0.113  13.208  20.602  0.00  0.00    +0.000 HD
ENDBRANCH  25  26
ENDBRANCH  20  25
ENDBRANCH  18  20
ENDBRANCH  15  17
ENDBRANCH   1  15
TORSDOF 8
ENDMDL
MODEL 2
REMARK VINA RESULT:      -7.5      1.809      4.203
REMARK  Name = 
REMARK  8 active torsions:
REMARK  status: ('A' for Active; 'I' for Inactive)
REMARK    1  A    between atoms: C_2  and  C_3
REMARK    2  A    between atoms: C_3  and  C_4
REMARK    3  A    between atoms: C_4  and  N_5
REMARK    4  A    between atoms: N_18  and  CA_19
REMARK    5  A    between atoms: CA_19  and  CB_20
REMARK    6  A    between atoms: CA_19  and  C_22
REMARK    7  A    between atoms: CB_20  and  SG_21
REMARK    8  A    between atoms: C_22  and  OXT_24
REMARK                            x       y       z     vdW  Elec       q    Type
REMARK                         _______ _______ _______ _____ _____    ______ ____
ROOT
ATOM      1  C   UNK A   0       2.608   7.170  19.153  0.00  0.00    +0.000 C 
ENDROOT
BRANCH   1   2
ATOM      2  N   UNK A   0       2.941   5.890  18.529  0.00  0.00    +0.000 N 
ATOM      3  C   UNK A   0       2.322   4.685  18.827  0.00  0.00    +0.000 A 
ATOM      4  C   UNK A   0       1.289   4.364  19.725  0.00  0.00    +0.000 A 
ATOM      5  C   UNK A   0       0.874   3.031  19.809  0.00  0.00    +0.000 A 
ATOM      6  C   UNK A   0       1.468   2.044  19.030  0.00  0.00    +0.000 A 
ATOM      7  C   UNK A   0       2.490   2.371  18.135  0.00  0.00    +0.000 A 
ATOM      8  C   UNK A   0       2.920   3.712  18.023  0.00  0.00    +0.000 A 
ATOM      9  C   UNK A   0       3.889   4.363  17.200  0.00  0.00    +0.000 A 
ATOM     10  C   UNK A   0       4.768   3.912  16.192  0.00  0.00    +0.000 A 
ATOM     11  C   UNK A   0       5.593   4.819  15.529  0.00  0.00    +0.000 A 
ATOM     12  C   UNK A   0       5.555   6.172  15.859  0.00  0.00    +0.000 A 
ATOM     13  C   UNK A   0       4.699   6.646  16.859  0.00  0.00    +0.000 A 
ATOM     14  C   UNK A   0       3.873   5.722  17.521  0.00  0.00    +0.000 A 
ENDBRANCH   1   2
BRANCH   1  15
ATOM     15  C   UNK A   0       1.924   8.092  18.156  0.00  0.00    +0.000 C 
BRANCH  15  17
ATOM     16  O   UNK A   0       1.654  10.505  18.162  0.00  0.00    +0.000 OA
ATOM     17  C   UNK A   0       1.529   9.433  18.737  0.00  0.00    +0.000 C 
ATOM     18  N   CYS A   1       1.018   9.304  20.008  0.00  0.00    +0.000 N 
ATOM     19  H   CYS A   1       1.111   8.402  20.475  0.00  0.00    +0.000 HD
BRANCH  18  20
ATOM     20  CA  CYS A   1       0.650  10.423  20.889  0.00  0.00    +0.000 C 
BRANCH  20  21
ATOM     21  C   CYS A   1       0.849   9.914  22.328  0.00  0.00    +0.000 C 
ATOM     22  O   CYS A   1       0.048  10.156  23.228  0.00  0.00    +0.000 OA
BRANCH  21  23
ATOM     23  OXT CYS A   1       1.930   9.137  22.537  0.00  0.00    +0.000 OA
ATOM     24  HXT CYS A   1       1.968   8.656  23.382  0.00  0.00    +0.000 HD
ENDBRANCH  21  23
ENDBRANCH  20  21
BRANCH  20  25
ATOM     25  CB  CYS A   1      -0.763  10.967  20.632  0.00  0.00    +0.000 C 
BRANCH  25  26
ATOM     26  SG  CYS A   1      -0.858  12.770  20.369  0.00  0.00    +0.000 S 
ATOM     27  HG  CYS A   1       0.463  13.005  20.328  0.00  0.00    +0.000 HD
ENDBRANCH  25  26
ENDBRANCH  20  25
ENDBRANCH  18  20
ENDBRANCH  15  17
ENDBRANCH   1  15
TORSDOF 8
ENDMDL
MODEL 3
REMARK VINA RESULT:      -7.4      1.066      3.433
REMARK  Name = 
REMARK  8 active torsions:
REMARK  status: ('A' for Active; 'I' for Inactive)
REMARK    1  A    between atoms: C_2  and  C_3
REMARK    2  A    between atoms: C_3  and  C_4
REMARK    3  A    between atoms: C_4  and  N_5
REMARK    4  A    between atoms: N_18  and  CA_19
REMARK    5  A    between atoms: CA_19  and  CB_20
REMARK    6  A    between atoms: CA_19  and  C_22
REMARK    7  A    between atoms: CB_20  and  SG_21
REMARK    8  A    between atoms: C_22  and  OXT_24
REMARK                            x       y       z     vdW  Elec       q    Type
REMARK                         _______ _______ _______ _____ _____    ______ ____
ROOT
ATOM      1  C   UNK A   0       2.541   7.171  19.566  0.00  0.00    +0.000 C 
ENDROOT
BRANCH   1   2
ATOM      2  N   UNK A   0       2.852   5.959  18.811  0.00  0.00    +0.000 N 
ATOM      3  C   UNK A   0       2.227   4.735  18.996  0.00  0.00    +0.000 A 
ATOM      4  C   UNK A   0       1.205   4.333  19.874  0.00  0.00    +0.000 A 
ATOM      5  C   UNK A   0       0.778   3.002  19.830  0.00  0.00    +0.000 A 
ATOM      6  C   UNK A   0       1.350   2.093  18.945  0.00  0.00    +0.000 A 
ATOM      7  C   UNK A   0       2.360   2.502  18.070  0.00  0.00    +0.000 A 
ATOM      8  C   UNK A   0       2.802   3.843  18.087  0.00  0.00    +0.000 A 
ATOM      9  C   UNK A   0       3.764   4.567  17.318  0.00  0.00    +0.000 A 
ATOM     10  C   UNK A   0       4.622   4.214  16.255  0.00  0.00    +0.000 A 
ATOM     11  C   UNK A   0       5.445   5.177  15.673  0.00  0.00    +0.000 A 
ATOM     12  C   UNK A   0       5.425   6.489  16.139  0.00  0.00    +0.000 A 
ATOM     13  C   UNK A   0       4.591   6.866  17.196  0.00  0.00    +0.000 A 
ATOM     14  C   UNK A   0       3.766   5.886  17.775  0.00  0.00    +0.000 A 
ENDBRANCH   1   2
BRANCH   1  15
ATOM     15  C   UNK A   0       1.911   8.220  18.665  0.00  0.00    +0.000 C 
BRANCH  15  17
ATOM     16  O   UNK A   0       0.742   9.162  20.573  0.00  0.00    +0.000 OA
ATOM     17  C   UNK A   0       1.114   9.268  19.413  0.00  0.00    +0.000 C 
ATOM     18  N   CYS A   1       0.844  10.360  18.622  0.00  0.00    +0.000 N 
ATOM     19  H   CYS A   1       1.038  10.290  17.623  0.00  0.00    +0.000 HD
BRANCH  18  20
ATOM     20  CA  CYS A   1      -0.006  11.497  19.011  0.00  0.00    +0.000 C 
BRANCH  20  21
ATOM     21  C   CYS A   1      -1.263  11.410  18.126  0.00  0.00    +0.000 C 
ATOM     22  O   CYS A   1      -2.063  10.481  18.209  0.00  0.00    +0.000 OA
BRANCH  21  23
ATOM     23  OXT CYS A   1      -1.469  12.444  17.287  0.00  0.00    +0.000 OA
ATOM     24  HXT CYS A   1      -1.031  13.284  17.509  0.00  0.00    +0.000 HD
ENDBRANCH  21  23
ENDBRANCH  20  21
BRANCH  20  25
ATOM     25  CB  CYS A   1       0.705  12.854  18.917  0.00  0.00    +0.000 C 
BRANCH  25  26
ATOM     26  SG  CYS A   1       2.407  12.788  18.263  0.00  0.00    +0.000 S 
ATOM     27  HG  CYS A   1       3.040  13.088  19.408  0.00  0.00    +0.000 HD
ENDBRANCH  25  26
ENDBRANCH  20  25
ENDBRANCH  18  20
ENDBRANCH  15  17
ENDBRANCH   1  15
TORSDOF 8
ENDMDL
MODEL 4
REMARK VINA RESULT:      -7.4      1.784      2.565
REMARK  Name = 
REMARK  8 active torsions:
REMARK  status: ('A' for Active; 'I' for Inactive)
REMARK    1  A    between atoms: C_2  and  C_3
REMARK    2  A    between atoms: C_3  and  C_4
REMARK    3  A    between atoms: C_4  and  N_5
REMARK    4  A    between atoms: N_18  and  CA_19
REMARK    5  A    between atoms: CA_19  and  CB_20
REMARK    6  A    between atoms: CA_19  and  C_22
REMARK    7  A    between atoms: CB_20  and  SG_21
REMARK    8  A    between atoms: C_22  and  OXT_24
REMARK                            x       y       z     vdW  Elec       q    Type
REMARK                         _______ _______ _______ _____ _____    ______ ____
ROOT
ATOM      1  C   UNK A   0       2.519   7.228  19.257  0.00  0.00    +0.000 C 
ENDROOT
BRANCH   1   2
ATOM      2  N   UNK A   0       2.835   5.973  18.578  0.00  0.00    +0.000 N 
ATOM      3  C   UNK A   0       3.816   5.828  17.609  0.00  0.00    +0.000 A 
ATOM      4  C   UNK A   0       4.717   6.751  17.048  0.00  0.00    +0.000 A 
ATOM      5  C   UNK A   0       5.603   6.299  16.065  0.00  0.00    +0.000 A 
ATOM      6  C   UNK A   0       5.595   4.973  15.646  0.00  0.00    +0.000 A 
ATOM      7  C   UNK A   0       4.702   4.059  16.213  0.00  0.00    +0.000 A 
ATOM      8  C   UNK A   0       3.804   4.487  17.215  0.00  0.00    +0.000 A 
ATOM      9  C   UNK A   0       2.818   3.813  17.999  0.00  0.00    +0.000 A 
ATOM     10  C   UNK A   0       2.382   2.473  18.067  0.00  0.00    +0.000 A 
ATOM     11  C   UNK A   0       1.396   2.106  18.983  0.00  0.00    +0.000 A 
ATOM     12  C   UNK A   0       0.838   3.060  19.831  0.00  0.00    +0.000 A 
ATOM     13  C   UNK A   0       1.245   4.397  19.779  0.00  0.00    +0.000 A 
ATOM     14  C   UNK A   0       2.239   4.755  18.852  0.00  0.00    +0.000 A 
ENDBRANCH   1   2
BRANCH   1  15
ATOM     15  C   UNK A   0       1.998   8.259  18.269  0.00  0.00    +0.000 C 
BRANCH  15  17
ATOM     16  O   UNK A   0       1.290  10.577  18.409  0.00  0.00    +0.000 OA
ATOM     17  C   UNK A   0       1.372   9.471  18.925  0.00  0.00    +0.000 C 
ATOM     18  N   CYS A   1       0.910   9.182  20.188  0.00  0.00    +0.000 N 
ATOM     19  H   CYS A   1       1.173   8.288  20.604  0.00  0.00    +0.000 HD
BRANCH  18  20
ATOM     20  CA  CYS A   1       0.354  10.165  21.130  0.00  0.00    +0.000 C 
BRANCH  20  21
ATOM     21  C   CYS A   1      -0.075   9.365  22.375  0.00  0.00    +0.000 C 
ATOM     22  O   CYS A   1      -0.798   8.375  22.302  0.00  0.00    +0.000 OA
BRANCH  21  23
ATOM     23  OXT CYS A   1       0.434   9.781  23.551  0.00  0.00    +0.000 OA
ATOM     24  HXT CYS A   1       1.358  10.088  23.546  0.00  0.00    +0.000 HD
ENDBRANCH  21  23
ENDBRANCH  20  21
BRANCH  20  25
ATOM     25  CB  CYS A   1      -0.782  11.010  20.537  0.00  0.00    +0.000 C 
BRANCH  25  26
ATOM     26  SG  CYS A   1      -1.572  12.167  21.706  0.00  0.00    +0.000 S 
ATOM     27  HG  CYS A   1      -0.487  12.418  22.456  0.00  0.00    +0.000 HD
ENDBRANCH  25  26
ENDBRANCH  20  25
ENDBRANCH  18  20
ENDBRANCH  15  17
ENDBRANCH   1  15
TORSDOF 8
ENDMDL
MODEL 5
REMARK VINA RESULT:      -7.3      1.808      2.172
REMARK  Name = 
REMARK  8 active torsions:
REMARK  status: ('A' for Active; 'I' for Inactive)
REMARK    1  A    between atoms: C_2  and  C_3
REMARK    2  A    between atoms: C_3  and  C_4
REMARK    3  A    between atoms: C_4  and  N_5
REMARK    4  A    between atoms: N_18  and  CA_19
REMARK    5  A    between atoms: CA_19  and  CB_20
REMARK    6  A    between atoms: CA_19  and  C_22
REMARK    7  A    between atoms: CB_20  and  SG_21
REMARK    8  A    between atoms: C_22  and  OXT_24
REMARK                            x       y       z     vdW  Elec       q    Type
REMARK                         _______ _______ _______ _____ _____    ______ ____
ROOT
ATOM      1  C   UNK A   0       2.538   7.572  18.966  0.00  0.00    +0.000 C 
ENDROOT
BRANCH   1   2
ATOM      2  N   UNK A   0       2.866   6.201  18.581  0.00  0.00    +0.000 N 
ATOM      3  C   UNK A   0       3.780   5.857  17.597  0.00  0.00    +0.000 A 
ATOM      4  C   UNK A   0       4.590   6.645  16.760  0.00  0.00    +0.000 A 
ATOM      5  C   UNK A   0       5.424   5.997  15.842  0.00  0.00    +0.000 A 
ATOM      6  C   UNK A   0       5.452   4.609  15.754  0.00  0.00    +0.000 A 
ATOM      7  C   UNK A   0       4.650   3.832  16.594  0.00  0.00    +0.000 A 
ATOM      8  C   UNK A   0       3.807   4.461  17.536  0.00  0.00    +0.000 A 
ATOM      9  C   UNK A   0       2.916   3.966  18.537  0.00  0.00    +0.000 A 
ATOM     10  C   UNK A   0       2.554   2.669  18.959  0.00  0.00    +0.000 A 
ATOM     11  C   UNK A   0       1.658   2.503  20.014  0.00  0.00    +0.000 A 
ATOM     12  C   UNK A   0       1.115   3.615  20.653  0.00  0.00    +0.000 A 
ATOM     13  C   UNK A   0       1.450   4.912  20.251  0.00  0.00    +0.000 A 
ATOM     14  C   UNK A   0       2.354   5.067  19.186  0.00  0.00    +0.000 A 
ENDBRANCH   1   2
BRANCH   1  15
ATOM     15  C   UNK A   0       1.735   8.260  17.874  0.00  0.00    +0.000 C 
BRANCH  15  17
ATOM     16  O   UNK A   0       2.354  10.599  17.676  0.00  0.00    +0.000 OA
ATOM     17  C   UNK A   0       1.573   9.750  18.083  0.00  0.00    +0.000 C 
ATOM     18  N   CYS A   1       0.436  10.041  18.801  0.00  0.00    +0.000 N 
ATOM     19  H   CYS A   1      -0.061   9.270  19.247  0.00  0.00    +0.000 HD
BRANCH  18  20
ATOM     20  CA  CYS A   1       0.052  11.381  19.270  0.00  0.00    +0.000 C 
BRANCH  20  21
ATOM     21  C   CYS A   1       1.022  11.724  20.417  0.00  0.00    +0.000 C 
ATOM     22  O   CYS A   1       0.953  11.184  21.519  0.00  0.00    +0.000 OA
BRANCH  21  23
ATOM     23  OXT CYS A   1       1.990  12.615  20.127  0.00  0.00    +0.000 OA
ATOM     24  HXT CYS A   1       2.909  12.295  20.173  0.00  0.00    +0.000 HD
ENDBRANCH  21  23
ENDBRANCH  20  21
BRANCH  20  25
ATOM     25  CB  CYS A   1      -1.424  11.490  19.677  0.00  0.00    +0.000 C 
BRANCH  25  26
ATOM     26  SG  CYS A   1      -2.606  11.516  18.286  0.00  0.00    +0.000 S 
ATOM     27  HG  CYS A   1      -3.654  12.010  18.964  0.00  0.00    +0.000 HD
ENDBRANCH  25  26
ENDBRANCH  20  25
ENDBRANCH  18  20
ENDBRANCH  15  17
ENDBRANCH   1  15
TORSDOF 8
ENDMDL
MODEL 6
REMARK VINA RESULT:      -7.3      1.817      4.001
REMARK  Name = 
REMARK  8 active torsions:
REMARK  status: ('A' for Active; 'I' for Inactive)
REMARK    1  A    between atoms: C_2  and  C_3
REMARK    2  A    between atoms: C_3  and  C_4
REMARK    3  A    between atoms: C_4  and  N_5
REMARK    4  A    between atoms: N_18  and  CA_19
REMARK    5  A    between atoms: CA_19  and  CB_20
REMARK    6  A    between atoms: CA_19  and  C_22
REMARK    7  A    between atoms: CB_20  and  SG_21
REMARK    8  A    between atoms: C_22  and  OXT_24
REMARK                            x       y       z     vdW  Elec       q    Type
REMARK                         _______ _______ _______ _____ _____    ______ ____
ROOT
ATOM      1  C   UNK A   0       2.571   7.234  18.943  0.00  0.00    +0.000 C 
ENDROOT
BRANCH   1   2
ATOM      2  N   UNK A   0       2.942   5.915  18.432  0.00  0.00    +0.000 N 
ATOM      3  C   UNK A   0       2.341   4.725  18.815  0.00  0.00    +0.000 A 
ATOM      4  C   UNK A   0       1.297   4.456  19.717  0.00  0.00    +0.000 A 
ATOM      5  C   UNK A   0       0.906   3.126  19.901  0.00  0.00    +0.000 A 
ATOM      6  C   UNK A   0       1.535   2.092  19.217  0.00  0.00    +0.000 A 
ATOM      7  C   UNK A   0       2.568   2.367  18.317  0.00  0.00    +0.000 A 
ATOM      8  C   UNK A   0       2.974   3.703  18.104  0.00  0.00    +0.000 A 
ATOM      9  C   UNK A   0       3.946   4.306  17.248  0.00  0.00    +0.000 A 
ATOM     10  C   UNK A   0       4.854   3.794  16.297  0.00  0.00    +0.000 A 
ATOM     11  C   UNK A   0       5.674   4.662  15.577  0.00  0.00    +0.000 A 
ATOM     12  C   UNK A   0       5.602   6.035  15.795  0.00  0.00    +0.000 A 
ATOM     13  C   UNK A   0       4.718   6.570  16.738  0.00  0.00    +0.000 A 
ATOM     14  C   UNK A   0       3.897   5.685  17.458  0.00  0.00    +0.000 A 
ENDBRANCH   1   2
BRANCH   1  15
ATOM     15  C   UNK A   0       1.958   8.084  17.843  0.00  0.00    +0.000 C 
BRANCH  15  17
ATOM     16  O   UNK A   0       2.279  10.486  17.684  0.00  0.00    +0.000 OA
ATOM     17  C   UNK A   0       1.749   9.531  18.235  0.00  0.00    +0.000 C 
ATOM     18  N   CYS A   1       0.892   9.648  19.305  0.00  0.00    +0.000 N 
ATOM     19  H   CYS A   1       0.635   8.800  19.810  0.00  0.00    +0.000 HD
BRANCH  18  20
ATOM     20  CA  CYS A   1       0.572  10.905  19.999  0.00  0.00    +0.000 C 
BRANCH  20  21
ATOM     21  C   CYS A   1       0.400  10.537  21.485  0.00  0.00    +0.000 C 
ATOM     22  O   CYS A   1       1.289   9.991  22.134  0.00  0.00    +0.000 OA
BRANCH  21  23
ATOM     23  OXT CYS A   1      -0.767  10.899  22.053  0.00  0.00    +0.000 OA
ATOM     24  HXT CYS A   1      -1.057  11.817  21.914  0.00  0.00    +0.000 HD
ENDBRANCH  21  23
ENDBRANCH  20  21
BRANCH  20  25
ATOM     25  CB  CYS A   1      -0.644  11.637  19.416  0.00  0.00    +0.000 C 
BRANCH  25  26
ATOM     26  SG  CYS A   1      -1.740  10.606  18.383  0.00  0.00    +0.000 S 
ATOM     27  HG  CYS A   1      -1.572   9.455  19.053  0.00  0.00    +0.000 HD
ENDBRANCH  25  26
ENDBRANCH  20  25
ENDBRANCH  18  20
ENDBRANCH  15  17
ENDBRANCH   1  15
TORSDOF 8
ENDMDL
MODEL 7
REMARK VINA RESULT:      -7.3      1.791      2.261
REMARK  Name = 
REMARK  8 active torsions:
REMARK  status: ('A' for Active; 'I' for Inactive)
REMARK    1  A    between atoms: C_2  and  C_3
REMARK    2  A    between atoms: C_3  and  C_4
REMARK    3  A    between atoms: C_4  and  N_5
REMARK    4  A    between atoms: N_18  and  CA_19
REMARK    5  A    between atoms: CA_19  and  CB_20
REMARK    6  A    between atoms: CA_19  and  C_22
REMARK    7  A    between atoms: CB_20  and  SG_21
REMARK    8  A    between atoms: C_22  and  OXT_24
REMARK                            x       y       z     vdW  Elec       q    Type
REMARK                         _______ _______ _______ _____ _____    ______ ____
ROOT
ATOM      1  C   UNK A   0       2.634   7.243  18.886  0.00  0.00    +0.000 C 
ENDROOT
BRANCH   1   2
ATOM      2  N   UNK A   0       2.941   5.918  18.351  0.00  0.00    +0.000 N 
ATOM      3  C   UNK A   0       3.937   5.654  17.423  0.00  0.00    +0.000 A 
ATOM      4  C   UNK A   0       4.863   6.498  16.785  0.00  0.00    +0.000 A 
ATOM      5  C   UNK A   0       5.759   5.931  15.873  0.00  0.00    +0.000 A 
ATOM      6  C   UNK A   0       5.737   4.567  15.599  0.00  0.00    +0.000 A 
ATOM      7  C   UNK A   0       4.819   3.734  16.243  0.00  0.00    +0.000 A 
ATOM      8  C   UNK A   0       3.910   4.280  17.175  0.00  0.00    +0.000 A 
ATOM      9  C   UNK A   0       2.899   3.708  18.007  0.00  0.00    +0.000 A 
ATOM     10  C   UNK A   0       2.439   2.390  18.210  0.00  0.00    +0.000 A 
ATOM     11  C   UNK A   0       1.431   2.138  19.140  0.00  0.00    +0.000 A 
ATOM     12  C   UNK A   0       0.873   3.185  19.869  0.00  0.00    +0.000 A 
ATOM     13  C   UNK A   0       1.304   4.503  19.683  0.00  0.00    +0.000 A 
ATOM     14  C   UNK A   0       2.320   4.745  18.743  0.00  0.00    +0.000 A 
ENDBRANCH   1   2
BRANCH   1  15
ATOM     15  C   UNK A   0       1.925   8.092  17.844  0.00  0.00    +0.000 C 
BRANCH  15  17
ATOM     16  O   UNK A   0       2.321  10.481  17.667  0.00  0.00    +0.000 OA
ATOM     17  C   UNK A   0       1.778   9.546  18.239  0.00  0.00    +0.000 C 
ATOM     18  N   CYS A   1       0.963   9.693  19.337  0.00  0.00    +0.000 N 
ATOM     19  H   CYS A   1       0.696   8.855  19.854  0.00  0.00    +0.000 HD
BRANCH  18  20
ATOM     20  CA  CYS A   1       0.710  10.961  20.039  0.00  0.00    +0.000 C 
BRANCH  20  21
ATOM     21  C   CYS A   1       0.184  10.577  21.434  0.00  0.00    +0.000 C 
ATOM     22  O   CYS A   1      -0.009  11.410  22.317  0.00  0.00    +0.000 OA
BRANCH  21  23
ATOM     23  OXT CYS A   1      -0.108   9.274  21.619  0.00  0.00    +0.000 OA
ATOM     24  HXT CYS A   1      -0.421   9.015  22.503  0.00  0.00    +0.000 HD
ENDBRANCH  21  23
ENDBRANCH  20  21
BRANCH  20  25
ATOM     25  CB  CYS A   1      -0.233  11.905  19.279  0.00  0.00    +0.000 C 
BRANCH  25  26
ATOM     26  SG  CYS A   1      -1.751  11.123  18.635  0.00  0.00    +0.000 S 
ATOM     27  HG  CYS A   1      -1.252   9.887  18.480  0.00  0.00    +0.000 HD
ENDBRANCH  25  26
ENDBRANCH  20  25
ENDBRANCH  18  20
ENDBRANCH  15  17
ENDBRANCH   1  15
TORSDOF 8
ENDMDL
MODEL 8
REMARK VINA RESULT:      -7.3      0.342      3.281
REMARK  Name = 
REMARK  8 active torsions:
REMARK  status: ('A' for Active; 'I' for Inactive)
REMARK    1  A    between atoms: C_2  and  C_3
REMARK    2  A    between atoms: C_3  and  C_4
REMARK    3  A    between atoms: C_4  and  N_5
REMARK    4  A    between atoms: N_18  and  CA_19
REMARK    5  A    between atoms: CA_19  and  CB_20
REMARK    6  A    between atoms: CA_19  and  C_22
REMARK    7  A    between atoms: CB_20  and  SG_21
REMARK    8  A    between atoms: C_22  and  OXT_24
REMARK                            x       y       z     vdW  Elec       q    Type
REMARK                         _______ _______ _______ _____ _____    ______ ____
ROOT
ATOM      1  C   UNK A   0       2.562   7.405  19.235  0.00  0.00    +0.000 C 
ENDROOT
BRANCH   1   2
ATOM      2  N   UNK A   0       2.882   6.120  18.616  0.00  0.00    +0.000 N 
ATOM      3  C   UNK A   0       2.268   4.918  18.936  0.00  0.00    +0.000 A 
ATOM      4  C   UNK A   0       1.252   4.605  19.856  0.00  0.00    +0.000 A 
ATOM      5  C   UNK A   0       0.837   3.274  19.960  0.00  0.00    +0.000 A 
ATOM      6  C   UNK A   0       1.416   2.279  19.179  0.00  0.00    +0.000 A 
ATOM      7  C   UNK A   0       2.420   2.598  18.261  0.00  0.00    +0.000 A 
ATOM      8  C   UNK A   0       2.850   3.937  18.129  0.00  0.00    +0.000 A 
ATOM      9  C   UNK A   0       3.803   4.580  17.282  0.00  0.00    +0.000 A 
ATOM     10  C   UNK A   0       4.662   4.120  16.262  0.00  0.00    +0.000 A 
ATOM     11  C   UNK A   0       5.475   5.020  15.575  0.00  0.00    +0.000 A 
ATOM     12  C   UNK A   0       5.444   6.375  15.894  0.00  0.00    +0.000 A 
ATOM     13  C   UNK A   0       4.609   6.859  16.906  0.00  0.00    +0.000 A 
ATOM     14  C   UNK A   0       3.794   5.941  17.592  0.00  0.00    +0.000 A 
ENDBRANCH   1   2
BRANCH   1  15
ATOM     15  C   UNK A   0       1.897   8.334  18.233  0.00  0.00    +0.000 C 
BRANCH  15  17
ATOM     16  O   UNK A   0       1.043   9.726  20.029  0.00  0.00    +0.000 OA
ATOM     17  C   UNK A   0       0.976   9.355  18.866  0.00  0.00    +0.000 C 
ATOM     18  N   CYS A   1       0.036   9.813  17.972  0.00  0.00    +0.000 N 
ATOM     19  H   CYS A   1      -0.058   9.327  17.080  0.00  0.00    +0.000 HD
BRANCH  18  20
ATOM     20  CA  CYS A   1      -1.072  10.723  18.302  0.00  0.00    +0.000 C 
BRANCH  20  21
ATOM     21  C   CYS A   1      -2.239  10.321  17.380  0.00  0.00    +0.000 C 
ATOM     22  O   CYS A   1      -3.315   9.921  17.819  0.00  0.00    +0.000 OA
BRANCH  21  23
ATOM     23  OXT CYS A   1      -2.034  10.486  16.059  0.00  0.00    +0.000 OA
ATOM     24  HXT CYS A   1      -1.113  10.440  15.748  0.00  0.00    +0.000 HD
ENDBRANCH  21  23
ENDBRANCH  20  21
BRANCH  20  25
ATOM     25  CB  CYS A   1      -0.702  12.208  18.192  0.00  0.00    +0.000 C 
BRANCH  25  26
ATOM     26  SG  CYS A   1      -1.076  13.207  19.673  0.00  0.00    +0.000 S 
ATOM     27  HG  CYS A   1      -1.464  14.321  19.033  0.00  0.00    +0.000 HD
ENDBRANCH  25  26
ENDBRANCH  20  25
ENDBRANCH  18  20
ENDBRANCH  15  17
ENDBRANCH   1  15
TORSDOF 8
ENDMDL
MODEL 9
REMARK VINA RESULT:      -7.2      1.070      1.125
REMARK  Name = 
REMARK  8 active torsions:
REMARK  status: ('A' for Active; 'I' for Inactive)
REMARK    1  A    between atoms: C_2  and  C_3
REMARK    2  A    between atoms: C_3  and  C_4
REMARK    3  A    between atoms: C_4  and  N_5
REMARK    4  A    between atoms: N_18  and  CA_19
REMARK    5  A    between atoms: CA_19  and  CB_20
REMARK    6  A    between atoms: CA_19  and  C_22
REMARK    7  A    between atoms: CB_20  and  SG_21
REMARK    8  A    between atoms: C_22  and  OXT_24
REMARK                            x       y       z     vdW  Elec       q    Type
REMARK                         _______ _______ _______ _____ _____    ______ ____
ROOT
ATOM      1  C   UNK A   0       2.642   7.080  19.464  0.00  0.00    +0.000 C 
ENDROOT
BRANCH   1   2
ATOM      2  N   UNK A   0       2.887   5.864  18.691  0.00  0.00    +0.000 N 
ATOM      3  C   UNK A   0       3.837   5.748  17.687  0.00  0.00    +0.000 A 
ATOM      4  C   UNK A   0       4.762   6.671  17.167  0.00  0.00    +0.000 A 
ATOM      5  C   UNK A   0       5.603   6.254  16.130  0.00  0.00    +0.000 A 
ATOM      6  C   UNK A   0       5.530   4.962  15.621  0.00  0.00    +0.000 A 
ATOM      7  C   UNK A   0       4.614   4.048  16.149  0.00  0.00    +0.000 A 
ATOM      8  C   UNK A   0       3.759   4.440  17.202  0.00  0.00    +0.000 A 
ATOM      9  C   UNK A   0       2.766   3.753  17.965  0.00  0.00    +0.000 A 
ATOM     10  C   UNK A   0       2.275   2.430  17.952  0.00  0.00    +0.000 A 
ATOM     11  C   UNK A   0       1.298   2.040  18.867  0.00  0.00    +0.000 A 
ATOM     12  C   UNK A   0       0.802   2.953  19.794  0.00  0.00    +0.000 A 
ATOM     13  C   UNK A   0       1.263   4.273  19.823  0.00  0.00    +0.000 A 
ATOM     14  C   UNK A   0       2.248   4.655  18.896  0.00  0.00    +0.000 A 
ENDBRANCH   1   2
BRANCH   1  15
ATOM     15  C   UNK A   0       1.981   8.142  18.600  0.00  0.00    +0.000 C 
BRANCH  15  17
ATOM     16  O   UNK A   0       0.853   9.016  20.564  0.00  0.00    +0.000 OA
ATOM     17  C   UNK A   0       1.151   9.136  19.384  0.00  0.00    +0.000 C 
ATOM     18  N   CYS A   1       0.755  10.196  18.601  0.00  0.00    +0.000 N 
ATOM     19  H   CYS A   1       0.898  10.130  17.594  0.00  0.00    +0.000 HD
BRANCH  18  20
ATOM     20  CA  CYS A   1      -0.154  11.270  19.029  0.00  0.00    +0.000 C 
BRANCH  20  21
ATOM     21  C   CYS A   1      -1.380  11.184  18.101  0.00  0.00    +0.000 C 
ATOM     22  O   CYS A   1      -2.401  11.839  18.298  0.00  0.00    +0.000 OA
BRANCH  21  23
ATOM     23  OXT CYS A   1      -1.252  10.386  17.023  0.00  0.00    +0.000 OA
ATOM     24  HXT CYS A   1      -0.361  10.045  16.833  0.00  0.00    +0.000 HD
ENDBRANCH  21  23
ENDBRANCH  20  21
BRANCH  20  25
ATOM     25  CB  CYS A   1       0.498  12.660  19.037  0.00  0.00    +0.000 C 
BRANCH  25  26
ATOM     26  SG  CYS A   1       2.178  12.726  18.325  0.00  0.00    +0.000 S 
ATOM     27  HG  CYS A   1       2.811  12.091  19.325  0.00  0.00    +0.000 HD
ENDBRANCH  25  26
ENDBRANCH  20  25
ENDBRANCH  18  20
ENDBRANCH  15  17
ENDBRANCH   1  15
TORSDOF 8
ENDMDL
