MODEL 1
REMARK VINA RESULT:      -8.1      0.000      0.000
REMARK  Name = 
REMARK  9 active torsions:
REMARK  status: ('A' for Active; 'I' for Inactive)
REMARK    1  A    between atoms: C_1  and  C_2
REMARK    2  A    between atoms: C_2  and  C_3
REMARK    3  A    between atoms: C_2  and  C_4
REMARK    4  A    between atoms: C_8  and  C_9
REMARK    5  A    between atoms: C_9  and  C_10
REMARK    6  A    between atoms: C_9  and  C_11
REMARK    7  A    between atoms: C_12  and  N_13
REMARK    8  A    between atoms: N_19  and  C_20
REMARK    9  A    between atoms: C_20  and  C_21
REMARK                            x       y       z     vdW  Elec       q    Type
REMARK                         _______ _______ _______ _____ _____    ______ ____
ROOT
ATOM      1  N   UNL     1       0.548  10.315  18.267  0.00  0.00    +0.000 N 
ATOM      2  C   UNL     1       1.045   9.295  19.077  0.00  0.00    +0.000 C 
ATOM      3  O   UNL     1       0.689   9.081  20.232  0.00  0.00    +0.000 OA
ATOM      4  N   UNL     1       1.976   8.501  18.431  0.00  0.00    +0.000 N 
ATOM      5  C   UNL     1       2.605   7.414  18.970  0.00  0.00    +0.000 C 
ATOM      6  N   UNL     1       3.463   6.730  18.265  0.00  0.00    +0.000 NA
ATOM      7  N   UNL     1       3.904   5.726  19.107  0.00  0.00    +0.000 N 
ATOM      8  N   UNL     1       2.981   5.672  20.233  0.00  0.00    +0.000 NA
ATOM      9  N   UNL     1       2.382   6.934  20.230  0.00  0.00    +0.000 N 
ATOM     10  H   UNL     1       1.083  10.554  17.453  0.00  0.00    +0.000 HD
ATOM     11  H   UNL     1       2.266   8.727  17.493  0.00  0.00    +0.000 HD
ATOM     12  H   UNL     1       3.526   5.540  21.095  0.00  0.00    +0.000 HD
ATOM     13  H   UNL     1       1.447   7.076  20.606  0.00  0.00    +0.000 HD
ENDROOT
BRANCH   1  19
ATOM     14  C   UNL     1      -1.781  11.083  18.424  0.00  0.00    +0.000 A 
ATOM     15  C   UNL     1      -2.725  12.011  18.912  0.00  0.00    +0.000 A 
ATOM     16  C   UNL     1      -2.332  13.130  19.630  0.00  0.00    +0.000 A 
ATOM     17  C   UNL     1      -0.983  13.345  19.865  0.00  0.00    +0.000 A 
ATOM     18  C   UNL     1       0.016  12.449  19.408  0.00  0.00    +0.000 A 
ATOM     19  C   UNL     1      -0.400  11.272  18.721  0.00  0.00    +0.000 A 
BRANCH  14  21
ATOM     20  C   UNL     1      -3.634   9.402  17.965  0.00  0.00    +0.000 C 
ATOM     21  C   UNL     1      -2.302   9.993  17.487  0.00  0.00    +0.000 C 
ATOM     22  C   UNL     1      -2.444  10.528  16.055  0.00  0.00    +0.000 C 
ENDBRANCH  14  21
BRANCH  18  23
ATOM     23  C   UNL     1       1.434  12.851  19.828  0.00  0.00    +0.000 C 
ATOM     24  C   UNL     1       2.239  13.381  18.639  0.00  0.00    +0.000 C 
ATOM     25  C   UNL     1       1.582  13.760  21.044  0.00  0.00    +0.000 C 
ENDBRANCH  18  23
ENDBRANCH   1  19
BRANCH   7  26
ATOM     26  C   UNL     1       4.137   4.387  18.539  0.00  0.00    +0.000 C 
BRANCH  26  27
ATOM     27  C   UNL     1       5.143   4.365  17.396  0.00  0.00    +0.000 A 
ATOM     28  C   UNL     1       4.724   4.155  16.072  0.00  0.00    +0.000 A 
ATOM     29  C   UNL     1       5.637   4.208  15.014  0.00  0.00    +0.000 A 
ATOM     30  C   UNL     1       6.985   4.474  15.259  0.00  0.00    +0.000 A 
ATOM     31  C   UNL     1       7.414   4.689  16.570  0.00  0.00    +0.000 A 
ATOM     32  C   UNL     1       6.501   4.635  17.630  0.00  0.00    +0.000 A 
ENDBRANCH  26  27
ENDBRANCH   7  26
TORSDOF 5
ENDMDL
MODEL 2
REMARK VINA RESULT:      -8.1      3.158      9.356
REMARK  Name = 
REMARK  9 active torsions:
REMARK  status: ('A' for Active; 'I' for Inactive)
REMARK    1  A    between atoms: C_1  and  C_2
REMARK    2  A    between atoms: C_2  and  C_3
REMARK    3  A    between atoms: C_2  and  C_4
REMARK    4  A    between atoms: C_8  and  C_9
REMARK    5  A    between atoms: C_9  and  C_10
REMARK    6  A    between atoms: C_9  and  C_11
REMARK    7  A    between atoms: C_12  and  N_13
REMARK    8  A    between atoms: N_19  and  C_20
REMARK    9  A    between atoms: C_20  and  C_21
REMARK                            x       y       z     vdW  Elec       q    Type
REMARK                         _______ _______ _______ _____ _____    ______ ____
ROOT
ATOM      1  N   UNL     1       3.190   5.810  20.009  0.00  0.00    +0.000 N 
ATOM      2  C   UNL     1       2.312   6.876  19.821  0.00  0.00    +0.000 C 
ATOM      3  O   UNL     1       1.748   7.140  18.763  0.00  0.00    +0.000 OA
ATOM      4  N   UNL     1       2.100   7.608  20.975  0.00  0.00    +0.000 N 
ATOM      5  C   UNL     1       1.269   8.687  21.092  0.00  0.00    +0.000 C 
ATOM      6  N   UNL     1       1.138   9.300  22.235  0.00  0.00    +0.000 NA
ATOM      7  N   UNL     1       0.246  10.328  21.994  0.00  0.00    +0.000 N 
ATOM      8  N   UNL     1      -0.395  10.052  20.715  0.00  0.00    +0.000 NA
ATOM      9  N   UNL     1       0.498   9.186  20.079  0.00  0.00    +0.000 N 
ATOM     10  H   UNL     1       3.779   5.840  20.821  0.00  0.00    +0.000 HD
ATOM     11  H   UNL     1       2.605   7.380  21.817  0.00  0.00    +0.000 HD
ATOM     12  H   UNL     1      -0.469  10.933  20.190  0.00  0.00    +0.000 HD
ATOM     13  H   UNL     1       0.179   8.514  19.385  0.00  0.00    +0.000 HD
ENDROOT
BRANCH   1  19
ATOM     14  C   UNL     1       2.752   3.817  18.639  0.00  0.00    +0.000 A 
ATOM     15  C   UNL     1       3.119   2.972  17.571  0.00  0.00    +0.000 A 
ATOM     16  C   UNL     1       4.292   3.174  16.861  0.00  0.00    +0.000 A 
ATOM     17  C   UNL     1       5.127   4.222  17.216  0.00  0.00    +0.000 A 
ATOM     18  C   UNL     1       4.815   5.111  18.275  0.00  0.00    +0.000 A 
ATOM     19  C   UNL     1       3.579   4.932  18.961  0.00  0.00    +0.000 A 
BRANCH  14  21
ATOM     20  C   UNL     1       0.641   2.402  18.728  0.00  0.00    +0.000 C 
ATOM     21  C   UNL     1       1.542   3.395  19.472  0.00  0.00    +0.000 C 
ATOM     22  C   UNL     1       1.986   2.801  20.817  0.00  0.00    +0.000 C 
ENDBRANCH  14  21
BRANCH  18  23
ATOM     23  C   UNL     1       5.847   6.229  18.456  0.00  0.00    +0.000 C 
ATOM     24  C   UNL     1       7.110   5.715  19.153  0.00  0.00    +0.000 C 
ATOM     25  C   UNL     1       6.197   7.076  17.237  0.00  0.00    +0.000 C 
ENDBRANCH  18  23
ENDBRANCH   1  19
BRANCH   7  26
ATOM     26  C   UNL     1      -0.747  10.653  23.032  0.00  0.00    +0.000 C 
BRANCH  26  27
ATOM     27  C   UNL     1      -1.369  12.036  22.883  0.00  0.00    +0.000 A 
ATOM     28  C   UNL     1      -2.714  12.260  23.220  0.00  0.00    +0.000 A 
ATOM     29  C   UNL     1      -3.264  13.544  23.153  0.00  0.00    +0.000 A 
ATOM     30  C   UNL     1      -2.482  14.626  22.750  0.00  0.00    +0.000 A 
ATOM     31  C   UNL     1      -1.142  14.418  22.417  0.00  0.00    +0.000 A 
ATOM     32  C   UNL     1      -0.590  13.133  22.483  0.00  0.00    +0.000 A 
ENDBRANCH  26  27
ENDBRANCH   7  26
TORSDOF 5
ENDMDL
MODEL 3
REMARK VINA RESULT:      -7.8      0.211      3.198
REMARK  Name = 
REMARK  9 active torsions:
REMARK  status: ('A' for Active; 'I' for Inactive)
REMARK    1  A    between atoms: C_1  and  C_2
REMARK    2  A    between atoms: C_2  and  C_3
REMARK    3  A    between atoms: C_2  and  C_4
REMARK    4  A    between atoms: C_8  and  C_9
REMARK    5  A    between atoms: C_9  and  C_10
REMARK    6  A    between atoms: C_9  and  C_11
REMARK    7  A    between atoms: C_12  and  N_13
REMARK    8  A    between atoms: N_19  and  C_20
REMARK    9  A    between atoms: C_20  and  C_21
REMARK                            x       y       z     vdW  Elec       q    Type
REMARK                         _______ _______ _______ _____ _____    ______ ____
ROOT
ATOM      1  N   UNL     1       0.582  10.282  18.136  0.00  0.00    +0.000 N 
ATOM      2  C   UNL     1       1.070   9.271  18.961  0.00  0.00    +0.000 C 
ATOM      3  O   UNL     1       0.699   9.066  20.114  0.00  0.00    +0.000 OA
ATOM      4  N   UNL     1       2.013   8.475  18.336  0.00  0.00    +0.000 N 
ATOM      5  C   UNL     1       2.640   7.395  18.894  0.00  0.00    +0.000 C 
ATOM      6  N   UNL     1       3.510   6.709  18.208  0.00  0.00    +0.000 NA
ATOM      7  N   UNL     1       3.943   5.714  19.065  0.00  0.00    +0.000 N 
ATOM      8  N   UNL     1       3.005   5.667  20.178  0.00  0.00    +0.000 NA
ATOM      9  N   UNL     1       2.401   6.927  20.156  0.00  0.00    +0.000 N 
ATOM     10  H   UNL     1       1.126  10.515  17.326  0.00  0.00    +0.000 HD
ATOM     11  H   UNL     1       2.317   8.693  17.400  0.00  0.00    +0.000 HD
ATOM     12  H   UNL     1       3.538   5.545  21.050  0.00  0.00    +0.000 HD
ATOM     13  H   UNL     1       1.460   7.068  20.517  0.00  0.00    +0.000 HD
ENDROOT
BRANCH   1  19
ATOM     14  C   UNL     1       0.057  12.390  19.284  0.00  0.00    +0.000 A 
ATOM     15  C   UNL     1      -0.892  13.359  19.673  0.00  0.00    +0.000 A 
ATOM     16  C   UNL     1      -2.244  13.190  19.416  0.00  0.00    +0.000 A 
ATOM     17  C   UNL     1      -2.672  12.039  18.773  0.00  0.00    +0.000 A 
ATOM     18  C   UNL     1      -1.771  11.029  18.350  0.00  0.00    +0.000 A 
ATOM     19  C   UNL     1      -0.377  11.239  18.566  0.00  0.00    +0.000 A 
BRANCH  14  21
ATOM     20  C   UNL     1       2.406  13.173  18.704  0.00  0.00    +0.000 C 
ATOM     21  C   UNL     1       1.489  12.585  19.782  0.00  0.00    +0.000 C 
ATOM     22  C   UNL     1       1.514  13.469  21.038  0.00  0.00    +0.000 C 
ENDBRANCH  14  21
BRANCH  18  23
ATOM     23  C   UNL     1      -2.453   9.875  17.609  0.00  0.00    +0.000 C 
ATOM     24  C   UNL     1      -3.902   9.697  18.069  0.00  0.00    +0.000 C 
ATOM     25  C   UNL     1      -2.349   9.848  16.088  0.00  0.00    +0.000 C 
ENDBRANCH  18  23
ENDBRANCH   1  19
BRANCH   7  26
ATOM     26  C   UNL     1       4.190   4.371  18.513  0.00  0.00    +0.000 C 
BRANCH  26  27
ATOM     27  C   UNL     1       5.186   4.347  17.362  0.00  0.00    +0.000 A 
ATOM     28  C   UNL     1       4.765   4.069  16.051  0.00  0.00    +0.000 A 
ATOM     29  C   UNL     1       5.667   4.120  14.984  0.00  0.00    +0.000 A 
ATOM     30  C   UNL     1       7.005   4.451  15.206  0.00  0.00    +0.000 A 
ATOM     31  C   UNL     1       7.435   4.734  16.503  0.00  0.00    +0.000 A 
ATOM     32  C   UNL     1       6.534   4.682  17.573  0.00  0.00    +0.000 A 
ENDBRANCH  26  27
ENDBRANCH   7  26
TORSDOF 5
ENDMDL
MODEL 4
REMARK VINA RESULT:      -7.8      2.810      9.314
REMARK  Name = 
REMARK  9 active torsions:
REMARK  status: ('A' for Active; 'I' for Inactive)
REMARK    1  A    between atoms: C_1  and  C_2
REMARK    2  A    between atoms: C_2  and  C_3
REMARK    3  A    between atoms: C_2  and  C_4
REMARK    4  A    between atoms: C_8  and  C_9
REMARK    5  A    between atoms: C_9  and  C_10
REMARK    6  A    between atoms: C_9  and  C_11
REMARK    7  A    between atoms: C_12  and  N_13
REMARK    8  A    between atoms: N_19  and  C_20
REMARK    9  A    between atoms: C_20  and  C_21
REMARK                            x       y       z     vdW  Elec       q    Type
REMARK                         _______ _______ _______ _____ _____    ______ ____
ROOT
ATOM      1  N   UNL     1       3.018   5.807  19.954  0.00  0.00    +0.000 N 
ATOM      2  C   UNL     1       2.334   6.958  19.566  0.00  0.00    +0.000 C 
ATOM      3  O   UNL     1       2.014   7.226  18.411  0.00  0.00    +0.000 OA
ATOM      4  N   UNL     1       2.010   7.776  20.632  0.00  0.00    +0.000 N 
ATOM      5  C   UNL     1       1.318   8.953  20.551  0.00  0.00    +0.000 C 
ATOM      6  N   UNL     1       1.060   9.643  21.627  0.00  0.00    +0.000 NA
ATOM      7  N   UNL     1       0.368  10.755  21.185  0.00  0.00    +0.000 N 
ATOM      8  N   UNL     1      -0.056  10.484  19.818  0.00  0.00    +0.000 NA
ATOM      9  N   UNL     1       0.819   9.481  19.393  0.00  0.00    +0.000 N 
ATOM     10  H   UNL     1       3.446   5.813  20.861  0.00  0.00    +0.000 HD
ATOM     11  H   UNL     1       2.318   7.539  21.562  0.00  0.00    +0.000 HD
ATOM     12  H   UNL     1       0.082  11.335  19.258  0.00  0.00    +0.000 HD
ATOM     13  H   UNL     1       0.549   8.813  18.675  0.00  0.00    +0.000 HD
ENDROOT
BRANCH   1  19
ATOM     14  C   UNL     1       2.690   3.663  18.797  0.00  0.00    +0.000 A 
ATOM     15  C   UNL     1       3.127   2.715  17.848  0.00  0.00    +0.000 A 
ATOM     16  C   UNL     1       4.329   2.868  17.175  0.00  0.00    +0.000 A 
ATOM     17  C   UNL     1       5.122   3.971  17.448  0.00  0.00    +0.000 A 
ATOM     18  C   UNL     1       4.741   4.964  18.386  0.00  0.00    +0.000 A 
ATOM     19  C   UNL     1       3.476   4.828  19.030  0.00  0.00    +0.000 A 
BRANCH  14  21
ATOM     20  C   UNL     1       0.523   2.334  18.872  0.00  0.00    +0.000 C 
ATOM     21  C   UNL     1       1.450   3.303  19.615  0.00  0.00    +0.000 C 
ATOM     22  C   UNL     1       1.847   2.717  20.978  0.00  0.00    +0.000 C 
ENDBRANCH  14  21
BRANCH  18  23
ATOM     23  C   UNL     1       5.738   6.122  18.488  0.00  0.00    +0.000 C 
ATOM     24  C   UNL     1       7.067   5.661  19.093  0.00  0.00    +0.000 C 
ATOM     25  C   UNL     1       5.965   6.974  17.244  0.00  0.00    +0.000 C 
ENDBRANCH  18  23
ENDBRANCH   1  19
BRANCH   7  26
ATOM     26  C   UNL     1      -0.749  11.257  22.004  0.00  0.00    +0.000 C 
BRANCH  26  27
ATOM     27  C   UNL     1      -0.614  12.720  22.405  0.00  0.00    +0.000 A 
ATOM     28  C   UNL     1       0.276  13.573  21.731  0.00  0.00    +0.000 A 
ATOM     29  C   UNL     1       0.346  14.932  22.051  0.00  0.00    +0.000 A 
ATOM     30  C   UNL     1      -0.472  15.465  23.048  0.00  0.00    +0.000 A 
ATOM     31  C   UNL     1      -1.363  14.630  23.724  0.00  0.00    +0.000 A 
ATOM     32  C   UNL     1      -1.434  13.269  23.405  0.00  0.00    +0.000 A 
ENDBRANCH  26  27
ENDBRANCH   7  26
TORSDOF 5
ENDMDL
MODEL 5
REMARK VINA RESULT:      -7.7      3.132      9.676
REMARK  Name = 
REMARK  9 active torsions:
REMARK  status: ('A' for Active; 'I' for Inactive)
REMARK    1  A    between atoms: C_1  and  C_2
REMARK    2  A    between atoms: C_2  and  C_3
REMARK    3  A    between atoms: C_2  and  C_4
REMARK    4  A    between atoms: C_8  and  C_9
REMARK    5  A    between atoms: C_9  and  C_10
REMARK    6  A    between atoms: C_9  and  C_11
REMARK    7  A    between atoms: C_12  and  N_13
REMARK    8  A    between atoms: N_19  and  C_20
REMARK    9  A    between atoms: C_20  and  C_21
REMARK                            x       y       z     vdW  Elec       q    Type
REMARK                         _______ _______ _______ _____ _____    ______ ____
ROOT
ATOM      1  N   UNL     1       3.141   5.717  20.121  0.00  0.00    +0.000 N 
ATOM      2  C   UNL     1       2.265   6.778  19.899  0.00  0.00    +0.000 C 
ATOM      3  O   UNL     1       1.662   6.981  18.848  0.00  0.00    +0.000 OA
ATOM      4  N   UNL     1       2.104   7.585  21.010  0.00  0.00    +0.000 N 
ATOM      5  C   UNL     1       1.287   8.678  21.090  0.00  0.00    +0.000 C 
ATOM      6  N   UNL     1       1.206   9.364  22.196  0.00  0.00    +0.000 NA
ATOM      7  N   UNL     1       0.314  10.384  21.924  0.00  0.00    +0.000 N 
ATOM      8  N   UNL     1      -0.379  10.034  20.691  0.00  0.00    +0.000 NA
ATOM      9  N   UNL     1       0.482   9.119  20.077  0.00  0.00    +0.000 N 
ATOM     10  H   UNL     1       3.761   5.793  20.905  0.00  0.00    +0.000 HD
ATOM     11  H   UNL     1       2.640   7.406  21.845  0.00  0.00    +0.000 HD
ATOM     12  H   UNL     1      -0.466  10.880  20.113  0.00  0.00    +0.000 HD
ATOM     13  H   UNL     1       0.130   8.407  19.441  0.00  0.00    +0.000 HD
ENDROOT
BRANCH   1  19
ATOM     14  C   UNL     1       4.651   4.974  18.330  0.00  0.00    +0.000 A 
ATOM     15  C   UNL     1       5.010   4.011  17.364  0.00  0.00    +0.000 A 
ATOM     16  C   UNL     1       4.220   2.895  17.130  0.00  0.00    +0.000 A 
ATOM     17  C   UNL     1       3.050   2.729  17.853  0.00  0.00    +0.000 A 
ATOM     18  C   UNL     1       2.635   3.657  18.842  0.00  0.00    +0.000 A 
ATOM     19  C   UNL     1       3.482   4.770  19.117  0.00  0.00    +0.000 A 
BRANCH  14  21
ATOM     20  C   UNL     1       6.969   5.973  18.646  0.00  0.00    +0.000 C 
ATOM     21  C   UNL     1       5.487   6.254  18.374  0.00  0.00    +0.000 C 
ATOM     22  C   UNL     1       5.329   7.052  17.072  0.00  0.00    +0.000 C 
ENDBRANCH  14  21
BRANCH  18  23
ATOM     23  C   UNL     1       1.343   3.247  19.558  0.00  0.00    +0.000 C 
ATOM     24  C   UNL     1       0.543   2.239  18.730  0.00  0.00    +0.000 C 
ATOM     25  C   UNL     1       1.448   2.806  21.014  0.00  0.00    +0.000 C 
ENDBRANCH  18  23
ENDBRANCH   1  19
BRANCH   7  26
ATOM     26  C   UNL     1      -0.635  10.785  22.976  0.00  0.00    +0.000 C 
BRANCH  26  27
ATOM     27  C   UNL     1      -1.280  12.145  22.744  0.00  0.00    +0.000 A 
ATOM     28  C   UNL     1      -2.623  12.373  23.084  0.00  0.00    +0.000 A 
ATOM     29  C   UNL     1      -3.193  13.642  22.939  0.00  0.00    +0.000 A 
ATOM     30  C   UNL     1      -2.433  14.705  22.453  0.00  0.00    +0.000 A 
ATOM     31  C   UNL     1      -1.095  14.494  22.114  0.00  0.00    +0.000 A 
ATOM     32  C   UNL     1      -0.523  13.224  22.259  0.00  0.00    +0.000 A 
ENDBRANCH  26  27
ENDBRANCH   7  26
TORSDOF 5
ENDMDL
MODEL 6
REMARK VINA RESULT:      -7.7      2.881      9.619
REMARK  Name = 
REMARK  9 active torsions:
REMARK  status: ('A' for Active; 'I' for Inactive)
REMARK    1  A    between atoms: C_1  and  C_2
REMARK    2  A    between atoms: C_2  and  C_3
REMARK    3  A    between atoms: C_2  and  C_4
REMARK    4  A    between atoms: C_8  and  C_9
REMARK    5  A    between atoms: C_9  and  C_10
REMARK    6  A    between atoms: C_9  and  C_11
REMARK    7  A    between atoms: C_12  and  N_13
REMARK    8  A    between atoms: N_19  and  C_20
REMARK    9  A    between atoms: C_20  and  C_21
REMARK                            x       y       z     vdW  Elec       q    Type
REMARK                         _______ _______ _______ _____ _____    ______ ____
ROOT
ATOM      1  N   UNL     1       2.401   6.536  18.310  0.00  0.00    +0.000 N 
ATOM      2  C   UNL     1       2.178   7.120  19.556  0.00  0.00    +0.000 C 
ATOM      3  O   UNL     1       2.653   6.716  20.614  0.00  0.00    +0.000 OA
ATOM      4  N   UNL     1       1.379   8.246  19.486  0.00  0.00    +0.000 N 
ATOM      5  C   UNL     1       1.019   9.034  20.544  0.00  0.00    +0.000 C 
ATOM      6  N   UNL     1       0.266  10.082  20.361  0.00  0.00    +0.000 NA
ATOM      7  N   UNL     1       0.096  10.629  21.620  0.00  0.00    +0.000 N 
ATOM      8  N   UNL     1       1.090  10.019  22.492  0.00  0.00    +0.000 NA
ATOM      9  N   UNL     1       1.424   8.833  21.834  0.00  0.00    +0.000 N 
ATOM     10  H   UNL     1       1.772   6.784  17.569  0.00  0.00    +0.000 HD
ATOM     11  H   UNL     1       0.982   8.529  18.604  0.00  0.00    +0.000 HD
ATOM     12  H   UNL     1       0.647   9.809  23.397  0.00  0.00    +0.000 HD
ATOM     13  H   UNL     1       2.337   8.400  21.955  0.00  0.00    +0.000 HD
ENDROOT
BRANCH   1  19
ATOM     14  C   UNL     1       4.454   5.439  17.521  0.00  0.00    +0.000 A 
ATOM     15  C   UNL     1       5.234   4.271  17.387  0.00  0.00    +0.000 A 
ATOM     16  C   UNL     1       4.758   3.035  17.794  0.00  0.00    +0.000 A 
ATOM     17  C   UNL     1       3.485   2.944  18.335  0.00  0.00    +0.000 A 
ATOM     18  C   UNL     1       2.652   4.079  18.503  0.00  0.00    +0.000 A 
ATOM     19  C   UNL     1       3.171   5.354  18.135  0.00  0.00    +0.000 A 
BRANCH  14  21
ATOM     20  C   UNL     1       6.357   7.125  17.440  0.00  0.00    +0.000 C 
ATOM     21  C   UNL     1       4.996   6.711  16.868  0.00  0.00    +0.000 C 
ATOM     22  C   UNL     1       5.089   6.545  15.344  0.00  0.00    +0.000 C 
ENDBRANCH  14  21
BRANCH  18  23
ATOM     23  C   UNL     1       1.312   3.757  19.172  0.00  0.00    +0.000 C 
ATOM     24  C   UNL     1       0.700   2.473  18.606  0.00  0.00    +0.000 C 
ATOM     25  C   UNL     1       1.259   3.768  20.696  0.00  0.00    +0.000 C 
ENDBRANCH  18  23
ENDBRANCH   1  19
BRANCH   7  26
ATOM     26  C   UNL     1       0.092  12.096  21.753  0.00  0.00    +0.000 C 
BRANCH  26  27
ATOM     27  C   UNL     1      -1.030  12.635  22.630  0.00  0.00    +0.000 A 
ATOM     28  C   UNL     1      -0.974  13.939  23.150  0.00  0.00    +0.000 A 
ATOM     29  C   UNL     1      -2.038  14.459  23.893  0.00  0.00    +0.000 A 
ATOM     30  C   UNL     1      -3.176  13.688  24.131  0.00  0.00    +0.000 A 
ATOM     31  C   UNL     1      -3.247  12.392  23.616  0.00  0.00    +0.000 A 
ATOM     32  C   UNL     1      -2.182  11.870  22.872  0.00  0.00    +0.000 A 
ENDBRANCH  26  27
ENDBRANCH   7  26
TORSDOF 5
ENDMDL
MODEL 7
REMARK VINA RESULT:      -7.7      1.300      2.411
REMARK  Name = 
REMARK  9 active torsions:
REMARK  status: ('A' for Active; 'I' for Inactive)
REMARK    1  A    between atoms: C_1  and  C_2
REMARK    2  A    between atoms: C_2  and  C_3
REMARK    3  A    between atoms: C_2  and  C_4
REMARK    4  A    between atoms: C_8  and  C_9
REMARK    5  A    between atoms: C_9  and  C_10
REMARK    6  A    between atoms: C_9  and  C_11
REMARK    7  A    between atoms: C_12  and  N_13
REMARK    8  A    between atoms: N_19  and  C_20
REMARK    9  A    between atoms: C_20  and  C_21
REMARK                            x       y       z     vdW  Elec       q    Type
REMARK                         _______ _______ _______ _____ _____    ______ ____
ROOT
ATOM      1  N   UNL     1       0.489  10.481  18.032  0.00  0.00    +0.000 N 
ATOM      2  C   UNL     1       1.152   9.479  18.740  0.00  0.00    +0.000 C 
ATOM      3  O   UNL     1       0.957   9.209  19.922  0.00  0.00    +0.000 OA
ATOM      4  N   UNL     1       2.051   8.775  17.960  0.00  0.00    +0.000 N 
ATOM      5  C   UNL     1       2.817   7.723  18.380  0.00  0.00    +0.000 C 
ATOM      6  N   UNL     1       3.628   7.124  17.553  0.00  0.00    +0.000 NA
ATOM      7  N   UNL     1       4.239   6.134  18.300  0.00  0.00    +0.000 N 
ATOM      8  N   UNL     1       3.468   5.982  19.527  0.00  0.00    +0.000 NA
ATOM      9  N   UNL     1       2.785   7.196  19.641  0.00  0.00    +0.000 N 
ATOM     10  H   UNL     1       0.902  10.779  17.168  0.00  0.00    +0.000 HD
ATOM     11  H   UNL     1       2.208   9.046  17.002  0.00  0.00    +0.000 HD
ATOM     12  H   UNL     1       4.122   5.868  20.312  0.00  0.00    +0.000 HD
ATOM     13  H   UNL     1       1.895   7.258  20.131  0.00  0.00    +0.000 HD
ENDROOT
BRANCH   1  19
ATOM     14  C   UNL     1      -1.852  11.120  18.419  0.00  0.00    +0.000 A 
ATOM     15  C   UNL     1      -2.795  11.960  19.047  0.00  0.00    +0.000 A 
ATOM     16  C   UNL     1      -2.397  13.037  19.825  0.00  0.00    +0.000 A 
ATOM     17  C   UNL     1      -1.045  13.298  19.979  0.00  0.00    +0.000 A 
ATOM     18  C   UNL     1      -0.045  12.490  19.379  0.00  0.00    +0.000 A 
ATOM     19  C   UNL     1      -0.462  11.352  18.630  0.00  0.00    +0.000 A 
BRANCH  14  21
ATOM     20  C   UNL     1      -3.716   9.466  17.910  0.00  0.00    +0.000 C 
ATOM     21  C   UNL     1      -2.396  10.084  17.435  0.00  0.00    +0.000 C 
ATOM     22  C   UNL     1      -2.572  10.698  16.038  0.00  0.00    +0.000 C 
ENDBRANCH  14  21
BRANCH  18  23
ATOM     23  C   UNL     1       1.381  12.925  19.729  0.00  0.00    +0.000 C 
ATOM     24  C   UNL     1       2.061  13.613  18.542  0.00  0.00    +0.000 C 
ATOM     25  C   UNL     1       1.586  13.717  21.016  0.00  0.00    +0.000 C 
ENDBRANCH  18  23
ENDBRANCH   1  19
BRANCH   7  26
ATOM     26  C   UNL     1       4.496   4.832  17.663  0.00  0.00    +0.000 C 
BRANCH  26  27
ATOM     27  C   UNL     1       3.493   3.749  18.038  0.00  0.00    +0.000 A 
ATOM     28  C   UNL     1       3.908   2.580  18.697  0.00  0.00    +0.000 A 
ATOM     29  C   UNL     1       2.978   1.621  19.107  0.00  0.00    +0.000 A 
ATOM     30  C   UNL     1       1.616   1.812  18.869  0.00  0.00    +0.000 A 
ATOM     31  C   UNL     1       1.189   2.971  18.219  0.00  0.00    +0.000 A 
ATOM     32  C   UNL     1       2.120   3.932  17.807  0.00  0.00    +0.000 A 
ENDBRANCH  26  27
ENDBRANCH   7  26
TORSDOF 5
ENDMDL
MODEL 8
REMARK VINA RESULT:      -7.6      2.157      9.434
REMARK  Name = 
REMARK  9 active torsions:
REMARK  status: ('A' for Active; 'I' for Inactive)
REMARK    1  A    between atoms: C_1  and  C_2
REMARK    2  A    between atoms: C_2  and  C_3
REMARK    3  A    between atoms: C_2  and  C_4
REMARK    4  A    between atoms: C_8  and  C_9
REMARK    5  A    between atoms: C_9  and  C_10
REMARK    6  A    between atoms: C_9  and  C_11
REMARK    7  A    between atoms: C_12  and  N_13
REMARK    8  A    between atoms: N_19  and  C_20
REMARK    9  A    between atoms: C_20  and  C_21
REMARK                            x       y       z     vdW  Elec       q    Type
REMARK                         _______ _______ _______ _____ _____    ______ ____
ROOT
ATOM      1  N   UNL     1       2.936   6.418  19.277  0.00  0.00    +0.000 N 
ATOM      2  C   UNL     1       2.179   7.393  18.630  0.00  0.00    +0.000 C 
ATOM      3  O   UNL     1       1.768   7.309  17.476  0.00  0.00    +0.000 OA
ATOM      4  N   UNL     1       1.896   8.479  19.438  0.00  0.00    +0.000 N 
ATOM      5  C   UNL     1       1.151   9.567  19.078  0.00  0.00    +0.000 C 
ATOM      6  N   UNL     1       0.939  10.533  19.928  0.00  0.00    +0.000 NA
ATOM      7  N   UNL     1       0.172  11.456  19.241  0.00  0.00    +0.000 N 
ATOM      8  N   UNL     1      -0.335  10.792  18.047  0.00  0.00    +0.000 NA
ATOM      9  N   UNL     1       0.550   9.727  17.861  0.00  0.00    +0.000 N 
ATOM     10  H   UNL     1       3.426   6.696  20.107  0.00  0.00    +0.000 HD
ATOM     11  H   UNL     1       2.278   8.527  20.370  0.00  0.00    +0.000 HD
ATOM     12  H   UNL     1      -0.272  11.447  17.257  0.00  0.00    +0.000 HD
ATOM     13  H   UNL     1       0.259   8.874  17.389  0.00  0.00    +0.000 HD
ENDROOT
BRANCH   1  19
ATOM     14  C   UNL     1       4.522   5.256  17.802  0.00  0.00    +0.000 A 
ATOM     15  C   UNL     1       4.975   4.061  17.205  0.00  0.00    +0.000 A 
ATOM     16  C   UNL     1       4.294   2.866  17.376  0.00  0.00    +0.000 A 
ATOM     17  C   UNL     1       3.138   2.848  18.141  0.00  0.00    +0.000 A 
ATOM     18  C   UNL     1       2.631   4.012  18.773  0.00  0.00    +0.000 A 
ATOM     19  C   UNL     1       3.370   5.224  18.640  0.00  0.00    +0.000 A 
BRANCH  14  21
ATOM     20  C   UNL     1       6.738   6.500  17.697  0.00  0.00    +0.000 C 
ATOM     21  C   UNL     1       5.236   6.546  17.396  0.00  0.00    +0.000 C 
ATOM     22  C   UNL     1       5.002   6.853  15.910  0.00  0.00    +0.000 C 
ENDBRANCH  14  21
BRANCH  18  23
ATOM     23  C   UNL     1       1.378   3.752  19.614  0.00  0.00    +0.000 C 
ATOM     24  C   UNL     1       0.549   2.601  19.038  0.00  0.00    +0.000 C 
ATOM     25  C   UNL     1       1.553   3.605  21.122  0.00  0.00    +0.000 C 
ENDBRANCH  18  23
ENDBRANCH   1  19
BRANCH   7  26
ATOM     26  C   UNL     1      -0.905  12.151  19.967  0.00  0.00    +0.000 C 
BRANCH  26  27
ATOM     27  C   UNL     1      -0.922  13.659  19.755  0.00  0.00    +0.000 A 
ATOM     28  C   UNL     1      -1.680  14.495  20.591  0.00  0.00    +0.000 A 
ATOM     29  C   UNL     1      -1.637  15.885  20.443  0.00  0.00    +0.000 A 
ATOM     30  C   UNL     1      -0.835  16.465  19.459  0.00  0.00    +0.000 A 
ATOM     31  C   UNL     1      -0.072  15.646  18.625  0.00  0.00    +0.000 A 
ATOM     32  C   UNL     1      -0.115  14.254  18.771  0.00  0.00    +0.000 A 
ENDBRANCH  26  27
ENDBRANCH   7  26
TORSDOF 5
ENDMDL
MODEL 9
REMARK VINA RESULT:      -7.6      2.171      9.200
REMARK  Name = 
REMARK  9 active torsions:
REMARK  status: ('A' for Active; 'I' for Inactive)
REMARK    1  A    between atoms: C_1  and  C_2
REMARK    2  A    between atoms: C_2  and  C_3
REMARK    3  A    between atoms: C_2  and  C_4
REMARK    4  A    between atoms: C_8  and  C_9
REMARK    5  A    between atoms: C_9  and  C_10
REMARK    6  A    between atoms: C_9  and  C_11
REMARK    7  A    between atoms: C_12  and  N_13
REMARK    8  A    between atoms: N_19  and  C_20
REMARK    9  A    between atoms: C_20  and  C_21
REMARK                            x       y       z     vdW  Elec       q    Type
REMARK                         _______ _______ _______ _____ _____    ______ ____
ROOT
ATOM      1  N   UNL     1       2.935   6.466  19.528  0.00  0.00    +0.000 N 
ATOM      2  C   UNL     1       2.199   7.420  18.827  0.00  0.00    +0.000 C 
ATOM      3  O   UNL     1       1.837   7.306  17.659  0.00  0.00    +0.000 OA
ATOM      4  N   UNL     1       1.877   8.522  19.597  0.00  0.00    +0.000 N 
ATOM      5  C   UNL     1       1.140   9.596  19.181  0.00  0.00    +0.000 C 
ATOM      6  N   UNL     1       0.887  10.581  19.998  0.00  0.00    +0.000 NA
ATOM      7  N   UNL     1       0.143  11.481  19.259  0.00  0.00    +0.000 N 
ATOM      8  N   UNL     1      -0.310  10.786  18.062  0.00  0.00    +0.000 NA
ATOM      9  N   UNL     1       0.589   9.723  17.937  0.00  0.00    +0.000 N 
ATOM     10  H   UNL     1       3.388   6.767  20.371  0.00  0.00    +0.000 HD
ATOM     11  H   UNL     1       2.219   8.595  20.542  0.00  0.00    +0.000 HD
ATOM     12  H   UNL     1      -0.218  11.423  17.259  0.00  0.00    +0.000 HD
ATOM     13  H   UNL     1       0.322   8.858  17.473  0.00  0.00    +0.000 HD
ENDROOT
BRANCH   1  19
ATOM     14  C   UNL     1       2.813   4.020  19.318  0.00  0.00    +0.000 A 
ATOM     15  C   UNL     1       3.249   2.830  18.700  0.00  0.00    +0.000 A 
ATOM     16  C   UNL     1       4.274   2.835  17.766  0.00  0.00    +0.000 A 
ATOM     17  C   UNL     1       4.888   4.034  17.442  0.00  0.00    +0.000 A 
ATOM     18  C   UNL     1       4.495   5.267  18.022  0.00  0.00    +0.000 A 
ATOM     19  C   UNL     1       3.402   5.260  18.938  0.00  0.00    +0.000 A 
BRANCH  14  21
ATOM     20  C   UNL     1       0.484   3.265  20.009  0.00  0.00    +0.000 C 
ATOM     21  C   UNL     1       1.813   3.877  20.466  0.00  0.00    +0.000 C 
ATOM     22  C   UNL     1       2.412   3.048  21.611  0.00  0.00    +0.000 C 
ENDBRANCH  14  21
BRANCH  18  23
ATOM     23  C   UNL     1       5.269   6.472  17.478  0.00  0.00    +0.000 C 
ATOM     24  C   UNL     1       6.753   6.394  17.846  0.00  0.00    +0.000 C 
ATOM     25  C   UNL     1       5.084   6.827  16.006  0.00  0.00    +0.000 C 
ENDBRANCH  18  23
ENDBRANCH   1  19
BRANCH   7  26
ATOM     26  C   UNL     1      -0.967  12.186  19.923  0.00  0.00    +0.000 C 
BRANCH  26  27
ATOM     27  C   UNL     1      -0.952  13.695  19.722  0.00  0.00    +0.000 A 
ATOM     28  C   UNL     1      -1.696  14.541  20.561  0.00  0.00    +0.000 A 
ATOM     29  C   UNL     1      -1.624  15.931  20.422  0.00  0.00    +0.000 A 
ATOM     30  C   UNL     1      -0.806  16.501  19.446  0.00  0.00    +0.000 A 
ATOM     31  C   UNL     1      -0.058  15.672  18.608  0.00  0.00    +0.000 A 
ATOM     32  C   UNL     1      -0.130  14.281  18.745  0.00  0.00    +0.000 A 
ENDBRANCH  26  27
ENDBRANCH   7  26
TORSDOF 5
ENDMDL
