MODEL 1
REMARK VINA RESULT:      -7.0      0.000      0.000
REMARK  Name = 
REMARK  9 active torsions:
REMARK  status: ('A' for Active; 'I' for Inactive)
REMARK    1  A    between atoms: C_1  and  O_2
REMARK    2  A    between atoms: O_2  and  C_3
REMARK    3  A    between atoms: C_3  and  C_5
REMARK    4  A    between atoms: C_5  and  N_6
REMARK    5  A    between atoms: N_6  and  S_17
REMARK    6  A    between atoms: C_9  and  C_10
REMARK    7  A    between atoms: C_13  and  O_14
REMARK    8  A    between atoms: O_14  and  C_15
REMARK    9  A    between atoms: S_17  and  C_20
REMARK                            x       y       z     vdW  Elec       q    Type
REMARK                         _______ _______ _______ _____ _____    ______ ____
ROOT
ATOM      1  N   UNL     1       2.569   5.296  18.972  0.00  0.00    +0.000 N 
ATOM      2  C   UNL     1       2.248   6.612  19.298  0.00  0.00    +0.000 A 
ATOM      3  N   UNL     1       2.245   7.503  18.301  0.00  0.00    +0.000 NA
ATOM      4  C   UNL     1       1.848   8.764  18.620  0.00  0.00    +0.000 A 
ATOM      5  C   UNL     1       1.899   9.768  17.505  0.00  0.00    +0.000 C 
ATOM      6  C   UNL     1       1.427   9.106  19.898  0.00  0.00    +0.000 A 
ATOM      7 BR   UNL     1       0.856  10.854  20.353  0.00  0.00    +0.000 Br
ATOM      8  C   UNL     1       1.437   8.076  20.826  0.00  0.00    +0.000 A 
ATOM      9  N   UNL     1       1.822   6.816  20.543  0.00  0.00    +0.000 NA
ENDROOT
BRANCH   1  10
ATOM     10  S   UNL     1       4.167   4.860  19.021  0.00  0.00    +0.000 S 
ATOM     11  O   UNL     1       4.941   5.840  19.753  0.00  0.00    +0.000 OA
ATOM     12  O   UNL     1       4.215   3.457  19.388  0.00  0.00    +0.000 OA
BRANCH  10  13
ATOM     13  C   UNL     1       4.734   4.938  17.324  0.00  0.00    +0.000 A 
ATOM     14  C   UNL     1       4.885   6.170  16.685  0.00  0.00    +0.000 A 
ATOM     15  C   UNL     1       5.416   6.217  15.393  0.00  0.00    +0.000 A 
ATOM     16  C   UNL     1       5.816   5.043  14.753  0.00  0.00    +0.000 A 
ATOM     17  C   UNL     1       5.676   3.814  15.397  0.00  0.00    +0.000 A 
ATOM     18  C   UNL     1       5.131   3.757  16.681  0.00  0.00    +0.000 A 
ENDBRANCH  10  13
ENDBRANCH   1  10
BRANCH   8  19
ATOM     19  O   UNL     1       1.000   8.366  22.106  0.00  0.00    +0.000 OA
ATOM     20  C   UNL     1      -0.416   8.441  22.235  0.00  0.00    +0.000 C 
ENDBRANCH   8  19
BRANCH   1  21
ATOM     21  C   UNL     1       1.579   4.471  18.291  0.00  0.00    +0.000 C 
BRANCH  21  22
ATOM     22  C   UNL     1       1.007   3.362  19.144  0.00  0.00    +0.000 C 
ATOM     23  O   UNL     1       0.775   2.239  18.705  0.00  0.00    +0.000 OA
BRANCH  22  25
ATOM     24  C   UNL     1       1.452   2.842  21.400  0.00  0.00    +0.000 C 
ATOM     25  O   UNL     1       0.859   3.725  20.446  0.00  0.00    +0.000 OA
ENDBRANCH  22  25
ENDBRANCH  21  22
ENDBRANCH   1  21
TORSDOF 6
ENDMDL
MODEL 2
REMARK VINA RESULT:      -6.6      0.497      1.008
REMARK  Name = 
REMARK  9 active torsions:
REMARK  status: ('A' for Active; 'I' for Inactive)
REMARK    1  A    between atoms: C_1  and  O_2
REMARK    2  A    between atoms: O_2  and  C_3
REMARK    3  A    between atoms: C_3  and  C_5
REMARK    4  A    between atoms: C_5  and  N_6
REMARK    5  A    between atoms: N_6  and  S_17
REMARK    6  A    between atoms: C_9  and  C_10
REMARK    7  A    between atoms: C_13  and  O_14
REMARK    8  A    between atoms: O_14  and  C_15
REMARK    9  A    between atoms: S_17  and  C_20
REMARK                            x       y       z     vdW  Elec       q    Type
REMARK                         _______ _______ _______ _____ _____    ______ ____
ROOT
ATOM      1  N   UNL     1       2.684   5.391  19.015  0.00  0.00    +0.000 N 
ATOM      2  C   UNL     1       2.311   6.694  19.340  0.00  0.00    +0.000 A 
ATOM      3  N   UNL     1       2.283   7.587  18.345  0.00  0.00    +0.000 NA
ATOM      4  C   UNL     1       1.837   8.831  18.663  0.00  0.00    +0.000 A 
ATOM      5  C   UNL     1       1.861   9.838  17.551  0.00  0.00    +0.000 C 
ATOM      6  C   UNL     1       1.394   9.154  19.938  0.00  0.00    +0.000 A 
ATOM      7 BR   UNL     1       0.754  10.879  20.392  0.00  0.00    +0.000 Br
ATOM      8  C   UNL     1       1.434   8.124  20.864  0.00  0.00    +0.000 A 
ATOM      9  N   UNL     1       1.868   6.879  20.582  0.00  0.00    +0.000 NA
ENDROOT
BRANCH   1  10
ATOM     10  S   UNL     1       4.295   5.014  19.076  0.00  0.00    +0.000 S 
ATOM     11  O   UNL     1       5.043   6.073  19.722  0.00  0.00    +0.000 OA
ATOM     12  O   UNL     1       4.397   3.646  19.547  0.00  0.00    +0.000 OA
BRANCH  10  13
ATOM     13  C   UNL     1       4.843   4.982  17.371  0.00  0.00    +0.000 A 
ATOM     14  C   UNL     1       4.890   6.159  16.621  0.00  0.00    +0.000 A 
ATOM     15  C   UNL     1       5.407   6.131  15.323  0.00  0.00    +0.000 A 
ATOM     16  C   UNL     1       5.894   4.939  14.786  0.00  0.00    +0.000 A 
ATOM     17  C   UNL     1       5.857   3.766  15.539  0.00  0.00    +0.000 A 
ATOM     18  C   UNL     1       5.329   3.784  16.831  0.00  0.00    +0.000 A 
ENDBRANCH  10  13
ENDBRANCH   1  10
BRANCH   8  19
ATOM     19  O   UNL     1       0.976   8.394  22.141  0.00  0.00    +0.000 OA
ATOM     20  C   UNL     1      -0.442   8.476  22.246  0.00  0.00    +0.000 C 
ENDBRANCH   8  19
BRANCH   1  21
ATOM     21  C   UNL     1       1.730   4.532  18.324  0.00  0.00    +0.000 C 
BRANCH  21  22
ATOM     22  C   UNL     1       1.129   3.451  19.194  0.00  0.00    +0.000 C 
ATOM     23  O   UNL     1       0.642   3.682  20.297  0.00  0.00    +0.000 OA
BRANCH  22  25
ATOM     24  C   UNL     1       2.267   1.939  17.788  0.00  0.00    +0.000 C 
ATOM     25  O   UNL     1       1.120   2.234  18.588  0.00  0.00    +0.000 OA
ENDBRANCH  22  25
ENDBRANCH  21  22
ENDBRANCH   1  21
TORSDOF 6
ENDMDL
MODEL 3
REMARK VINA RESULT:      -6.4      2.126      4.802
REMARK  Name = 
REMARK  9 active torsions:
REMARK  status: ('A' for Active; 'I' for Inactive)
REMARK    1  A    between atoms: C_1  and  O_2
REMARK    2  A    between atoms: O_2  and  C_3
REMARK    3  A    between atoms: C_3  and  C_5
REMARK    4  A    between atoms: C_5  and  N_6
REMARK    5  A    between atoms: N_6  and  S_17
REMARK    6  A    between atoms: C_9  and  C_10
REMARK    7  A    between atoms: C_13  and  O_14
REMARK    8  A    between atoms: O_14  and  C_15
REMARK    9  A    between atoms: S_17  and  C_20
REMARK                            x       y       z     vdW  Elec       q    Type
REMARK                         _______ _______ _______ _____ _____    ______ ____
ROOT
ATOM      1  N   UNL     1       3.434   6.068  18.446  0.00  0.00    +0.000 N 
ATOM      2  C   UNL     1       2.636   7.143  18.829  0.00  0.00    +0.000 A 
ATOM      3  N   UNL     1       2.234   7.181  20.104  0.00  0.00    +0.000 NA
ATOM      4  C   UNL     1       1.527   8.279  20.481  0.00  0.00    +0.000 A 
ATOM      5  C   UNL     1       1.036   8.285  21.900  0.00  0.00    +0.000 C 
ATOM      6  C   UNL     1       1.267   9.327  19.610  0.00  0.00    +0.000 A 
ATOM      7 BR   UNL     1       0.298  10.871  20.126  0.00  0.00    +0.000 Br
ATOM      8  C   UNL     1       1.779   9.182  18.330  0.00  0.00    +0.000 A 
ATOM      9  N   UNL     1       2.486   8.108  17.923  0.00  0.00    +0.000 NA
ENDROOT
BRANCH   1  10
ATOM     10  S   UNL     1       2.673   4.702  17.899  0.00  0.00    +0.000 S 
ATOM     11  O   UNL     1       1.346   5.016  17.415  0.00  0.00    +0.000 OA
ATOM     12  O   UNL     1       3.619   3.995  17.055  0.00  0.00    +0.000 OA
BRANCH  10  13
ATOM     13  C   UNL     1       2.448   3.670  19.345  0.00  0.00    +0.000 A 
ATOM     14  C   UNL     1       3.525   2.965  19.886  0.00  0.00    +0.000 A 
ATOM     15  C   UNL     1       3.352   2.239  21.068  0.00  0.00    +0.000 A 
ATOM     16  C   UNL     1       2.116   2.237  21.718  0.00  0.00    +0.000 A 
ATOM     17  C   UNL     1       1.044   2.951  21.183  0.00  0.00    +0.000 A 
ATOM     18  C   UNL     1       1.206   3.665  19.995  0.00  0.00    +0.000 A 
ENDBRANCH  10  13
ENDBRANCH   1  10
BRANCH   8  19
ATOM     19  O   UNL     1       1.568  10.215  17.436  0.00  0.00    +0.000 OA
ATOM     20  C   UNL     1       2.419  11.340  17.632  0.00  0.00    +0.000 C 
ENDBRANCH   8  19
BRANCH   1  21
ATOM     21  C   UNL     1       4.836   6.045  18.846  0.00  0.00    +0.000 C 
BRANCH  21  22
ATOM     22  C   UNL     1       5.805   6.326  17.720  0.00  0.00    +0.000 C 
ATOM     23  O   UNL     1       5.459   6.841  16.660  0.00  0.00    +0.000 OA
BRANCH  22  25
ATOM     24  C   UNL     1       7.508   4.697  17.710  0.00  0.00    +0.000 C 
ATOM     25  O   UNL     1       7.089   6.021  18.045  0.00  0.00    +0.000 OA
ENDBRANCH  22  25
ENDBRANCH  21  22
ENDBRANCH   1  21
TORSDOF 6
ENDMDL
MODEL 4
REMARK VINA RESULT:      -6.3      0.706      1.480
REMARK  Name = 
REMARK  9 active torsions:
REMARK  status: ('A' for Active; 'I' for Inactive)
REMARK    1  A    between atoms: C_1  and  O_2
REMARK    2  A    between atoms: O_2  and  C_3
REMARK    3  A    between atoms: C_3  and  C_5
REMARK    4  A    between atoms: C_5  and  N_6
REMARK    5  A    between atoms: N_6  and  S_17
REMARK    6  A    between atoms: C_9  and  C_10
REMARK    7  A    between atoms: C_13  and  O_14
REMARK    8  A    between atoms: O_14  and  C_15
REMARK    9  A    between atoms: S_17  and  C_20
REMARK                            x       y       z     vdW  Elec       q    Type
REMARK                         _______ _______ _______ _____ _____    ______ ____
ROOT
ATOM      1  N   UNL     1       2.748   5.365  18.976  0.00  0.00    +0.000 N 
ATOM      2  C   UNL     1       2.334   6.657  19.294  0.00  0.00    +0.000 A 
ATOM      3  N   UNL     1       2.328   7.557  18.305  0.00  0.00    +0.000 NA
ATOM      4  C   UNL     1       1.842   8.789  18.614  0.00  0.00    +0.000 A 
ATOM      5  C   UNL     1       1.890   9.805  17.510  0.00  0.00    +0.000 C 
ATOM      6  C   UNL     1       1.338   9.091  19.870  0.00  0.00    +0.000 A 
ATOM      7 BR   UNL     1       0.641  10.798  20.309  0.00  0.00    +0.000 Br
ATOM      8  C   UNL     1       1.360   8.054  20.790  0.00  0.00    +0.000 A 
ATOM      9  N   UNL     1       1.833   6.822  20.518  0.00  0.00    +0.000 NA
ENDROOT
BRANCH   1  10
ATOM     10  S   UNL     1       4.364   5.023  19.104  0.00  0.00    +0.000 S 
ATOM     11  O   UNL     1       5.062   6.098  19.777  0.00  0.00    +0.000 OA
ATOM     12  O   UNL     1       4.475   3.658  19.582  0.00  0.00    +0.000 OA
BRANCH  10  13
ATOM     13  C   UNL     1       4.981   5.000  17.423  0.00  0.00    +0.000 A 
ATOM     14  C   UNL     1       5.374   3.799  16.830  0.00  0.00    +0.000 A 
ATOM     15  C   UNL     1       5.766   3.786  15.488  0.00  0.00    +0.000 A 
ATOM     16  C   UNL     1       5.741   4.962  14.737  0.00  0.00    +0.000 A 
ATOM     17  C   UNL     1       5.337   6.159  15.326  0.00  0.00    +0.000 A 
ATOM     18  C   UNL     1       4.960   6.182  16.670  0.00  0.00    +0.000 A 
ENDBRANCH  10  13
ENDBRANCH   1  10
BRANCH   8  19
ATOM     19  O   UNL     1       0.842   8.304  22.048  0.00  0.00    +0.000 OA
ATOM     20  C   UNL     1       1.663   9.136  22.862  0.00  0.00    +0.000 C 
ENDBRANCH   8  19
BRANCH   1  21
ATOM     21  C   UNL     1       1.845   4.491  18.239  0.00  0.00    +0.000 C 
BRANCH  21  22
ATOM     22  C   UNL     1       1.207   3.410  19.081  0.00  0.00    +0.000 C 
ATOM     23  O   UNL     1       0.676   3.639  20.165  0.00  0.00    +0.000 OA
BRANCH  22  25
ATOM     24  C   UNL     1       2.428   1.863  17.787  0.00  0.00    +0.000 C 
ATOM     25  O   UNL     1       1.218   2.195  18.472  0.00  0.00    +0.000 OA
ENDBRANCH  22  25
ENDBRANCH  21  22
ENDBRANCH   1  21
TORSDOF 6
ENDMDL
MODEL 5
REMARK VINA RESULT:      -6.3      3.040      5.175
REMARK  Name = 
REMARK  9 active torsions:
REMARK  status: ('A' for Active; 'I' for Inactive)
REMARK    1  A    between atoms: C_1  and  O_2
REMARK    2  A    between atoms: O_2  and  C_3
REMARK    3  A    between atoms: C_3  and  C_5
REMARK    4  A    between atoms: C_5  and  N_6
REMARK    5  A    between atoms: N_6  and  S_17
REMARK    6  A    between atoms: C_9  and  C_10
REMARK    7  A    between atoms: C_13  and  O_14
REMARK    8  A    between atoms: O_14  and  C_15
REMARK    9  A    between atoms: S_17  and  C_20
REMARK                            x       y       z     vdW  Elec       q    Type
REMARK                         _______ _______ _______ _____ _____    ______ ____
ROOT
ATOM      1  N   UNL     1       5.783   5.423  17.708  0.00  0.00    +0.000 N 
ATOM      2  C   UNL     1       4.625   4.883  18.263  0.00  0.00    +0.000 A 
ATOM      3  N   UNL     1       4.235   3.686  17.814  0.00  0.00    +0.000 NA
ATOM      4  C   UNL     1       3.151   3.136  18.425  0.00  0.00    +0.000 A 
ATOM      5  C   UNL     1       2.691   1.817  17.877  0.00  0.00    +0.000 C 
ATOM      6  C   UNL     1       2.505   3.757  19.484  0.00  0.00    +0.000 A 
ATOM      7 BR   UNL     1       1.004   2.996  20.355  0.00  0.00    +0.000 Br
ATOM      8  C   UNL     1       3.039   4.974  19.880  0.00  0.00    +0.000 A 
ATOM      9  N   UNL     1       4.112   5.546  19.299  0.00  0.00    +0.000 NA
ENDROOT
BRANCH   1  10
ATOM     10  S   UNL     1       5.623   6.355  16.348  0.00  0.00    +0.000 S 
ATOM     11  O   UNL     1       4.250   6.786  16.184  0.00  0.00    +0.000 OA
ATOM     12  O   UNL     1       6.703   7.324  16.363  0.00  0.00    +0.000 OA
BRANCH  10  13
ATOM     13  C   UNL     1       5.972   5.259  14.976  0.00  0.00    +0.000 A 
ATOM     14  C   UNL     1       4.980   4.413  14.476  0.00  0.00    +0.000 A 
ATOM     15  C   UNL     1       5.242   3.633  13.347  0.00  0.00    +0.000 A 
ATOM     16  C   UNL     1       6.480   3.714  12.707  0.00  0.00    +0.000 A 
ATOM     17  C   UNL     1       7.466   4.568  13.199  0.00  0.00    +0.000 A 
ATOM     18  C   UNL     1       7.217   5.339  14.336  0.00  0.00    +0.000 A 
ENDBRANCH  10  13
ENDBRANCH   1  10
BRANCH   8  19
ATOM     19  O   UNL     1       2.442   5.615  20.950  0.00  0.00    +0.000 OA
ATOM     20  C   UNL     1       1.742   6.805  20.600  0.00  0.00    +0.000 C 
ENDBRANCH   8  19
BRANCH   1  21
ATOM     21  C   UNL     1       7.079   4.894  18.115  0.00  0.00    +0.000 C 
BRANCH  21  22
ATOM     22  C   UNL     1       7.714   5.632  19.271  0.00  0.00    +0.000 C 
ATOM     23  O   UNL     1       7.417   5.411  20.442  0.00  0.00    +0.000 OA
BRANCH  22  25
ATOM     24  C   UNL     1       8.281   7.855  18.729  0.00  0.00    +0.000 C 
ATOM     25  O   UNL     1       8.688   6.493  18.873  0.00  0.00    +0.000 OA
ENDBRANCH  22  25
ENDBRANCH  21  22
ENDBRANCH   1  21
TORSDOF 6
ENDMDL
MODEL 6
REMARK VINA RESULT:      -6.2      3.531      5.759
REMARK  Name = 
REMARK  9 active torsions:
REMARK  status: ('A' for Active; 'I' for Inactive)
REMARK    1  A    between atoms: C_1  and  O_2
REMARK    2  A    between atoms: O_2  and  C_3
REMARK    3  A    between atoms: C_3  and  C_5
REMARK    4  A    between atoms: C_5  and  N_6
REMARK    5  A    between atoms: N_6  and  S_17
REMARK    6  A    between atoms: C_9  and  C_10
REMARK    7  A    between atoms: C_13  and  O_14
REMARK    8  A    between atoms: O_14  and  C_15
REMARK    9  A    between atoms: S_17  and  C_20
REMARK                            x       y       z     vdW  Elec       q    Type
REMARK                         _______ _______ _______ _____ _____    ______ ____
ROOT
ATOM      1  N   UNL     1       5.868   5.167  17.492  0.00  0.00    +0.000 N 
ATOM      2  C   UNL     1       4.717   4.875  18.221  0.00  0.00    +0.000 A 
ATOM      3  N   UNL     1       4.026   5.909  18.710  0.00  0.00    +0.000 NA
ATOM      4  C   UNL     1       2.862   5.610  19.347  0.00  0.00    +0.000 A 
ATOM      5  C   UNL     1       2.122   6.775  19.937  0.00  0.00    +0.000 C 
ATOM      6  C   UNL     1       2.389   4.310  19.451  0.00  0.00    +0.000 A 
ATOM      7 BR   UNL     1       0.761   3.880  20.320  0.00  0.00    +0.000 Br
ATOM      8  C   UNL     1       3.181   3.336  18.861  0.00  0.00    +0.000 A 
ATOM      9  N   UNL     1       4.338   3.597  18.221  0.00  0.00    +0.000 NA
ENDROOT
BRANCH   1  10
ATOM     10  S   UNL     1       7.294   5.298  18.325  0.00  0.00    +0.000 S 
ATOM     11  O   UNL     1       7.088   5.033  19.734  0.00  0.00    +0.000 OA
ATOM     12  O   UNL     1       8.297   4.566  17.575  0.00  0.00    +0.000 OA
BRANCH  10  13
ATOM     13  C   UNL     1       7.760   7.023  18.203  0.00  0.00    +0.000 A 
ATOM     14  C   UNL     1       7.135   7.861  17.277  0.00  0.00    +0.000 A 
ATOM     15  C   UNL     1       7.445   9.224  17.259  0.00  0.00    +0.000 A 
ATOM     16  C   UNL     1       8.357   9.750  18.176  0.00  0.00    +0.000 A 
ATOM     17  C   UNL     1       8.972   8.915  19.108  0.00  0.00    +0.000 A 
ATOM     18  C   UNL     1       8.678   7.550  19.122  0.00  0.00    +0.000 A 
ENDBRANCH  10  13
ENDBRANCH   1  10
BRANCH   8  19
ATOM     19  O   UNL     1       2.734   2.029  18.918  0.00  0.00    +0.000 OA
ATOM     20  C   UNL     1       3.724   1.059  18.593  0.00  0.00    +0.000 C 
ENDBRANCH   8  19
BRANCH   1  21
ATOM     21  C   UNL     1       5.737   5.671  16.131  0.00  0.00    +0.000 C 
BRANCH  21  22
ATOM     22  C   UNL     1       6.423   4.819  15.087  0.00  0.00    +0.000 C 
ATOM     23  O   UNL     1       6.027   3.698  14.781  0.00  0.00    +0.000 OA
BRANCH  22  25
ATOM     24  C   UNL     1       7.710   5.081  13.130  0.00  0.00    +0.000 C 
ATOM     25  O   UNL     1       7.459   5.461  14.485  0.00  0.00    +0.000 OA
ENDBRANCH  22  25
ENDBRANCH  21  22
ENDBRANCH   1  21
TORSDOF 6
ENDMDL
MODEL 7
REMARK VINA RESULT:      -6.2      3.328      6.307
REMARK  Name = 
REMARK  9 active torsions:
REMARK  status: ('A' for Active; 'I' for Inactive)
REMARK    1  A    between atoms: C_1  and  O_2
REMARK    2  A    between atoms: O_2  and  C_3
REMARK    3  A    between atoms: C_3  and  C_5
REMARK    4  A    between atoms: C_5  and  N_6
REMARK    5  A    between atoms: N_6  and  S_17
REMARK    6  A    between atoms: C_9  and  C_10
REMARK    7  A    between atoms: C_13  and  O_14
REMARK    8  A    between atoms: O_14  and  C_15
REMARK    9  A    between atoms: S_17  and  C_20
REMARK                            x       y       z     vdW  Elec       q    Type
REMARK                         _______ _______ _______ _____ _____    ______ ____
ROOT
ATOM      1  N   UNL     1       4.090   4.176  17.624  0.00  0.00    +0.000 N 
ATOM      2  C   UNL     1       5.030   4.442  16.630  0.00  0.00    +0.000 A 
ATOM      3  N   UNL     1       4.786   3.946  15.412  0.00  0.00    +0.000 NA
ATOM      4  C   UNL     1       5.670   4.285  14.436  0.00  0.00    +0.000 A 
ATOM      5  C   UNL     1       5.415   3.680  13.086  0.00  0.00    +0.000 C 
ATOM      6  C   UNL     1       6.744   5.131  14.671  0.00  0.00    +0.000 A 
ATOM      7 BR   UNL     1       7.974   5.625  13.316  0.00  0.00    +0.000 Br
ATOM      8  C   UNL     1       6.856   5.610  15.968  0.00  0.00    +0.000 A 
ATOM      9  N   UNL     1       5.997   5.297  16.959  0.00  0.00    +0.000 NA
ENDROOT
BRANCH   1  10
ATOM     10  S   UNL     1       4.280   2.791  18.513  0.00  0.00    +0.000 S 
ATOM     11  O   UNL     1       4.109   1.622  17.677  0.00  0.00    +0.000 OA
ATOM     12  O   UNL     1       5.479   2.958  19.313  0.00  0.00    +0.000 OA
BRANCH  10  13
ATOM     13  C   UNL     1       2.918   2.780  19.675  0.00  0.00    +0.000 A 
ATOM     14  C   UNL     1       3.156   2.907  21.045  0.00  0.00    +0.000 A 
ATOM     15  C   UNL     1       2.076   2.988  21.929  0.00  0.00    +0.000 A 
ATOM     16  C   UNL     1       0.767   2.967  21.445  0.00  0.00    +0.000 A 
ATOM     17  C   UNL     1       0.530   2.853  20.076  0.00  0.00    +0.000 A 
ATOM     18  C   UNL     1       1.603   2.755  19.188  0.00  0.00    +0.000 A 
ENDBRANCH  10  13
ENDBRANCH   1  10
BRANCH   8  19
ATOM     19  O   UNL     1       7.897   6.478  16.240  0.00  0.00    +0.000 OA
ATOM     20  C   UNL     1       7.663   7.339  17.350  0.00  0.00    +0.000 C 
ENDBRANCH   8  19
BRANCH   1  21
ATOM     21  C   UNL     1       2.829   4.908  17.622  0.00  0.00    +0.000 C 
BRANCH  21  22
ATOM     22  C   UNL     1       2.904   6.270  18.274  0.00  0.00    +0.000 C 
ATOM     23  O   UNL     1       2.763   7.315  17.644  0.00  0.00    +0.000 OA
BRANCH  22  25
ATOM     24  C   UNL     1       1.869   6.378  20.389  0.00  0.00    +0.000 C 
ATOM     25  O   UNL     1       3.061   6.199  19.622  0.00  0.00    +0.000 OA
ENDBRANCH  22  25
ENDBRANCH  21  22
ENDBRANCH   1  21
TORSDOF 6
ENDMDL
MODEL 8
REMARK VINA RESULT:      -6.2      3.269      6.417
REMARK  Name = 
REMARK  9 active torsions:
REMARK  status: ('A' for Active; 'I' for Inactive)
REMARK    1  A    between atoms: C_1  and  O_2
REMARK    2  A    between atoms: O_2  and  C_3
REMARK    3  A    between atoms: C_3  and  C_5
REMARK    4  A    between atoms: C_5  and  N_6
REMARK    5  A    between atoms: N_6  and  S_17
REMARK    6  A    between atoms: C_9  and  C_10
REMARK    7  A    between atoms: C_13  and  O_14
REMARK    8  A    between atoms: O_14  and  C_15
REMARK    9  A    between atoms: S_17  and  C_20
REMARK                            x       y       z     vdW  Elec       q    Type
REMARK                         _______ _______ _______ _____ _____    ______ ____
ROOT
ATOM      1  N   UNL     1       4.074   4.238  17.580  0.00  0.00    +0.000 N 
ATOM      2  C   UNL     1       5.039   4.487  16.606  0.00  0.00    +0.000 A 
ATOM      3  N   UNL     1       4.844   3.942  15.400  0.00  0.00    +0.000 NA
ATOM      4  C   UNL     1       5.750   4.264  14.439  0.00  0.00    +0.000 A 
ATOM      5  C   UNL     1       5.550   3.605  13.106  0.00  0.00    +0.000 C 
ATOM      6  C   UNL     1       6.798   5.142  14.675  0.00  0.00    +0.000 A 
ATOM      7 BR   UNL     1       8.059   5.612  13.341  0.00  0.00    +0.000 Br
ATOM      8  C   UNL     1       6.860   5.670  15.955  0.00  0.00    +0.000 A 
ATOM      9  N   UNL     1       5.978   5.375  16.931  0.00  0.00    +0.000 NA
ENDROOT
BRANCH   1  10
ATOM     10  S   UNL     1       4.266   2.891  18.525  0.00  0.00    +0.000 S 
ATOM     11  O   UNL     1       4.072   1.688  17.743  0.00  0.00    +0.000 OA
ATOM     12  O   UNL     1       5.477   3.082  19.300  0.00  0.00    +0.000 OA
BRANCH  10  13
ATOM     13  C   UNL     1       2.920   2.943  19.706  0.00  0.00    +0.000 A 
ATOM     14  C   UNL     1       1.598   2.801  19.279  0.00  0.00    +0.000 A 
ATOM     15  C   UNL     1       0.569   2.752  20.224  0.00  0.00    +0.000 A 
ATOM     16  C   UNL     1       0.861   2.820  21.587  0.00  0.00    +0.000 A 
ATOM     17  C   UNL     1       2.183   2.949  22.013  0.00  0.00    +0.000 A 
ATOM     18  C   UNL     1       3.214   3.015  21.075  0.00  0.00    +0.000 A 
ENDBRANCH  10  13
ENDBRANCH   1  10
BRANCH   8  19
ATOM     19  O   UNL     1       7.874   6.571  16.227  0.00  0.00    +0.000 OA
ATOM     20  C   UNL     1       7.696   7.302  17.436  0.00  0.00    +0.000 C 
ENDBRANCH   8  19
BRANCH   1  21
ATOM     21  C   UNL     1       2.799   4.942  17.513  0.00  0.00    +0.000 C 
BRANCH  21  22
ATOM     22  C   UNL     1       2.759   6.225  18.310  0.00  0.00    +0.000 C 
ATOM     23  O   UNL     1       3.229   6.319  19.440  0.00  0.00    +0.000 OA
BRANCH  22  25
ATOM     24  C   UNL     1       2.060   8.476  18.343  0.00  0.00    +0.000 C 
ATOM     25  O   UNL     1       2.226   7.261  17.609  0.00  0.00    +0.000 OA
ENDBRANCH  22  25
ENDBRANCH  21  22
ENDBRANCH   1  21
TORSDOF 6
ENDMDL
MODEL 9
REMARK VINA RESULT:      -6.0      3.142      5.134
REMARK  Name = 
REMARK  9 active torsions:
REMARK  status: ('A' for Active; 'I' for Inactive)
REMARK    1  A    between atoms: C_1  and  O_2
REMARK    2  A    between atoms: O_2  and  C_3
REMARK    3  A    between atoms: C_3  and  C_5
REMARK    4  A    between atoms: C_5  and  N_6
REMARK    5  A    between atoms: N_6  and  S_17
REMARK    6  A    between atoms: C_9  and  C_10
REMARK    7  A    between atoms: C_13  and  O_14
REMARK    8  A    between atoms: O_14  and  C_15
REMARK    9  A    between atoms: S_17  and  C_20
REMARK                            x       y       z     vdW  Elec       q    Type
REMARK                         _______ _______ _______ _____ _____    ______ ____
ROOT
ATOM      1  N   UNL     1       5.834   5.481  17.746  0.00  0.00    +0.000 N 
ATOM      2  C   UNL     1       4.680   4.917  18.287  0.00  0.00    +0.000 A 
ATOM      3  N   UNL     1       4.319   3.713  17.832  0.00  0.00    +0.000 NA
ATOM      4  C   UNL     1       3.240   3.141  18.430  0.00  0.00    +0.000 A 
ATOM      5  C   UNL     1       2.813   1.813  17.875  0.00  0.00    +0.000 C 
ATOM      6  C   UNL     1       2.570   3.748  19.482  0.00  0.00    +0.000 A 
ATOM      7 BR   UNL     1       1.075   2.955  20.336  0.00  0.00    +0.000 Br
ATOM      8  C   UNL     1       3.075   4.974  19.885  0.00  0.00    +0.000 A 
ATOM      9  N   UNL     1       4.143   5.569  19.317  0.00  0.00    +0.000 NA
ENDROOT
BRANCH   1  10
ATOM     10  S   UNL     1       5.670   6.411  16.385  0.00  0.00    +0.000 S 
ATOM     11  O   UNL     1       4.296   6.838  16.221  0.00  0.00    +0.000 OA
ATOM     12  O   UNL     1       6.748   7.383  16.399  0.00  0.00    +0.000 OA
BRANCH  10  13
ATOM     13  C   UNL     1       6.022   5.315  15.013  0.00  0.00    +0.000 A 
ATOM     14  C   UNL     1       5.035   4.460  14.520  0.00  0.00    +0.000 A 
ATOM     15  C   UNL     1       5.298   3.679  13.391  0.00  0.00    +0.000 A 
ATOM     16  C   UNL     1       6.533   3.769  12.746  0.00  0.00    +0.000 A 
ATOM     17  C   UNL     1       7.514   4.632  13.232  0.00  0.00    +0.000 A 
ATOM     18  C   UNL     1       7.263   5.404  14.368  0.00  0.00    +0.000 A 
ENDBRANCH  10  13
ENDBRANCH   1  10
BRANCH   8  19
ATOM     19  O   UNL     1       2.453   5.602  20.949  0.00  0.00    +0.000 OA
ATOM     20  C   UNL     1       1.786   6.812  20.604  0.00  0.00    +0.000 C 
ENDBRANCH   8  19
BRANCH   1  21
ATOM     21  C   UNL     1       7.135   4.977  18.167  0.00  0.00    +0.000 C 
BRANCH  21  22
ATOM     22  C   UNL     1       7.845   5.858  19.170  0.00  0.00    +0.000 C 
ATOM     23  O   UNL     1       8.321   6.950  18.873  0.00  0.00    +0.000 OA
BRANCH  22  25
ATOM     24  C   UNL     1       9.032   4.720  20.858  0.00  0.00    +0.000 C 
ATOM     25  O   UNL     1       7.821   5.344  20.428  0.00  0.00    +0.000 OA
ENDBRANCH  22  25
ENDBRANCH  21  22
ENDBRANCH   1  21
TORSDOF 6
ENDMDL
