MODEL 1
REMARK VINA RESULT:      -8.4      0.000      0.000
REMARK  Name = 
REMARK  6 active torsions:
REMARK  status: ('A' for Active; 'I' for Inactive)
REMARK    1  A    between atoms: C_2  and  C_12
REMARK    2  A    between atoms: N_3  and  C_4
REMARK    3  A    between atoms: C_4  and  C_5
REMARK    4  A    between atoms: C_10  and  O_11
REMARK    5  A    between atoms: C_14  and  C_15
REMARK    6  A    between atoms: C_15  and  C_17
REMARK                            x       y       z     vdW  Elec       q    Type
REMARK                         _______ _______ _______ _____ _____    ______ ____
ROOT
ATOM      1  C   UNL     1       2.722   7.411  18.627  0.00  0.00    +0.000 A 
ATOM      2  C   UNL     1       3.659   6.724  17.872  0.00  0.00    +0.000 A 
ATOM      3  C   UNL     1       4.125   5.600  18.618  0.00  0.00    +0.000 A 
ATOM      4  C   UNL     1       3.393   5.601  19.791  0.00  0.00    +0.000 A 
ATOM      5  N   UNL     1       2.572   6.697  19.796  0.00  0.00    +0.000 N 
ATOM      6  H   UNL     1       1.944   6.969  20.544  0.00  0.00    +0.000 HD
ENDROOT
BRANCH   1   8
ATOM      7  O   UNL     1       2.088   9.242  17.308  0.00  0.00    +0.000 OA
ATOM      8  C   UNL     1       1.990   8.635  18.370  0.00  0.00    +0.000 C 
ATOM      9  N   UNL     1       1.189   9.048  19.401  0.00  0.00    +0.000 N 
ATOM     10  H   UNL     1       1.316   8.644  20.317  0.00  0.00    +0.000 HD
BRANCH   9  11
ATOM     11  C   UNL     1       0.487  10.306  19.384  0.00  0.00    +0.000 C 
BRANCH  11  12
ATOM     12  C   UNL     1      -0.152  10.607  20.717  0.00  0.00    +0.000 A 
ATOM     13  C   UNL     1       0.048   9.728  21.793  0.00  0.00    +0.000 A 
ATOM     14  C   UNL     1      -0.562   9.957  23.028  0.00  0.00    +0.000 A 
ATOM     15  C   UNL     1      -1.381  11.070  23.208  0.00  0.00    +0.000 A 
ATOM     16  C   UNL     1      -1.586  11.960  22.153  0.00  0.00    +0.000 A 
ATOM     17  C   UNL     1      -0.972  11.725  20.921  0.00  0.00    +0.000 A 
BRANCH  17  18
ATOM     18  O   UNL     1      -1.156  12.610  19.893  0.00  0.00    +0.000 OA
ATOM     19  H   UNL     1      -0.325  13.096  19.755  0.00  0.00    +0.000 HD
ENDBRANCH  17  18
ENDBRANCH  11  12
ENDBRANCH   9  11
ENDBRANCH   1   8
BRANCH   3  20
ATOM     20  C   UNL     1       5.150   4.613  18.272  0.00  0.00    +0.000 C 
ATOM     21  O   UNL     1       5.594   3.822  19.097  0.00  0.00    +0.000 OA
BRANCH  20  22
ATOM     22  C   UNL     1       5.698   4.617  16.889  0.00  0.00    +0.000 A 
ATOM     23  C   UNL     1       4.931   4.161  15.802  0.00  0.00    +0.000 A 
ATOM     24  C   UNL     1       5.465   4.170  14.513  0.00  0.00    +0.000 A 
ATOM     25  C   UNL     1       6.748   4.666  14.305  0.00  0.00    +0.000 A 
ATOM     26  F   UNL     1       7.254   4.676  13.066  0.00  0.00    +0.000 F 
ATOM     27  C   UNL     1       7.507   5.149  15.362  0.00  0.00    +0.000 A 
ATOM     28  C   UNL     1       6.979   5.122  16.652  0.00  0.00    +0.000 A 
ATOM     29  F   UNL     1       7.748   5.565  17.655  0.00  0.00    +0.000 F 
ENDBRANCH  20  22
ENDBRANCH   3  20
TORSDOF 6
ENDMDL
MODEL 2
REMARK VINA RESULT:      -8.4      3.878      9.119
REMARK  Name = 
REMARK  6 active torsions:
REMARK  status: ('A' for Active; 'I' for Inactive)
REMARK    1  A    between atoms: C_2  and  C_12
REMARK    2  A    between atoms: N_3  and  C_4
REMARK    3  A    between atoms: C_4  and  C_5
REMARK    4  A    between atoms: C_10  and  O_11
REMARK    5  A    between atoms: C_14  and  C_15
REMARK    6  A    between atoms: C_15  and  C_17
REMARK                            x       y       z     vdW  Elec       q    Type
REMARK                         _______ _______ _______ _____ _____    ______ ____
ROOT
ATOM      1  C   UNL     1       2.348   7.128  19.313  0.00  0.00    +0.000 A 
ATOM      2  C   UNL     1       2.129   8.194  18.456  0.00  0.00    +0.000 A 
ATOM      3  C   UNL     1       1.406   9.210  19.152  0.00  0.00    +0.000 A 
ATOM      4  C   UNL     1       1.270   8.750  20.449  0.00  0.00    +0.000 A 
ATOM      5  N   UNL     1       1.817   7.497  20.531  0.00  0.00    +0.000 N 
ATOM      6  H   UNL     1       1.834   6.906  21.354  0.00  0.00    +0.000 HD
ENDROOT
BRANCH   1   8
ATOM      7  O   UNL     1       3.584   5.257  19.994  0.00  0.00    +0.000 OA
ATOM      8  C   UNL     1       2.974   5.838  19.103  0.00  0.00    +0.000 C 
ATOM      9  N   UNL     1       2.824   5.331  17.839  0.00  0.00    +0.000 N 
ATOM     10  H   UNL     1       2.514   5.939  17.097  0.00  0.00    +0.000 HD
BRANCH   9  11
ATOM     11  C   UNL     1       3.482   4.126  17.404  0.00  0.00    +0.000 C 
BRANCH  11  12
ATOM     12  C   UNL     1       4.832   4.416  16.793  0.00  0.00    +0.000 A 
ATOM     13  C   UNL     1       4.913   4.787  15.442  0.00  0.00    +0.000 A 
ATOM     14  C   UNL     1       6.149   5.023  14.837  0.00  0.00    +0.000 A 
ATOM     15  C   UNL     1       7.325   4.894  15.574  0.00  0.00    +0.000 A 
ATOM     16  C   UNL     1       7.264   4.534  16.920  0.00  0.00    +0.000 A 
ATOM     17  C   UNL     1       6.025   4.300  17.519  0.00  0.00    +0.000 A 
BRANCH  17  18
ATOM     18  O   UNL     1       5.965   3.967  18.846  0.00  0.00    +0.000 OA
ATOM     19  H   UNL     1       6.190   3.025  18.935  0.00  0.00    +0.000 HD
ENDBRANCH  17  18
ENDBRANCH  11  12
ENDBRANCH   9  11
ENDBRANCH   1   8
BRANCH   3  20
ATOM     20  C   UNL     1       0.895  10.491  18.660  0.00  0.00    +0.000 C 
ATOM     21  O   UNL     1       1.625  11.465  18.506  0.00  0.00    +0.000 OA
BRANCH  20  22
ATOM     22  C   UNL     1      -0.563  10.617  18.394  0.00  0.00    +0.000 A 
ATOM     23  C   UNL     1      -1.200   9.803  17.441  0.00  0.00    +0.000 A 
ATOM     24  C   UNL     1      -2.569   9.939  17.205  0.00  0.00    +0.000 A 
ATOM     25  C   UNL     1      -3.304  10.860  17.943  0.00  0.00    +0.000 A 
ATOM     26  F   UNL     1      -4.618  10.984  17.715  0.00  0.00    +0.000 F 
ATOM     27  C   UNL     1      -2.698  11.648  18.910  0.00  0.00    +0.000 A 
ATOM     28  C   UNL     1      -1.327  11.525  19.131  0.00  0.00    +0.000 A 
ATOM     29  F   UNL     1      -0.765  12.323  20.049  0.00  0.00    +0.000 F 
ENDBRANCH  20  22
ENDBRANCH   3  20
TORSDOF 6
ENDMDL
MODEL 3
REMARK VINA RESULT:      -8.3      5.827      6.925
REMARK  Name = 
REMARK  6 active torsions:
REMARK  status: ('A' for Active; 'I' for Inactive)
REMARK    1  A    between atoms: C_2  and  C_12
REMARK    2  A    between atoms: N_3  and  C_4
REMARK    3  A    between atoms: C_4  and  C_5
REMARK    4  A    between atoms: C_10  and  O_11
REMARK    5  A    between atoms: C_14  and  C_15
REMARK    6  A    between atoms: C_15  and  C_17
REMARK                            x       y       z     vdW  Elec       q    Type
REMARK                         _______ _______ _______ _____ _____    ______ ____
ROOT
ATOM      1  C   UNL     1       8.345   8.725  18.380  0.00  0.00    +0.000 A 
ATOM      2  C   UNL     1       7.479   8.355  17.364  0.00  0.00    +0.000 A 
ATOM      3  C   UNL     1       7.246   6.949  17.441  0.00  0.00    +0.000 A 
ATOM      4  C   UNL     1       7.933   6.517  18.561  0.00  0.00    +0.000 A 
ATOM      5  N   UNL     1       8.603   7.581  19.103  0.00  0.00    +0.000 N 
ATOM      6  H   UNL     1       9.211   7.553  19.913  0.00  0.00    +0.000 HD
ENDROOT
BRANCH   1   8
ATOM      7  O   UNL     1       9.049  10.908  17.896  0.00  0.00    +0.000 OA
ATOM      8  C   UNL     1       8.942  10.003  18.716  0.00  0.00    +0.000 C 
ATOM      9  N   UNL     1       9.369  10.109  20.014  0.00  0.00    +0.000 N 
ATOM     10  H   UNL     1       9.460   9.274  20.573  0.00  0.00    +0.000 HD
BRANCH   9  11
ATOM     11  C   UNL     1      10.102  11.250  20.499  0.00  0.00    +0.000 C 
BRANCH  11  12
ATOM     12  C   UNL     1       9.188  12.275  21.125  0.00  0.00    +0.000 A 
ATOM     13  C   UNL     1       9.018  13.520  20.500  0.00  0.00    +0.000 A 
ATOM     14  C   UNL     1       8.211  14.505  21.075  0.00  0.00    +0.000 A 
ATOM     15  C   UNL     1       7.561  14.260  22.283  0.00  0.00    +0.000 A 
ATOM     16  C   UNL     1       7.712  13.026  22.915  0.00  0.00    +0.000 A 
ATOM     17  C   UNL     1       8.519  12.046  22.335  0.00  0.00    +0.000 A 
BRANCH  17  18
ATOM     18  O   UNL     1       8.650  10.827  22.945  0.00  0.00    +0.000 OA
ATOM     19  H   UNL     1       9.302  10.912  23.663  0.00  0.00    +0.000 HD
ENDBRANCH  17  18
ENDBRANCH  11  12
ENDBRANCH   9  11
ENDBRANCH   1   8
BRANCH   3  20
ATOM     20  C   UNL     1       6.455   6.086  16.560  0.00  0.00    +0.000 C 
ATOM     21  O   UNL     1       6.852   5.755  15.448  0.00  0.00    +0.000 OA
BRANCH  20  22
ATOM     22  C   UNL     1       5.109   5.651  17.019  0.00  0.00    +0.000 A 
ATOM     23  C   UNL     1       4.219   6.558  17.623  0.00  0.00    +0.000 A 
ATOM     24  C   UNL     1       2.961   6.128  18.050  0.00  0.00    +0.000 A 
ATOM     25  C   UNL     1       2.580   4.807  17.840  0.00  0.00    +0.000 A 
ATOM     26  F   UNL     1       1.371   4.401  18.247  0.00  0.00    +0.000 F 
ATOM     27  C   UNL     1       3.432   3.908  17.215  0.00  0.00    +0.000 A 
ATOM     28  C   UNL     1       4.696   4.334  16.808  0.00  0.00    +0.000 A 
ATOM     29  F   UNL     1       5.508   3.434  16.238  0.00  0.00    +0.000 F 
ENDBRANCH  20  22
ENDBRANCH   3  20
TORSDOF 6
ENDMDL
MODEL 4
REMARK VINA RESULT:      -8.2      1.899      2.531
REMARK  Name = 
REMARK  6 active torsions:
REMARK  status: ('A' for Active; 'I' for Inactive)
REMARK    1  A    between atoms: C_2  and  C_12
REMARK    2  A    between atoms: N_3  and  C_4
REMARK    3  A    between atoms: C_4  and  C_5
REMARK    4  A    between atoms: C_10  and  O_11
REMARK    5  A    between atoms: C_14  and  C_15
REMARK    6  A    between atoms: C_15  and  C_17
REMARK                            x       y       z     vdW  Elec       q    Type
REMARK                         _______ _______ _______ _____ _____    ______ ____
ROOT
ATOM      1  C   UNL     1       2.181   7.792  18.870  0.00  0.00    +0.000 A 
ATOM      2  C   UNL     1       2.935   6.825  18.225  0.00  0.00    +0.000 A 
ATOM      3  C   UNL     1       3.222   5.770  19.143  0.00  0.00    +0.000 A 
ATOM      4  C   UNL     1       2.563   6.102  20.312  0.00  0.00    +0.000 A 
ATOM      5  N   UNL     1       1.961   7.321  20.147  0.00  0.00    +0.000 N 
ATOM      6  H   UNL     1       1.433   7.826  20.849  0.00  0.00    +0.000 HD
ENDROOT
BRANCH   1   8
ATOM      7  O   UNL     1       2.138   9.651  17.444  0.00  0.00    +0.000 OA
ATOM      8  C   UNL     1       1.676   9.075  18.423  0.00  0.00    +0.000 C 
ATOM      9  N   UNL     1       0.650   9.579  19.177  0.00  0.00    +0.000 N 
ATOM     10  H   UNL     1       0.463   9.180  20.085  0.00  0.00    +0.000 HD
BRANCH   9  11
ATOM     11  C   UNL     1       0.106  10.896  18.967  0.00  0.00    +0.000 C 
BRANCH  11  12
ATOM     12  C   UNL     1      -1.304  10.839  18.432  0.00  0.00    +0.000 A 
ATOM     13  C   UNL     1      -1.602   9.982  17.361  0.00  0.00    +0.000 A 
ATOM     14  C   UNL     1      -2.887   9.936  16.817  0.00  0.00    +0.000 A 
ATOM     15  C   UNL     1      -3.896  10.744  17.335  0.00  0.00    +0.000 A 
ATOM     16  C   UNL     1      -3.622  11.597  18.405  0.00  0.00    +0.000 A 
ATOM     17  C   UNL     1      -2.335  11.638  18.944  0.00  0.00    +0.000 A 
BRANCH  17  18
ATOM     18  O   UNL     1      -2.071  12.459  20.008  0.00  0.00    +0.000 OA
ATOM     19  H   UNL     1      -2.270  11.972  20.827  0.00  0.00    +0.000 HD
ENDBRANCH  17  18
ENDBRANCH  11  12
ENDBRANCH   9  11
ENDBRANCH   1   8
BRANCH   3  20
ATOM     20  C   UNL     1       4.028   4.562  18.950  0.00  0.00    +0.000 C 
ATOM     21  O   UNL     1       3.955   3.605  19.714  0.00  0.00    +0.000 OA
BRANCH  20  22
ATOM     22  C   UNL     1       4.998   4.531  17.823  0.00  0.00    +0.000 A 
ATOM     23  C   UNL     1       4.606   4.111  16.539  0.00  0.00    +0.000 A 
ATOM     24  C   UNL     1       5.532   4.086  15.496  0.00  0.00    +0.000 A 
ATOM     25  C   UNL     1       6.836   4.512  15.725  0.00  0.00    +0.000 A 
ATOM     26  F   UNL     1       7.720   4.490  14.720  0.00  0.00    +0.000 F 
ATOM     27  C   UNL     1       7.232   4.961  16.978  0.00  0.00    +0.000 A 
ATOM     28  C   UNL     1       6.310   4.967  18.023  0.00  0.00    +0.000 A 
ATOM     29  F   UNL     1       6.730   5.374  19.229  0.00  0.00    +0.000 F 
ENDBRANCH  20  22
ENDBRANCH   3  20
TORSDOF 6
ENDMDL
MODEL 5
REMARK VINA RESULT:      -8.2      0.941      1.335
REMARK  Name = 
REMARK  6 active torsions:
REMARK  status: ('A' for Active; 'I' for Inactive)
REMARK    1  A    between atoms: C_2  and  C_12
REMARK    2  A    between atoms: N_3  and  C_4
REMARK    3  A    between atoms: C_4  and  C_5
REMARK    4  A    between atoms: C_10  and  O_11
REMARK    5  A    between atoms: C_14  and  C_15
REMARK    6  A    between atoms: C_15  and  C_17
REMARK                            x       y       z     vdW  Elec       q    Type
REMARK                         _______ _______ _______ _____ _____    ______ ____
ROOT
ATOM      1  C   UNL     1       2.664   7.482  18.688  0.00  0.00    +0.000 A 
ATOM      2  C   UNL     1       3.665   6.839  17.979  0.00  0.00    +0.000 A 
ATOM      3  C   UNL     1       4.118   5.713  18.732  0.00  0.00    +0.000 A 
ATOM      4  C   UNL     1       3.315   5.669  19.857  0.00  0.00    +0.000 A 
ATOM      5  N   UNL     1       2.464   6.741  19.832  0.00  0.00    +0.000 N 
ATOM      6  H   UNL     1       1.783   6.979  20.544  0.00  0.00    +0.000 HD
ENDROOT
BRANCH   1   8
ATOM      7  O   UNL     1       1.992   9.273  17.332  0.00  0.00    +0.000 OA
ATOM      8  C   UNL     1       1.913   8.690  18.409  0.00  0.00    +0.000 C 
ATOM      9  N   UNL     1       1.116   9.117  19.438  0.00  0.00    +0.000 N 
ATOM     10  H   UNL     1       1.257   8.736  20.362  0.00  0.00    +0.000 HD
BRANCH   9  11
ATOM     11  C   UNL     1       0.397  10.364  19.397  0.00  0.00    +0.000 C 
BRANCH  11  12
ATOM     12  C   UNL     1      -0.246  10.681  20.725  0.00  0.00    +0.000 A 
ATOM     13  C   UNL     1      -0.046   9.817  21.813  0.00  0.00    +0.000 A 
ATOM     14  C   UNL     1      -0.660  10.061  23.043  0.00  0.00    +0.000 A 
ATOM     15  C   UNL     1      -1.482  11.174  23.207  0.00  0.00    +0.000 A 
ATOM     16  C   UNL     1      -1.687  12.049  22.140  0.00  0.00    +0.000 A 
ATOM     17  C   UNL     1      -1.070  11.799  20.913  0.00  0.00    +0.000 A 
BRANCH  17  18
ATOM     18  O   UNL     1      -1.255  12.669  19.872  0.00  0.00    +0.000 OA
ATOM     19  H   UNL     1      -1.537  12.159  19.092  0.00  0.00    +0.000 HD
ENDBRANCH  17  18
ENDBRANCH  11  12
ENDBRANCH   9  11
ENDBRANCH   1   8
BRANCH   3  20
ATOM     20  C   UNL     1       5.192   4.763  18.431  0.00  0.00    +0.000 C 
ATOM     21  O   UNL     1       5.715   4.078  19.304  0.00  0.00    +0.000 OA
BRANCH  20  22
ATOM     22  C   UNL     1       5.689   4.676  17.033  0.00  0.00    +0.000 A 
ATOM     23  C   UNL     1       6.979   5.121  16.691  0.00  0.00    +0.000 A 
ATOM     24  C   UNL     1       7.425   5.034  15.372  0.00  0.00    +0.000 A 
ATOM     25  C   UNL     1       6.600   4.471  14.404  0.00  0.00    +0.000 A 
ATOM     26  F   UNL     1       7.035   4.385  13.141  0.00  0.00    +0.000 F 
ATOM     27  C   UNL     1       5.337   3.996  14.730  0.00  0.00    +0.000 A 
ATOM     28  C   UNL     1       4.886   4.102  16.044  0.00  0.00    +0.000 A 
ATOM     29  F   UNL     1       3.650   3.665  16.321  0.00  0.00    +0.000 F 
ENDBRANCH  20  22
ENDBRANCH   3  20
TORSDOF 6
ENDMDL
MODEL 6
REMARK VINA RESULT:      -8.2      5.789      6.860
REMARK  Name = 
REMARK  6 active torsions:
REMARK  status: ('A' for Active; 'I' for Inactive)
REMARK    1  A    between atoms: C_2  and  C_12
REMARK    2  A    between atoms: N_3  and  C_4
REMARK    3  A    between atoms: C_4  and  C_5
REMARK    4  A    between atoms: C_10  and  O_11
REMARK    5  A    between atoms: C_14  and  C_15
REMARK    6  A    between atoms: C_15  and  C_17
REMARK                            x       y       z     vdW  Elec       q    Type
REMARK                         _______ _______ _______ _____ _____    ______ ____
ROOT
ATOM      1  C   UNL     1       8.360   8.693  18.357  0.00  0.00    +0.000 A 
ATOM      2  C   UNL     1       7.491   8.334  17.341  0.00  0.00    +0.000 A 
ATOM      3  C   UNL     1       7.218   6.936  17.434  0.00  0.00    +0.000 A 
ATOM      4  C   UNL     1       7.885   6.499  18.563  0.00  0.00    +0.000 A 
ATOM      5  N   UNL     1       8.582   7.551  19.096  0.00  0.00    +0.000 N 
ATOM      6  H   UNL     1       9.184   7.516  19.910  0.00  0.00    +0.000 HD
ENDROOT
BRANCH   1   8
ATOM      7  O   UNL     1       9.215  10.811  17.830  0.00  0.00    +0.000 OA
ATOM      8  C   UNL     1       8.991   9.957  18.682  0.00  0.00    +0.000 C 
ATOM      9  N   UNL     1       9.309  10.113  20.005  0.00  0.00    +0.000 N 
ATOM     10  H   UNL     1       9.309   9.306  20.611  0.00  0.00    +0.000 HD
BRANCH   9  11
ATOM     11  C   UNL     1      10.055  11.243  20.496  0.00  0.00    +0.000 C 
BRANCH  11  12
ATOM     12  C   UNL     1       9.147  12.311  21.054  0.00  0.00    +0.000 A 
ATOM     13  C   UNL     1       8.652  12.184  22.361  0.00  0.00    +0.000 A 
ATOM     14  C   UNL     1       7.779  13.135  22.892  0.00  0.00    +0.000 A 
ATOM     15  C   UNL     1       7.386  14.230  22.126  0.00  0.00    +0.000 A 
ATOM     16  C   UNL     1       7.872  14.378  20.827  0.00  0.00    +0.000 A 
ATOM     17  C   UNL     1       8.746  13.424  20.302  0.00  0.00    +0.000 A 
BRANCH  17  18
ATOM     18  O   UNL     1       9.240  13.581  19.035  0.00  0.00    +0.000 OA
ATOM     19  H   UNL     1       9.864  12.855  18.858  0.00  0.00    +0.000 HD
ENDBRANCH  17  18
ENDBRANCH  11  12
ENDBRANCH   9  11
ENDBRANCH   1   8
BRANCH   3  20
ATOM     20  C   UNL     1       6.408   6.085  16.558  0.00  0.00    +0.000 C 
ATOM     21  O   UNL     1       6.789   5.755  15.440  0.00  0.00    +0.000 OA
BRANCH  20  22
ATOM     22  C   UNL     1       5.063   5.660  17.031  0.00  0.00    +0.000 A 
ATOM     23  C   UNL     1       4.174   6.581  17.614  0.00  0.00    +0.000 A 
ATOM     24  C   UNL     1       2.917   6.161  18.054  0.00  0.00    +0.000 A 
ATOM     25  C   UNL     1       2.537   4.835  17.880  0.00  0.00    +0.000 A 
ATOM     26  F   UNL     1       1.330   4.438  18.301  0.00  0.00    +0.000 F 
ATOM     27  C   UNL     1       3.390   3.920  17.278  0.00  0.00    +0.000 A 
ATOM     28  C   UNL     1       4.652   4.337  16.856  0.00  0.00    +0.000 A 
ATOM     29  F   UNL     1       5.464   3.423  16.308  0.00  0.00    +0.000 F 
ENDBRANCH  20  22
ENDBRANCH   3  20
TORSDOF 6
ENDMDL
MODEL 7
REMARK VINA RESULT:      -8.1      3.220      4.473
REMARK  Name = 
REMARK  6 active torsions:
REMARK  status: ('A' for Active; 'I' for Inactive)
REMARK    1  A    between atoms: C_2  and  C_12
REMARK    2  A    between atoms: N_3  and  C_4
REMARK    3  A    between atoms: C_4  and  C_5
REMARK    4  A    between atoms: C_10  and  O_11
REMARK    5  A    between atoms: C_14  and  C_15
REMARK    6  A    between atoms: C_15  and  C_17
REMARK                            x       y       z     vdW  Elec       q    Type
REMARK                         _______ _______ _______ _____ _____    ______ ____
ROOT
ATOM      1  C   UNL     1       1.065   9.588  19.378  0.00  0.00    +0.000 A 
ATOM      2  C   UNL     1       1.752   9.003  18.327  0.00  0.00    +0.000 A 
ATOM      3  C   UNL     1       2.344   7.785  18.777  0.00  0.00    +0.000 A 
ATOM      4  C   UNL     1       1.931   7.632  20.088  0.00  0.00    +0.000 A 
ATOM      5  N   UNL     1       1.185   8.723  20.445  0.00  0.00    +0.000 N 
ATOM      6  H   UNL     1       0.778   8.895  21.356  0.00  0.00    +0.000 HD
ENDROOT
BRANCH   1   8
ATOM      7  O   UNL     1       0.320  11.499  20.512  0.00  0.00    +0.000 OA
ATOM      8  C   UNL     1       0.343  10.841  19.477  0.00  0.00    +0.000 C 
ATOM      9  N   UNL     1      -0.299  11.221  18.329  0.00  0.00    +0.000 N 
ATOM     10  H   UNL     1      -0.432  10.546  17.591  0.00  0.00    +0.000 HD
BRANCH   9  11
ATOM     11  C   UNL     1      -1.171  12.366  18.271  0.00  0.00    +0.000 C 
BRANCH  11  12
ATOM     12  C   UNL     1      -2.616  11.960  18.114  0.00  0.00    +0.000 A 
ATOM     13  C   UNL     1      -3.503  12.135  19.188  0.00  0.00    +0.000 A 
ATOM     14  C   UNL     1      -4.836  11.732  19.088  0.00  0.00    +0.000 A 
ATOM     15  C   UNL     1      -5.306  11.150  17.912  0.00  0.00    +0.000 A 
ATOM     16  C   UNL     1      -4.442  10.976  16.831  0.00  0.00    +0.000 A 
ATOM     17  C   UNL     1      -3.110  11.381  16.937  0.00  0.00    +0.000 A 
BRANCH  17  18
ATOM     18  O   UNL     1      -2.268  11.229  15.869  0.00  0.00    +0.000 OA
ATOM     19  H   UNL     1      -1.683  10.471  16.045  0.00  0.00    +0.000 HD
ENDBRANCH  17  18
ENDBRANCH  11  12
ENDBRANCH   9  11
ENDBRANCH   1   8
BRANCH   3  20
ATOM     20  C   UNL     1       3.207   6.847  18.056  0.00  0.00    +0.000 C 
ATOM     21  O   UNL     1       4.028   7.226  17.227  0.00  0.00    +0.000 OA
BRANCH  20  22
ATOM     22  C   UNL     1       3.035   5.391  18.306  0.00  0.00    +0.000 A 
ATOM     23  C   UNL     1       1.943   4.686  17.768  0.00  0.00    +0.000 A 
ATOM     24  C   UNL     1       1.799   3.320  18.018  0.00  0.00    +0.000 A 
ATOM     25  C   UNL     1       2.760   2.655  18.771  0.00  0.00    +0.000 A 
ATOM     26  F   UNL     1       2.618   1.344  19.004  0.00  0.00    +0.000 F 
ATOM     27  C   UNL     1       3.861   3.328  19.282  0.00  0.00    +0.000 A 
ATOM     28  C   UNL     1       3.993   4.696  19.048  0.00  0.00    +0.000 A 
ATOM     29  F   UNL     1       5.049   5.325  19.581  0.00  0.00    +0.000 F 
ENDBRANCH  20  22
ENDBRANCH   3  20
TORSDOF 6
ENDMDL
MODEL 8
REMARK VINA RESULT:      -8.1      4.101      9.147
REMARK  Name = 
REMARK  6 active torsions:
REMARK  status: ('A' for Active; 'I' for Inactive)
REMARK    1  A    between atoms: C_2  and  C_12
REMARK    2  A    between atoms: N_3  and  C_4
REMARK    3  A    between atoms: C_4  and  C_5
REMARK    4  A    between atoms: C_10  and  O_11
REMARK    5  A    between atoms: C_14  and  C_15
REMARK    6  A    between atoms: C_15  and  C_17
REMARK                            x       y       z     vdW  Elec       q    Type
REMARK                         _______ _______ _______ _____ _____    ______ ____
ROOT
ATOM      1  C   UNL     1       1.790   7.501  20.208  0.00  0.00    +0.000 A 
ATOM      2  C   UNL     1       1.564   8.387  19.168  0.00  0.00    +0.000 A 
ATOM      3  C   UNL     1       0.971   9.576  19.690  0.00  0.00    +0.000 A 
ATOM      4  C   UNL     1       0.922   9.399  21.060  0.00  0.00    +0.000 A 
ATOM      5  N   UNL     1       1.394   8.148  21.359  0.00  0.00    +0.000 N 
ATOM      6  H   UNL     1       1.446   7.735  22.283  0.00  0.00    +0.000 HD
ENDROOT
BRANCH   1   8
ATOM      7  O   UNL     1       1.729   5.232  20.791  0.00  0.00    +0.000 OA
ATOM      8  C   UNL     1       2.313   6.149  20.224  0.00  0.00    +0.000 C 
ATOM      9  N   UNL     1       3.498   5.988  19.557  0.00  0.00    +0.000 N 
ATOM     10  H   UNL     1       4.038   6.803  19.306  0.00  0.00    +0.000 HD
BRANCH   9  11
ATOM     11  C   UNL     1       4.235   4.751  19.571  0.00  0.00    +0.000 C 
BRANCH  11  12
ATOM     12  C   UNL     1       5.226   4.678  18.436  0.00  0.00    +0.000 A 
ATOM     13  C   UNL     1       4.785   4.304  17.157  0.00  0.00    +0.000 A 
ATOM     14  C   UNL     1       5.685   4.189  16.095  0.00  0.00    +0.000 A 
ATOM     15  C   UNL     1       7.040   4.447  16.293  0.00  0.00    +0.000 A 
ATOM     16  C   UNL     1       7.496   4.827  17.556  0.00  0.00    +0.000 A 
ATOM     17  C   UNL     1       6.592   4.941  18.613  0.00  0.00    +0.000 A 
BRANCH  17  18
ATOM     18  O   UNL     1       7.037   5.335  19.846  0.00  0.00    +0.000 OA
ATOM     19  H   UNL     1       7.873   5.818  19.730  0.00  0.00    +0.000 HD
ENDBRANCH  17  18
ENDBRANCH  11  12
ENDBRANCH   9  11
ENDBRANCH   1   8
BRANCH   3  20
ATOM     20  C   UNL     1       0.500  10.770  18.983  0.00  0.00    +0.000 C 
ATOM     21  O   UNL     1       1.220  11.748  18.810  0.00  0.00    +0.000 OA
BRANCH  20  22
ATOM     22  C   UNL     1      -0.911  10.804  18.515  0.00  0.00    +0.000 A 
ATOM     23  C   UNL     1      -1.353   9.961  17.479  0.00  0.00    +0.000 A 
ATOM     24  C   UNL     1      -2.681  10.012  17.052  0.00  0.00    +0.000 A 
ATOM     25  C   UNL     1      -3.572  10.875  17.681  0.00  0.00    +0.000 A 
ATOM     26  F   UNL     1      -4.845  10.916  17.270  0.00  0.00    +0.000 F 
ATOM     27  C   UNL     1      -3.160  11.690  18.726  0.00  0.00    +0.000 A 
ATOM     28  C   UNL     1      -1.829  11.652  19.138  0.00  0.00    +0.000 A 
ATOM     29  F   UNL     1      -1.455  12.474  20.128  0.00  0.00    +0.000 F 
ENDBRANCH  20  22
ENDBRANCH   3  20
TORSDOF 6
ENDMDL
MODEL 9
REMARK VINA RESULT:      -8.1      3.746      9.166
REMARK  Name = 
REMARK  6 active torsions:
REMARK  status: ('A' for Active; 'I' for Inactive)
REMARK    1  A    between atoms: C_2  and  C_12
REMARK    2  A    between atoms: N_3  and  C_4
REMARK    3  A    between atoms: C_4  and  C_5
REMARK    4  A    between atoms: C_10  and  O_11
REMARK    5  A    between atoms: C_14  and  C_15
REMARK    6  A    between atoms: C_15  and  C_17
REMARK                            x       y       z     vdW  Elec       q    Type
REMARK                         _______ _______ _______ _____ _____    ______ ____
ROOT
ATOM      1  C   UNL     1       1.945   7.193  20.067  0.00  0.00    +0.000 A 
ATOM      2  C   UNL     1       1.845   8.162  19.082  0.00  0.00    +0.000 A 
ATOM      3  C   UNL     1       1.251   9.334  19.640  0.00  0.00    +0.000 A 
ATOM      4  C   UNL     1       1.071   9.058  20.983  0.00  0.00    +0.000 A 
ATOM      5  N   UNL     1       1.469   7.770  21.224  0.00  0.00    +0.000 N 
ATOM      6  H   UNL     1       1.422   7.289  22.115  0.00  0.00    +0.000 HD
ENDROOT
BRANCH   1   8
ATOM      7  O   UNL     1       2.191   5.029  20.932  0.00  0.00    +0.000 OA
ATOM      8  C   UNL     1       2.414   5.822  20.024  0.00  0.00    +0.000 C 
ATOM      9  N   UNL     1       3.118   5.496  18.895  0.00  0.00    +0.000 N 
ATOM     10  H   UNL     1       3.459   6.232  18.295  0.00  0.00    +0.000 HD
BRANCH   9  11
ATOM     11  C   UNL     1       3.773   4.224  18.729  0.00  0.00    +0.000 C 
BRANCH  11  12
ATOM     12  C   UNL     1       4.982   4.331  17.833  0.00  0.00    +0.000 A 
ATOM     13  C   UNL     1       4.869   3.989  16.477  0.00  0.00    +0.000 A 
ATOM     14  C   UNL     1       5.978   4.039  15.630  0.00  0.00    +0.000 A 
ATOM     15  C   UNL     1       7.220   4.434  16.126  0.00  0.00    +0.000 A 
ATOM     16  C   UNL     1       7.351   4.785  17.469  0.00  0.00    +0.000 A 
ATOM     17  C   UNL     1       6.237   4.734  18.310  0.00  0.00    +0.000 A 
BRANCH  17  18
ATOM     18  O   UNL     1       6.362   5.099  19.624  0.00  0.00    +0.000 OA
ATOM     19  H   UNL     1       5.554   5.573  19.887  0.00  0.00    +0.000 HD
ENDBRANCH  17  18
ENDBRANCH  11  12
ENDBRANCH   9  11
ENDBRANCH   1   8
BRANCH   3  20
ATOM     20  C   UNL     1       0.889  10.595  18.988  0.00  0.00    +0.000 C 
ATOM     21  O   UNL     1       1.738  11.382  18.582  0.00  0.00    +0.000 OA
BRANCH  20  22
ATOM     22  C   UNL     1      -0.552  10.942  18.869  0.00  0.00    +0.000 A 
ATOM     23  C   UNL     1      -1.131  11.928  19.688  0.00  0.00    +0.000 A 
ATOM     24  C   UNL     1      -2.487  12.237  19.563  0.00  0.00    +0.000 A 
ATOM     25  C   UNL     1      -3.252  11.590  18.600  0.00  0.00    +0.000 A 
ATOM     26  F   UNL     1      -4.550  11.892  18.481  0.00  0.00    +0.000 F 
ATOM     27  C   UNL     1      -2.689  10.638  17.761  0.00  0.00    +0.000 A 
ATOM     28  C   UNL     1      -1.340  10.316  17.901  0.00  0.00    +0.000 A 
ATOM     29  F   UNL     1      -0.834   9.370  17.098  0.00  0.00    +0.000 F 
ENDBRANCH  20  22
ENDBRANCH   3  20
TORSDOF 6
ENDMDL
