MODEL 1
REMARK VINA RESULT:      -7.8      0.000      0.000
REMARK  Name = 
REMARK  4 active torsions:
REMARK  status: ('A' for Active; 'I' for Inactive)
REMARK    1  A    between atoms: C_1  and  O_2
REMARK    2  A    between atoms: O_2  and  C_3
REMARK    3  A    between atoms: C_6  and  N_7
REMARK    4  A    between atoms: C_8  and  C_10
REMARK                            x       y       z     vdW  Elec       q    Type
REMARK                         _______ _______ _______ _____ _____    ______ ____
ROOT
ATOM      1  C   UNL     1       3.029   6.986  17.964  0.00  0.00    +0.000 C 
ATOM      2  C   UNL     1       3.007   5.667  18.214  0.00  0.00    +0.000 C 
ATOM      3  C   UNL     1       2.381   4.768  19.165  0.00  0.00    +0.000 A 
ATOM      4  C   UNL     1       1.065   4.643  19.567  0.00  0.00    +0.000 A 
ATOM      5  C   UNL     1       0.751   3.698  20.547  0.00  0.00    +0.000 A 
ATOM      6  C   UNL     1       1.756   2.907  21.131  0.00  0.00    +0.000 A 
ATOM      7  C   UNL     1       3.070   2.964  20.657  0.00  0.00    +0.000 A 
ATOM      8  C   UNL     1       3.333   3.863  19.639  0.00  0.00    +0.000 A 
ATOM      9  S   UNL     1       4.773   3.930  18.619  0.00  0.00    +0.000 S 
ATOM     10  O   UNL     1       4.921   2.664  17.943  0.00  0.00    +0.000 OA
ATOM     11  O   UNL     1       5.840   4.565  19.373  0.00  0.00    +0.000 OA
ATOM     12  N   UNL     1       4.103   5.064  17.541  0.00  0.00    +0.000 N 
ATOM     13  C   UNL     1       4.865   6.032  16.762  0.00  0.00    +0.000 C 
ATOM     14  C   UNL     1       4.161   7.368  17.060  0.00  0.00    +0.000 C 
ENDROOT
BRANCH   1  16
ATOM     15  N   UNL     1       2.017   7.904  19.993  0.00  0.00    +0.000 N 
ATOM     16  C   UNL     1       2.090   7.932  18.615  0.00  0.00    +0.000 C 
ATOM     17  O   UNL     1       1.461   8.702  17.898  0.00  0.00    +0.000 OA
ATOM     18  H   UNL     1       2.561   7.219  20.498  0.00  0.00    +0.000 HD
BRANCH  15  22
ATOM     19  C   UNL     1      -0.378  10.420  22.460  0.00  0.00    +0.000 A 
ATOM     20  C   UNL     1       0.374  10.970  21.430  0.00  0.00    +0.000 A 
ATOM     21  C   UNL     1       1.148  10.154  20.601  0.00  0.00    +0.000 A 
ATOM     22  C   UNL     1       1.213   8.772  20.791  0.00  0.00    +0.000 A 
ATOM     23  C   UNL     1       0.455   8.222  21.835  0.00  0.00    +0.000 A 
ATOM     24  C   UNL     1      -0.325   9.046  22.667  0.00  0.00    +0.000 A 
BRANCH  19  26
ATOM     25  C   UNL     1      -1.103  12.655  22.701  0.00  0.00    +0.000 C 
ATOM     26  O   UNL     1      -1.072  11.328  23.208  0.00  0.00    +0.000 OA
ENDBRANCH  19  26
ENDBRANCH  15  22
ENDBRANCH   1  16
TORSDOF 3
ENDMDL
MODEL 2
REMARK VINA RESULT:      -7.8      2.062      2.195
REMARK  Name = 
REMARK  4 active torsions:
REMARK  status: ('A' for Active; 'I' for Inactive)
REMARK    1  A    between atoms: C_1  and  O_2
REMARK    2  A    between atoms: O_2  and  C_3
REMARK    3  A    between atoms: C_6  and  N_7
REMARK    4  A    between atoms: C_8  and  C_10
REMARK                            x       y       z     vdW  Elec       q    Type
REMARK                         _______ _______ _______ _____ _____    ______ ____
ROOT
ATOM      1  C   UNL     1       3.214   6.786  17.900  0.00  0.00    +0.000 C 
ATOM      2  C   UNL     1       3.095   5.477  18.174  0.00  0.00    +0.000 C 
ATOM      3  C   UNL     1       2.438   4.646  19.165  0.00  0.00    +0.000 A 
ATOM      4  C   UNL     1       1.134   4.635  19.622  0.00  0.00    +0.000 A 
ATOM      5  C   UNL     1       0.784   3.734  20.631  0.00  0.00    +0.000 A 
ATOM      6  C   UNL     1       1.745   2.872  21.187  0.00  0.00    +0.000 A 
ATOM      7  C   UNL     1       3.039   2.813  20.660  0.00  0.00    +0.000 A 
ATOM      8  C   UNL     1       3.331   3.673  19.616  0.00  0.00    +0.000 A 
ATOM      9  S   UNL     1       4.728   3.607  18.538  0.00  0.00    +0.000 S 
ATOM     10  O   UNL     1       4.744   2.323  17.879  0.00  0.00    +0.000 OA
ATOM     11  O   UNL     1       5.874   4.162  19.237  0.00  0.00    +0.000 OA
ATOM     12  N   UNL     1       4.109   4.776  17.468  0.00  0.00    +0.000 N 
ATOM     13  C   UNL     1       4.915   5.667  16.642  0.00  0.00    +0.000 C 
ATOM     14  C   UNL     1       4.335   7.060  16.943  0.00  0.00    +0.000 C 
ENDROOT
BRANCH   1  16
ATOM     15  N   UNL     1       1.802   8.779  17.772  0.00  0.00    +0.000 N 
ATOM     16  C   UNL     1       2.383   7.815  18.571  0.00  0.00    +0.000 C 
ATOM     17  O   UNL     1       2.233   7.731  19.785  0.00  0.00    +0.000 OA
ATOM     18  H   UNL     1       2.001   8.778  16.782  0.00  0.00    +0.000 HD
BRANCH  15  22
ATOM     19  C   UNL     1      -0.708  11.940  19.136  0.00  0.00    +0.000 A 
ATOM     20  C   UNL     1      -1.266  10.824  18.525  0.00  0.00    +0.000 A 
ATOM     21  C   UNL     1      -0.456   9.771  18.091  0.00  0.00    +0.000 A 
ATOM     22  C   UNL     1       0.933   9.813  18.232  0.00  0.00    +0.000 A 
ATOM     23  C   UNL     1       1.491  10.943  18.847  0.00  0.00    +0.000 A 
ATOM     24  C   UNL     1       0.673  12.001  19.284  0.00  0.00    +0.000 A 
BRANCH  19  26
ATOM     25  C   UNL     1      -2.927  12.453  19.764  0.00  0.00    +0.000 C 
ATOM     26  O   UNL     1      -1.607  12.904  19.493  0.00  0.00    +0.000 OA
ENDBRANCH  19  26
ENDBRANCH  15  22
ENDBRANCH   1  16
TORSDOF 3
ENDMDL
MODEL 3
REMARK VINA RESULT:      -7.8      1.234      1.531
REMARK  Name = 
REMARK  4 active torsions:
REMARK  status: ('A' for Active; 'I' for Inactive)
REMARK    1  A    between atoms: C_1  and  O_2
REMARK    2  A    between atoms: O_2  and  C_3
REMARK    3  A    between atoms: C_6  and  N_7
REMARK    4  A    between atoms: C_8  and  C_10
REMARK                            x       y       z     vdW  Elec       q    Type
REMARK                         _______ _______ _______ _____ _____    ______ ____
ROOT
ATOM      1  C   UNL     1       2.860   6.990  18.458  0.00  0.00    +0.000 C 
ATOM      2  C   UNL     1       2.853   5.650  18.529  0.00  0.00    +0.000 C 
ATOM      3  C   UNL     1       2.364   4.628  19.434  0.00  0.00    +0.000 A 
ATOM      4  C   UNL     1       1.122   4.445  20.013  0.00  0.00    +0.000 A 
ATOM      5  C   UNL     1       0.944   3.375  20.894  0.00  0.00    +0.000 A 
ATOM      6  C   UNL     1       2.012   2.515  21.205  0.00  0.00    +0.000 A 
ATOM      7  C   UNL     1       3.240   2.640  20.547  0.00  0.00    +0.000 A 
ATOM      8  C   UNL     1       3.360   3.670  19.631  0.00  0.00    +0.000 A 
ATOM      9  S   UNL     1       4.629   3.880  18.421  0.00  0.00    +0.000 S 
ATOM     10  O   UNL     1       4.650   2.717  17.566  0.00  0.00    +0.000 OA
ATOM     11  O   UNL     1       5.809   4.410  19.081  0.00  0.00    +0.000 OA
ATOM     12  N   UNL     1       3.823   5.147  17.621  0.00  0.00    +0.000 N 
ATOM     13  C   UNL     1       4.474   6.214  16.871  0.00  0.00    +0.000 C 
ATOM     14  C   UNL     1       3.847   7.495  17.450  0.00  0.00    +0.000 C 
ENDROOT
BRANCH   1  16
ATOM     15  N   UNL     1       1.460   8.962  18.825  0.00  0.00    +0.000 N 
ATOM     16  C   UNL     1       2.047   7.836  19.366  0.00  0.00    +0.000 C 
ATOM     17  O   UNL     1       1.917   7.470  20.529  0.00  0.00    +0.000 OA
ATOM     18  H   UNL     1       1.641   9.192  17.859  0.00  0.00    +0.000 HD
BRANCH  15  22
ATOM     19  C   UNL     1      -1.177  11.618  20.861  0.00  0.00    +0.000 A 
ATOM     20  C   UNL     1      -0.063  11.108  21.516  0.00  0.00    +0.000 A 
ATOM     21  C   UNL     1       0.821  10.252  20.854  0.00  0.00    +0.000 A 
ATOM     22  C   UNL     1       0.605   9.862  19.530  0.00  0.00    +0.000 A 
ATOM     23  C   UNL     1      -0.523  10.377  18.875  0.00  0.00    +0.000 A 
ATOM     24  C   UNL     1      -1.410  11.240  19.544  0.00  0.00    +0.000 A 
BRANCH  19  26
ATOM     25  C   UNL     1      -2.117  12.039  22.988  0.00  0.00    +0.000 C 
ATOM     26  O   UNL     1      -1.969  12.425  21.628  0.00  0.00    +0.000 OA
ENDBRANCH  19  26
ENDBRANCH  15  22
ENDBRANCH   1  16
TORSDOF 3
ENDMDL
MODEL 4
REMARK VINA RESULT:      -7.7      1.223      1.335
REMARK  Name = 
REMARK  4 active torsions:
REMARK  status: ('A' for Active; 'I' for Inactive)
REMARK    1  A    between atoms: C_1  and  O_2
REMARK    2  A    between atoms: O_2  and  C_3
REMARK    3  A    between atoms: C_6  and  N_7
REMARK    4  A    between atoms: C_8  and  C_10
REMARK                            x       y       z     vdW  Elec       q    Type
REMARK                         _______ _______ _______ _____ _____    ______ ____
ROOT
ATOM      1  C   UNL     1       2.519   7.171  18.983  0.00  0.00    +0.000 C 
ATOM      2  C   UNL     1       2.621   5.835  18.897  0.00  0.00    +0.000 C 
ATOM      3  C   UNL     1       2.349   4.684  19.736  0.00  0.00    +0.000 A 
ATOM      4  C   UNL     1       1.225   4.330  20.459  0.00  0.00    +0.000 A 
ATOM      5  C   UNL     1       1.260   3.162  21.224  0.00  0.00    +0.000 A 
ATOM      6  C   UNL     1       2.423   2.374  21.278  0.00  0.00    +0.000 A 
ATOM      7  C   UNL     1       3.525   2.676  20.473  0.00  0.00    +0.000 A 
ATOM      8  C   UNL     1       3.431   3.804  19.676  0.00  0.00    +0.000 A 
ATOM      9  S   UNL     1       4.485   4.252  18.333  0.00  0.00    +0.000 S 
ATOM     10  O   UNL     1       4.462   3.193  17.352  0.00  0.00    +0.000 OA
ATOM     11  O   UNL     1       5.709   4.813  18.877  0.00  0.00    +0.000 OA
ATOM     12  N   UNL     1       3.477   5.520  17.808  0.00  0.00    +0.000 N 
ATOM     13  C   UNL     1       3.929   6.714  17.105  0.00  0.00    +0.000 C 
ATOM     14  C   UNL     1       3.304   7.865  17.912  0.00  0.00    +0.000 C 
ENDROOT
BRANCH   1  16
ATOM     15  N   UNL     1       1.117   9.006  19.790  0.00  0.00    +0.000 N 
ATOM     16  C   UNL     1       1.792   7.840  20.090  0.00  0.00    +0.000 C 
ATOM     17  O   UNL     1       1.804   7.304  21.192  0.00  0.00    +0.000 OA
ATOM     18  H   UNL     1       1.182   9.382  18.855  0.00  0.00    +0.000 HD
BRANCH  15  22
ATOM     19  C   UNL     1      -1.188  11.204  22.620  0.00  0.00    +0.000 A 
ATOM     20  C   UNL     1      -1.082  11.654  21.310  0.00  0.00    +0.000 A 
ATOM     21  C   UNL     1      -0.346  10.933  20.367  0.00  0.00    +0.000 A 
ATOM     22  C   UNL     1       0.325   9.757  20.710  0.00  0.00    +0.000 A 
ATOM     23  C   UNL     1       0.218   9.308  22.034  0.00  0.00    +0.000 A 
ATOM     24  C   UNL     1      -0.526  10.036  22.981  0.00  0.00    +0.000 A 
BRANCH  19  26
ATOM     25  C   UNL     1      -3.192  12.409  22.958  0.00  0.00    +0.000 C 
ATOM     26  O   UNL     1      -1.917  12.013  23.445  0.00  0.00    +0.000 OA
ENDBRANCH  19  26
ENDBRANCH  15  22
ENDBRANCH   1  16
TORSDOF 3
ENDMDL
MODEL 5
REMARK VINA RESULT:      -7.5      2.317      3.830
REMARK  Name = 
REMARK  4 active torsions:
REMARK  status: ('A' for Active; 'I' for Inactive)
REMARK    1  A    between atoms: C_1  and  O_2
REMARK    2  A    between atoms: O_2  and  C_3
REMARK    3  A    between atoms: C_6  and  N_7
REMARK    4  A    between atoms: C_8  and  C_10
REMARK                            x       y       z     vdW  Elec       q    Type
REMARK                         _______ _______ _______ _____ _____    ______ ____
ROOT
ATOM      1  C   UNL     1       2.278   6.668  19.640  0.00  0.00    +0.000 C 
ATOM      2  C   UNL     1       3.305   5.949  19.161  0.00  0.00    +0.000 C 
ATOM      3  C   UNL     1       4.120   5.912  17.962  0.00  0.00    +0.000 A 
ATOM      4  C   UNL     1       4.795   6.913  17.289  0.00  0.00    +0.000 A 
ATOM      5  C   UNL     1       5.479   6.589  16.115  0.00  0.00    +0.000 A 
ATOM      6  C   UNL     1       5.461   5.276  15.613  0.00  0.00    +0.000 A 
ATOM      7  C   UNL     1       4.862   4.244  16.341  0.00  0.00    +0.000 A 
ATOM      8  C   UNL     1       4.251   4.589  17.534  0.00  0.00    +0.000 A 
ATOM      9  S   UNL     1       3.718   3.498  18.816  0.00  0.00    +0.000 S 
ATOM     10  O   UNL     1       4.853   2.732  19.274  0.00  0.00    +0.000 OA
ATOM     11  O   UNL     1       2.458   2.899  18.414  0.00  0.00    +0.000 OA
ATOM     12  N   UNL     1       3.409   4.754  19.922  0.00  0.00    +0.000 N 
ATOM     13  C   UNL     1       2.425   4.702  20.996  0.00  0.00    +0.000 C 
ATOM     14  C   UNL     1       1.616   5.997  20.805  0.00  0.00    +0.000 C 
ENDROOT
BRANCH   1  16
ATOM     15  N   UNL     1       1.284   8.897  19.810  0.00  0.00    +0.000 N 
ATOM     16  C   UNL     1       1.818   7.922  18.992  0.00  0.00    +0.000 C 
ATOM     17  O   UNL     1       1.970   8.032  17.781  0.00  0.00    +0.000 OA
ATOM     18  H   UNL     1       1.181   8.706  20.796  0.00  0.00    +0.000 HD
BRANCH  15  22
ATOM     19  C   UNL     1      -0.143  12.712  18.559  0.00  0.00    +0.000 A 
ATOM     20  C   UNL     1       1.220  12.498  18.721  0.00  0.00    +0.000 A 
ATOM     21  C   UNL     1       1.703  11.247  19.111  0.00  0.00    +0.000 A 
ATOM     22  C   UNL     1       0.839  10.181  19.374  0.00  0.00    +0.000 A 
ATOM     23  C   UNL     1      -0.536  10.402  19.213  0.00  0.00    +0.000 A 
ATOM     24  C   UNL     1      -1.019  11.664  18.818  0.00  0.00    +0.000 A 
BRANCH  19  26
ATOM     25  C   UNL     1       0.173  15.028  18.904  0.00  0.00    +0.000 C 
ATOM     26  O   UNL     1      -0.482  13.984  18.196  0.00  0.00    +0.000 OA
ENDBRANCH  19  26
ENDBRANCH  15  22
ENDBRANCH   1  16
TORSDOF 3
ENDMDL
MODEL 6
REMARK VINA RESULT:      -7.5      1.420      1.451
REMARK  Name = 
REMARK  4 active torsions:
REMARK  status: ('A' for Active; 'I' for Inactive)
REMARK    1  A    between atoms: C_1  and  O_2
REMARK    2  A    between atoms: O_2  and  C_3
REMARK    3  A    between atoms: C_6  and  N_7
REMARK    4  A    between atoms: C_8  and  C_10
REMARK                            x       y       z     vdW  Elec       q    Type
REMARK                         _______ _______ _______ _____ _____    ______ ____
ROOT
ATOM      1  C   UNL     1       3.203   6.834  18.314  0.00  0.00    +0.000 C 
ATOM      2  C   UNL     1       3.210   5.581  17.832  0.00  0.00    +0.000 C 
ATOM      3  C   UNL     1       2.672   4.287  18.206  0.00  0.00    +0.000 A 
ATOM      4  C   UNL     1       1.395   3.904  18.572  0.00  0.00    +0.000 A 
ATOM      5  C   UNL     1       1.170   2.572  18.926  0.00  0.00    +0.000 A 
ATOM      6  C   UNL     1       2.226   1.643  18.933  0.00  0.00    +0.000 A 
ATOM      7  C   UNL     1       3.495   2.005  18.471  0.00  0.00    +0.000 A 
ATOM      8  C   UNL     1       3.665   3.317  18.064  0.00  0.00    +0.000 A 
ATOM      9  S   UNL     1       5.013   3.980  17.136  0.00  0.00    +0.000 S 
ATOM     10  O   UNL     1       5.110   3.267  15.885  0.00  0.00    +0.000 OA
ATOM     11  O   UNL     1       6.136   4.177  18.035  0.00  0.00    +0.000 OA
ATOM     12  N   UNL     1       4.248   5.477  16.868  0.00  0.00    +0.000 N 
ATOM     13  C   UNL     1       4.935   6.745  16.665  0.00  0.00    +0.000 C 
ATOM     14  C   UNL     1       4.251   7.690  17.670  0.00  0.00    +0.000 C 
ENDROOT
BRANCH   1  16
ATOM     15  N   UNL     1       1.917   8.570  19.461  0.00  0.00    +0.000 N 
ATOM     16  C   UNL     1       2.317   7.250  19.429  0.00  0.00    +0.000 C 
ATOM     17  O   UNL     1       1.966   6.394  20.233  0.00  0.00    +0.000 OA
ATOM     18  H   UNL     1       2.275   9.207  18.764  0.00  0.00    +0.000 HD
BRANCH  15  22
ATOM     19  C   UNL     1      -0.656  10.249  22.413  0.00  0.00    +0.000 A 
ATOM     20  C   UNL     1      -0.841  10.560  21.072  0.00  0.00    +0.000 A 
ATOM     21  C   UNL     1      -0.018  10.001  20.091  0.00  0.00    +0.000 A 
ATOM     22  C   UNL     1       1.028   9.136  20.423  0.00  0.00    +0.000 A 
ATOM     23  C   UNL     1       1.213   8.828  21.779  0.00  0.00    +0.000 A 
ATOM     24  C   UNL     1       0.381   9.392  22.764  0.00  0.00    +0.000 A 
BRANCH  19  26
ATOM     25  C   UNL     1      -1.623  12.287  23.114  0.00  0.00    +0.000 C 
ATOM     26  O   UNL     1      -1.514  10.879  23.269  0.00  0.00    +0.000 OA
ENDBRANCH  19  26
ENDBRANCH  15  22
ENDBRANCH   1  16
TORSDOF 3
ENDMDL
MODEL 7
REMARK VINA RESULT:      -7.5      2.055      2.323
REMARK  Name = 
REMARK  4 active torsions:
REMARK  status: ('A' for Active; 'I' for Inactive)
REMARK    1  A    between atoms: C_1  and  O_2
REMARK    2  A    between atoms: O_2  and  C_3
REMARK    3  A    between atoms: C_6  and  N_7
REMARK    4  A    between atoms: C_8  and  C_10
REMARK                            x       y       z     vdW  Elec       q    Type
REMARK                         _______ _______ _______ _____ _____    ______ ____
ROOT
ATOM      1  C   UNL     1       3.583   7.087  17.655  0.00  0.00    +0.000 C 
ATOM      2  C   UNL     1       3.561   5.766  17.418  0.00  0.00    +0.000 C 
ATOM      3  C   UNL     1       2.800   4.612  17.859  0.00  0.00    +0.000 A 
ATOM      4  C   UNL     1       1.438   4.398  17.939  0.00  0.00    +0.000 A 
ATOM      5  C   UNL     1       0.979   3.181  18.449  0.00  0.00    +0.000 A 
ATOM      6  C   UNL     1       1.885   2.202  18.895  0.00  0.00    +0.000 A 
ATOM      7  C   UNL     1       3.262   2.378  18.726  0.00  0.00    +0.000 A 
ATOM      8  C   UNL     1       3.678   3.568  18.155  0.00  0.00    +0.000 A 
ATOM      9  S   UNL     1       5.279   3.940  17.511  0.00  0.00    +0.000 S 
ATOM     10  O   UNL     1       5.595   2.987  16.474  0.00  0.00    +0.000 OA
ATOM     11  O   UNL     1       6.165   4.234  18.624  0.00  0.00    +0.000 OA
ATOM     12  N   UNL     1       4.783   5.401  16.794  0.00  0.00    +0.000 N 
ATOM     13  C   UNL     1       5.643   6.555  16.560  0.00  0.00    +0.000 C 
ATOM     14  C   UNL     1       4.849   7.724  17.169  0.00  0.00    +0.000 C 
ENDROOT
BRANCH   1  16
ATOM     15  N   UNL     1       1.920   8.875  17.813  0.00  0.00    +0.000 N 
ATOM     16  C   UNL     1       2.506   7.776  18.409  0.00  0.00    +0.000 C 
ATOM     17  O   UNL     1       2.178   7.312  19.494  0.00  0.00    +0.000 OA
ATOM     18  H   UNL     1       2.273   9.195  16.923  0.00  0.00    +0.000 HD
BRANCH  15  22
ATOM     19  C   UNL     1      -1.231  11.190  19.505  0.00  0.00    +0.000 A 
ATOM     20  C   UNL     1      -1.440  10.491  18.323  0.00  0.00    +0.000 A 
ATOM     21  C   UNL     1      -0.422   9.712  17.768  0.00  0.00    +0.000 A 
ATOM     22  C   UNL     1       0.840   9.628  18.363  0.00  0.00    +0.000 A 
ATOM     23  C   UNL     1       1.047  10.339  19.554  0.00  0.00    +0.000 A 
ATOM     24  C   UNL     1       0.018  11.121  20.111  0.00  0.00    +0.000 A 
BRANCH  19  26
ATOM     25  C   UNL     1      -3.419  11.959  19.053  0.00  0.00    +0.000 C 
ATOM     26  O   UNL     1      -2.300  11.929  19.928  0.00  0.00    +0.000 OA
ENDBRANCH  19  26
ENDBRANCH  15  22
ENDBRANCH   1  16
TORSDOF 3
ENDMDL
MODEL 8
REMARK VINA RESULT:      -7.4      1.892      2.135
REMARK  Name = 
REMARK  4 active torsions:
REMARK  status: ('A' for Active; 'I' for Inactive)
REMARK    1  A    between atoms: C_1  and  O_2
REMARK    2  A    between atoms: O_2  and  C_3
REMARK    3  A    between atoms: C_6  and  N_7
REMARK    4  A    between atoms: C_8  and  C_10
REMARK                            x       y       z     vdW  Elec       q    Type
REMARK                         _______ _______ _______ _____ _____    ______ ____
ROOT
ATOM      1  C   UNL     1       3.605   7.090  17.655  0.00  0.00    +0.000 C 
ATOM      2  C   UNL     1       3.565   5.769  17.419  0.00  0.00    +0.000 C 
ATOM      3  C   UNL     1       2.799   4.623  17.873  0.00  0.00    +0.000 A 
ATOM      4  C   UNL     1       1.435   4.424  17.976  0.00  0.00    +0.000 A 
ATOM      5  C   UNL     1       0.972   3.212  18.493  0.00  0.00    +0.000 A 
ATOM      6  C   UNL     1       1.874   2.224  18.925  0.00  0.00    +0.000 A 
ATOM      7  C   UNL     1       3.250   2.384  18.732  0.00  0.00    +0.000 A 
ATOM      8  C   UNL     1       3.670   3.569  18.154  0.00  0.00    +0.000 A 
ATOM      9  S   UNL     1       5.264   3.924  17.483  0.00  0.00    +0.000 S 
ATOM     10  O   UNL     1       5.552   2.967  16.441  0.00  0.00    +0.000 OA
ATOM     11  O   UNL     1       6.171   4.208  18.582  0.00  0.00    +0.000 OA
ATOM     12  N   UNL     1       4.772   5.391  16.774  0.00  0.00    +0.000 N 
ATOM     13  C   UNL     1       5.641   6.534  16.526  0.00  0.00    +0.000 C 
ATOM     14  C   UNL     1       4.870   7.713  17.148  0.00  0.00    +0.000 C 
ENDROOT
BRANCH   1  16
ATOM     15  N   UNL     1       1.999   8.924  17.862  0.00  0.00    +0.000 N 
ATOM     16  C   UNL     1       2.549   7.791  18.426  0.00  0.00    +0.000 C 
ATOM     17  O   UNL     1       2.204   7.306  19.498  0.00  0.00    +0.000 OA
ATOM     18  H   UNL     1       2.364   9.257  16.981  0.00  0.00    +0.000 HD
BRANCH  15  22
ATOM     19  C   UNL     1      -1.233  11.155  19.512  0.00  0.00    +0.000 A 
ATOM     20  C   UNL     1       0.014  11.183  20.124  0.00  0.00    +0.000 A 
ATOM     21  C   UNL     1       1.088  10.472  19.582  0.00  0.00    +0.000 A 
ATOM     22  C   UNL     1       0.941   9.695  18.430  0.00  0.00    +0.000 A 
ATOM     23  C   UNL     1      -0.320   9.667  17.818  0.00  0.00    +0.000 A 
ATOM     24  C   UNL     1      -1.399  10.386  18.366  0.00  0.00    +0.000 A 
BRANCH  19  26
ATOM     25  C   UNL     1      -1.902  12.264  21.488  0.00  0.00    +0.000 C 
ATOM     26  O   UNL     1      -2.200  11.874  20.155  0.00  0.00    +0.000 OA
ENDBRANCH  19  26
ENDBRANCH  15  22
ENDBRANCH   1  16
TORSDOF 3
ENDMDL
MODEL 9
REMARK VINA RESULT:      -7.4      3.014      8.011
REMARK  Name = 
REMARK  4 active torsions:
REMARK  status: ('A' for Active; 'I' for Inactive)
REMARK    1  A    between atoms: C_1  and  O_2
REMARK    2  A    between atoms: O_2  and  C_3
REMARK    3  A    between atoms: C_6  and  N_7
REMARK    4  A    between atoms: C_8  and  C_10
REMARK                            x       y       z     vdW  Elec       q    Type
REMARK                         _______ _______ _______ _____ _____    ______ ____
ROOT
ATOM      1  C   UNL     1       0.962   8.809  20.960  0.00  0.00    +0.000 C 
ATOM      2  C   UNL     1      -0.107   9.581  20.711  0.00  0.00    +0.000 C 
ATOM      3  C   UNL     1      -0.749  10.182  19.557  0.00  0.00    +0.000 A 
ATOM      4  C   UNL     1      -1.134   9.640  18.346  0.00  0.00    +0.000 A 
ATOM      5  C   UNL     1      -1.705  10.480  17.386  0.00  0.00    +0.000 A 
ATOM      6  C   UNL     1      -1.862  11.854  17.637  0.00  0.00    +0.000 A 
ATOM      7  C   UNL     1      -1.563  12.386  18.895  0.00  0.00    +0.000 A 
ATOM      8  C   UNL     1      -1.062  11.512  19.844  0.00  0.00    +0.000 A 
ATOM      9  S   UNL     1      -0.912  11.794  21.581  0.00  0.00    +0.000 S 
ATOM     10  O   UNL     1      -2.218  12.097  22.116  0.00  0.00    +0.000 OA
ATOM     11  O   UNL     1       0.260  12.620  21.812  0.00  0.00    +0.000 OA
ATOM     12  N   UNL     1      -0.527  10.173  21.932  0.00  0.00    +0.000 N 
ATOM     13  C   UNL     1       0.280   9.729  23.061  0.00  0.00    +0.000 C 
ATOM     14  C   UNL     1       1.331   8.810  22.412  0.00  0.00    +0.000 C 
ENDROOT
BRANCH   1  16
ATOM     15  N   UNL     1       2.102   6.827  20.088  0.00  0.00    +0.000 N 
ATOM     16  C   UNL     1       1.725   8.138  19.878  0.00  0.00    +0.000 C 
ATOM     17  O   UNL     1       1.945   8.772  18.852  0.00  0.00    +0.000 OA
ATOM     18  H   UNL     1       1.891   6.395  20.976  0.00  0.00    +0.000 HD
BRANCH  15  22
ATOM     19  C   UNL     1       4.062   4.365  17.217  0.00  0.00    +0.000 A 
ATOM     20  C   UNL     1       4.773   5.355  17.884  0.00  0.00    +0.000 A 
ATOM     21  C   UNL     1       4.147   6.156  18.843  0.00  0.00    +0.000 A 
ATOM     22  C   UNL     1       2.791   6.009  19.144  0.00  0.00    +0.000 A 
ATOM     23  C   UNL     1       2.078   5.011  18.466  0.00  0.00    +0.000 A 
ATOM     24  C   UNL     1       2.711   4.204  17.502  0.00  0.00    +0.000 A 
BRANCH  19  26
ATOM     25  C   UNL     1       6.090   4.164  16.022  0.00  0.00    +0.000 C 
ATOM     26  O   UNL     1       4.786   3.669  16.291  0.00  0.00    +0.000 OA
ENDBRANCH  19  26
ENDBRANCH  15  22
ENDBRANCH   1  16
TORSDOF 3
ENDMDL
