MODEL 1
REMARK VINA RESULT:      -7.3      0.000      0.000
REMARK  Name = 
REMARK  12 active torsions:
REMARK  status: ('A' for Active; 'I' for Inactive)
REMARK    1  A    between atoms: C_1  and  C_2
REMARK    2  A    between atoms: C_2  and  C_3
REMARK    3  A    between atoms: C_4  and  C_5
REMARK    4  A    between atoms: C_5  and  C_6
REMARK    5  A    between atoms: C_6  and  C_7
REMARK    6  A    between atoms: C_7  and  C_8
REMARK    7  A    between atoms: C_9  and  C_10
REMARK    8  A    between atoms: C_9  and  C_11
REMARK    9  A    between atoms: C_12  and  O_13
REMARK   10  A    between atoms: C_22  and  C_23
REMARK   11  A    between atoms: C_25  and  O_26
REMARK   12  A    between atoms: C_28  and  O_29
REMARK                            x       y       z     vdW  Elec       q    Type
REMARK                         _______ _______ _______ _____ _____    ______ ____
ROOT
ATOM      1  C   UNL     1      -0.210  12.511  19.020  0.00  0.00    +0.000 C 
ATOM      2  C   UNL     1      -1.008  13.159  20.150  0.00  0.00    +0.000 C 
ATOM      3  C   UNL     1      -1.243  12.563  21.326  0.00  0.00    +0.000 C 
ATOM      4  C   UNL     1      -0.760  11.206  21.644  0.00  0.00    +0.000 C 
ATOM      5  O   UNL     1      -1.101  10.727  22.716  0.00  0.00    +0.000 OA
ATOM      6  C   UNL     1       0.098  10.509  20.636  0.00  0.00    +0.000 A 
ATOM      7  C   UNL     1       0.378  11.136  19.408  0.00  0.00    +0.000 A 
ATOM      8  C   UNL     1       1.177  10.452  18.469  0.00  0.00    +0.000 A 
ATOM      9  C   UNL     1       1.726   9.195  18.718  0.00  0.00    +0.000 A 
ATOM     10  C   UNL     1       2.540   8.603  17.741  0.00  0.00    +0.000 A 
ATOM     11  C   UNL     1       3.139   7.360  17.945  0.00  0.00    +0.000 A 
ATOM     12  C   UNL     1       4.047   6.776  16.903  0.00  0.00    +0.000 C 
ATOM     13  C   UNL     1       2.884   6.681  19.136  0.00  0.00    +0.000 A 
ATOM     14  C   UNL     1       2.058   7.262  20.107  0.00  0.00    +0.000 A 
ATOM     15  C   UNL     1       1.463   8.543  19.937  0.00  0.00    +0.000 A 
ATOM     16  C   UNL     1       0.633   9.221  20.883  0.00  0.00    +0.000 A 
ENDROOT
BRANCH   2  17
ATOM     17  O   UNL     1      -1.573  14.411  19.947  0.00  0.00    +0.000 OA
ATOM     18  H   UNL     1      -1.233  15.047  20.602  0.00  0.00    +0.000 HD
ENDBRANCH   2  17
BRANCH  14  19
ATOM     19  O   UNL     1       1.817   6.573  21.273  0.00  0.00    +0.000 OA
ATOM     20  H   UNL     1       0.884   6.293  21.280  0.00  0.00    +0.000 HD
ENDBRANCH  14  19
BRANCH  16  21
ATOM     21  O   UNL     1       0.347   8.597  22.075  0.00  0.00    +0.000 OA
ATOM     22  H   UNL     1       0.674   9.167  22.798  0.00  0.00    +0.000 HD
ENDBRANCH  16  21
BRANCH   1  23
ATOM     23  C   UNL     1       0.957  13.484  18.589  0.00  0.00    +0.000 C 
BRANCH  23  27
ATOM     24  C   UNL     1       4.034  14.664  20.709  0.00  0.00    +0.000 C 
ATOM     25  C   UNL     1       3.212  14.257  19.514  0.00  0.00    +0.000 C 
ATOM     26  C   UNL     1       3.842  14.444  18.164  0.00  0.00    +0.000 C 
ATOM     27  C   UNL     1       1.961  13.784  19.685  0.00  0.00    +0.000 C 
ENDBRANCH  23  27
ENDBRANCH   1  23
BRANCH   1  28
ATOM     28  C   UNL     1      -1.178  12.289  17.799  0.00  0.00    +0.000 C 
BRANCH  28  29
ATOM     29  C   UNL     1      -2.271  11.271  18.063  0.00  0.00    +0.000 C 
ATOM     30  C   UNL     1      -2.872  10.443  17.188  0.00  0.00    +0.000 C 
ATOM     31  C   UNL     1      -2.609  10.394  15.710  0.00  0.00    +0.000 C 
ATOM     32  C   UNL     1      -3.890   9.438  17.668  0.00  0.00    +0.000 C 
ENDBRANCH  28  29
ENDBRANCH   1  28
TORSDOF 7
ENDMDL
MODEL 2
REMARK VINA RESULT:      -7.0      1.032      1.267
REMARK  Name = 
REMARK  12 active torsions:
REMARK  status: ('A' for Active; 'I' for Inactive)
REMARK    1  A    between atoms: C_1  and  C_2
REMARK    2  A    between atoms: C_2  and  C_3
REMARK    3  A    between atoms: C_4  and  C_5
REMARK    4  A    between atoms: C_5  and  C_6
REMARK    5  A    between atoms: C_6  and  C_7
REMARK    6  A    between atoms: C_7  and  C_8
REMARK    7  A    between atoms: C_9  and  C_10
REMARK    8  A    between atoms: C_9  and  C_11
REMARK    9  A    between atoms: C_12  and  O_13
REMARK   10  A    between atoms: C_22  and  C_23
REMARK   11  A    between atoms: C_25  and  O_26
REMARK   12  A    between atoms: C_28  and  O_29
REMARK                            x       y       z     vdW  Elec       q    Type
REMARK                         _______ _______ _______ _____ _____    ______ ____
ROOT
ATOM      1  C   UNL     1       0.328  11.474  18.999  0.00  0.00    +0.000 C 
ATOM      2  C   UNL     1      -0.483  11.986  20.187  0.00  0.00    +0.000 C 
ATOM      3  C   UNL     1      -0.671  11.285  21.312  0.00  0.00    +0.000 C 
ATOM      4  C   UNL     1      -0.115   9.933  21.513  0.00  0.00    +0.000 C 
ATOM      5  O   UNL     1      -0.416   9.350  22.545  0.00  0.00    +0.000 OA
ATOM      6  C   UNL     1       0.760   9.364  20.441  0.00  0.00    +0.000 A 
ATOM      7  C   UNL     1       0.989  10.103  19.265  0.00  0.00    +0.000 A 
ATOM      8  C   UNL     1       1.808   9.540  18.265  0.00  0.00    +0.000 A 
ATOM      9  C   UNL     1       2.422   8.296  18.403  0.00  0.00    +0.000 A 
ATOM     10  C   UNL     1       3.249   7.828  17.371  0.00  0.00    +0.000 A 
ATOM     11  C   UNL     1       3.912   6.604  17.465  0.00  0.00    +0.000 A 
ATOM     12  C   UNL     1       4.832   6.155  16.369  0.00  0.00    +0.000 C 
ATOM     13  C   UNL     1       3.709   5.818  18.599  0.00  0.00    +0.000 A 
ATOM     14  C   UNL     1       2.871   6.275  19.624  0.00  0.00    +0.000 A 
ATOM     15  C   UNL     1       2.211   7.534  19.566  0.00  0.00    +0.000 A 
ATOM     16  C   UNL     1       1.362   8.090  20.574  0.00  0.00    +0.000 A 
ENDROOT
BRANCH   2  17
ATOM     17  O   UNL     1      -1.113  13.220  20.094  0.00  0.00    +0.000 OA
ATOM     18  H   UNL     1      -0.459  13.940  20.159  0.00  0.00    +0.000 HD
ENDBRANCH   2  17
BRANCH  14  19
ATOM     19  O   UNL     1       2.682   5.482  20.732  0.00  0.00    +0.000 OA
ATOM     20  H   UNL     1       3.413   5.643  21.355  0.00  0.00    +0.000 HD
ENDBRANCH  14  19
BRANCH  16  21
ATOM     21  O   UNL     1       1.126   7.357  21.714  0.00  0.00    +0.000 OA
ATOM     22  H   UNL     1       0.160   7.232  21.797  0.00  0.00    +0.000 HD
ENDBRANCH  16  21
BRANCH   1  23
ATOM     23  C   UNL     1       1.439  12.537  18.636  0.00  0.00    +0.000 C 
BRANCH  23  27
ATOM     24  C   UNL     1       3.058  14.636  21.522  0.00  0.00    +0.000 C 
ATOM     25  C   UNL     1       2.359  14.315  20.227  0.00  0.00    +0.000 C 
ATOM     26  C   UNL     1       1.786  15.473  19.462  0.00  0.00    +0.000 C 
ATOM     27  C   UNL     1       2.243  13.034  19.822  0.00  0.00    +0.000 C 
ENDBRANCH  23  27
ENDBRANCH   1  23
BRANCH   1  28
ATOM     28  C   UNL     1      -0.646  11.303  17.775  0.00  0.00    +0.000 C 
BRANCH  28  29
ATOM     29  C   UNL     1      -1.934  10.579  18.116  0.00  0.00    +0.000 C 
ATOM     30  C   UNL     1      -2.818  10.003  17.278  0.00  0.00    +0.000 C 
ATOM     31  C   UNL     1      -2.728  10.006  15.779  0.00  0.00    +0.000 C 
ATOM     32  C   UNL     1      -4.009   9.256  17.825  0.00  0.00    +0.000 C 
ENDBRANCH  28  29
ENDBRANCH   1  28
TORSDOF 7
ENDMDL
MODEL 3
REMARK VINA RESULT:      -6.9      1.069      1.119
REMARK  Name = 
REMARK  12 active torsions:
REMARK  status: ('A' for Active; 'I' for Inactive)
REMARK    1  A    between atoms: C_1  and  C_2
REMARK    2  A    between atoms: C_2  and  C_3
REMARK    3  A    between atoms: C_4  and  C_5
REMARK    4  A    between atoms: C_5  and  C_6
REMARK    5  A    between atoms: C_6  and  C_7
REMARK    6  A    between atoms: C_7  and  C_8
REMARK    7  A    between atoms: C_9  and  C_10
REMARK    8  A    between atoms: C_9  and  C_11
REMARK    9  A    between atoms: C_12  and  O_13
REMARK   10  A    between atoms: C_22  and  C_23
REMARK   11  A    between atoms: C_25  and  O_26
REMARK   12  A    between atoms: C_28  and  O_29
REMARK                            x       y       z     vdW  Elec       q    Type
REMARK                         _______ _______ _______ _____ _____    ______ ____
ROOT
ATOM      1  C   UNL     1      -1.104  12.466  19.120  0.00  0.00    +0.000 C 
ATOM      2  C   UNL     1      -1.880  13.088  20.280  0.00  0.00    +0.000 C 
ATOM      3  C   UNL     1      -1.938  12.549  21.504  0.00  0.00    +0.000 C 
ATOM      4  C   UNL     1      -1.261  11.285  21.854  0.00  0.00    +0.000 C 
ATOM      5  O   UNL     1      -1.447  10.841  22.978  0.00  0.00    +0.000 OA
ATOM      6  C   UNL     1      -0.410  10.630  20.812  0.00  0.00    +0.000 A 
ATOM      7  C   UNL     1      -0.316  11.202  19.529  0.00  0.00    +0.000 A 
ATOM      8  C   UNL     1       0.483  10.559  18.562  0.00  0.00    +0.000 A 
ATOM      9  C   UNL     1       1.206   9.397  18.830  0.00  0.00    +0.000 A 
ATOM     10  C   UNL     1       2.003   8.844  17.818  0.00  0.00    +0.000 A 
ATOM     11  C   UNL     1       2.770   7.699  18.036  0.00  0.00    +0.000 A 
ATOM     12  C   UNL     1       3.654   7.161  16.950  0.00  0.00    +0.000 C 
ATOM     13  C   UNL     1       2.704   7.076  19.282  0.00  0.00    +0.000 A 
ATOM     14  C   UNL     1       1.895   7.617  20.290  0.00  0.00    +0.000 A 
ATOM     15  C   UNL     1       1.131   8.802  20.103  0.00  0.00    +0.000 A 
ATOM     16  C   UNL     1       0.303   9.437  21.081  0.00  0.00    +0.000 A 
ENDROOT
BRANCH   2  17
ATOM     17  O   UNL     1      -2.614  14.245  20.059  0.00  0.00    +0.000 OA
ATOM     18  H   UNL     1      -3.366  14.293  20.677  0.00  0.00    +0.000 HD
ENDBRANCH   2  17
BRANCH  14  19
ATOM     19  O   UNL     1       1.843   6.985  21.511  0.00  0.00    +0.000 OA
ATOM     20  H   UNL     1       1.693   7.656  22.200  0.00  0.00    +0.000 HD
ENDBRANCH  14  19
BRANCH  16  21
ATOM     21  O   UNL     1       0.200   8.865  22.328  0.00  0.00    +0.000 OA
ATOM     22  H   UNL     1      -0.347   9.453  22.884  0.00  0.00    +0.000 HD
ENDBRANCH  16  21
BRANCH   1  23
ATOM     23  C   UNL     1      -0.110  13.543  18.529  0.00  0.00    +0.000 C 
BRANCH  23  27
ATOM     24  C   UNL     1       3.216  14.583  20.320  0.00  0.00    +0.000 C 
ATOM     25  C   UNL     1       2.285  13.914  19.343  0.00  0.00    +0.000 C 
ATOM     26  C   UNL     1       2.921  13.181  18.197  0.00  0.00    +0.000 C 
ATOM     27  C   UNL     1       0.950  14.019  19.503  0.00  0.00    +0.000 C 
ENDBRANCH  23  27
ENDBRANCH   1  23
BRANCH   1  28
ATOM     28  C   UNL     1      -2.135  12.046  18.008  0.00  0.00    +0.000 C 
BRANCH  28  29
ATOM     29  C   UNL     1      -3.423  11.463  18.558  0.00  0.00    +0.000 C 
ATOM     30  C   UNL     1      -4.632  11.403  17.969  0.00  0.00    +0.000 C 
ATOM     31  C   UNL     1      -4.975  11.968  16.620  0.00  0.00    +0.000 C 
ATOM     32  C   UNL     1      -5.780  10.705  18.656  0.00  0.00    +0.000 C 
ENDBRANCH  28  29
ENDBRANCH   1  28
TORSDOF 7
ENDMDL
MODEL 4
REMARK VINA RESULT:      -6.8      1.684      6.031
REMARK  Name = 
REMARK  12 active torsions:
REMARK  status: ('A' for Active; 'I' for Inactive)
REMARK    1  A    between atoms: C_1  and  C_2
REMARK    2  A    between atoms: C_2  and  C_3
REMARK    3  A    between atoms: C_4  and  C_5
REMARK    4  A    between atoms: C_5  and  C_6
REMARK    5  A    between atoms: C_6  and  C_7
REMARK    6  A    between atoms: C_7  and  C_8
REMARK    7  A    between atoms: C_9  and  C_10
REMARK    8  A    between atoms: C_9  and  C_11
REMARK    9  A    between atoms: C_12  and  O_13
REMARK   10  A    between atoms: C_22  and  C_23
REMARK   11  A    between atoms: C_25  and  O_26
REMARK   12  A    between atoms: C_28  and  O_29
REMARK                            x       y       z     vdW  Elec       q    Type
REMARK                         _______ _______ _______ _____ _____    ______ ____
ROOT
ATOM      1  C   UNL     1       0.547  10.344  19.776  0.00  0.00    +0.000 C 
ATOM      2  C   UNL     1       0.640  10.795  21.233  0.00  0.00    +0.000 C 
ATOM      3  C   UNL     1      -0.309  11.512  21.847  0.00  0.00    +0.000 C 
ATOM      4  C   UNL     1      -1.544  11.949  21.170  0.00  0.00    +0.000 C 
ATOM      5  O   UNL     1      -2.305  12.668  21.800  0.00  0.00    +0.000 OA
ATOM      6  C   UNL     1      -1.773  11.497  19.762  0.00  0.00    +0.000 A 
ATOM      7  C   UNL     1      -0.797  10.719  19.113  0.00  0.00    +0.000 A 
ATOM      8  C   UNL     1      -1.031  10.316  17.783  0.00  0.00    +0.000 A 
ATOM      9  C   UNL     1      -2.200  10.633  17.092  0.00  0.00    +0.000 A 
ATOM     10  C   UNL     1      -2.364  10.162  15.782  0.00  0.00    +0.000 A 
ATOM     11  C   UNL     1      -3.524  10.423  15.051  0.00  0.00    +0.000 A 
ATOM     12  C   UNL     1      -3.694   9.861  13.671  0.00  0.00    +0.000 C 
ATOM     13  C   UNL     1      -4.520  11.206  15.634  0.00  0.00    +0.000 A 
ATOM     14  C   UNL     1      -4.351  11.693  16.937  0.00  0.00    +0.000 A 
ATOM     15  C   UNL     1      -3.193  11.412  17.714  0.00  0.00    +0.000 A 
ATOM     16  C   UNL     1      -2.951  11.842  19.056  0.00  0.00    +0.000 A 
ENDROOT
BRANCH   2  17
ATOM     17  O   UNL     1       1.786  10.501  21.959  0.00  0.00    +0.000 OA
ATOM     18  H   UNL     1       1.721   9.611  22.351  0.00  0.00    +0.000 HD
ENDBRANCH   2  17
BRANCH  14  19
ATOM     19  O   UNL     1      -5.345  12.466  17.492  0.00  0.00    +0.000 OA
ATOM     20  H   UNL     1      -5.826  12.913  16.773  0.00  0.00    +0.000 HD
ENDBRANCH  14  19
BRANCH  16  21
ATOM     21  O   UNL     1      -3.899  12.619  19.679  0.00  0.00    +0.000 OA
ATOM     22  H   UNL     1      -4.562  12.879  19.011  0.00  0.00    +0.000 HD
ENDBRANCH  16  21
BRANCH   1  23
ATOM     23  C   UNL     1       0.755   8.779  19.707  0.00  0.00    +0.000 C 
BRANCH  23  27
ATOM     24  C   UNL     1       3.574   6.791  17.848  0.00  0.00    +0.000 C 
ATOM     25  C   UNL     1       2.545   7.147  18.889  0.00  0.00    +0.000 C 
ATOM     26  C   UNL     1       2.248   6.106  19.929  0.00  0.00    +0.000 C 
ATOM     27  C   UNL     1       1.916   8.338  18.837  0.00  0.00    +0.000 C 
ENDBRANCH  23  27
ENDBRANCH   1  23
BRANCH   1  28
ATOM     28  C   UNL     1       1.693  11.056  18.967  0.00  0.00    +0.000 C 
BRANCH  28  29
ATOM     29  C   UNL     1       1.412  12.514  18.663  0.00  0.00    +0.000 C 
ATOM     30  C   UNL     1       1.871  13.606  19.303  0.00  0.00    +0.000 C 
ATOM     31  C   UNL     1       2.746  13.599  20.524  0.00  0.00    +0.000 C 
ATOM     32  C   UNL     1       1.535  14.986  18.792  0.00  0.00    +0.000 C 
ENDBRANCH  28  29
ENDBRANCH   1  28
TORSDOF 7
ENDMDL
MODEL 5
REMARK VINA RESULT:      -6.8      2.819      5.732
REMARK  Name = 
REMARK  12 active torsions:
REMARK  status: ('A' for Active; 'I' for Inactive)
REMARK    1  A    between atoms: C_1  and  C_2
REMARK    2  A    between atoms: C_2  and  C_3
REMARK    3  A    between atoms: C_4  and  C_5
REMARK    4  A    between atoms: C_5  and  C_6
REMARK    5  A    between atoms: C_6  and  C_7
REMARK    6  A    between atoms: C_7  and  C_8
REMARK    7  A    between atoms: C_9  and  C_10
REMARK    8  A    between atoms: C_9  and  C_11
REMARK    9  A    between atoms: C_12  and  O_13
REMARK   10  A    between atoms: C_22  and  C_23
REMARK   11  A    between atoms: C_25  and  O_26
REMARK   12  A    between atoms: C_28  and  O_29
REMARK                            x       y       z     vdW  Elec       q    Type
REMARK                         _______ _______ _______ _____ _____    ______ ____
ROOT
ATOM      1  C   UNL     1       0.269  13.426  20.321  0.00  0.00    +0.000 C 
ATOM      2  C   UNL     1       0.199  13.957  21.751  0.00  0.00    +0.000 C 
ATOM      3  C   UNL     1      -0.934  14.020  22.463  0.00  0.00    +0.000 C 
ATOM      4  C   UNL     1      -2.238  13.587  21.927  0.00  0.00    +0.000 C 
ATOM      5  O   UNL     1      -3.221  13.763  22.632  0.00  0.00    +0.000 OA
ATOM      6  C   UNL     1      -2.272  12.978  20.560  0.00  0.00    +0.000 A 
ATOM      7  C   UNL     1      -1.084  12.880  19.813  0.00  0.00    +0.000 A 
ATOM      8  C   UNL     1      -1.144  12.314  18.523  0.00  0.00    +0.000 A 
ATOM      9  C   UNL     1      -2.326  11.822  17.968  0.00  0.00    +0.000 A 
ATOM     10  C   UNL     1      -2.287  11.244  16.692  0.00  0.00    +0.000 A 
ATOM     11  C   UNL     1      -3.431  10.710  16.097  0.00  0.00    +0.000 A 
ATOM     12  C   UNL     1      -3.348  10.050  14.753  0.00  0.00    +0.000 C 
ATOM     13  C   UNL     1      -4.643  10.795  16.782  0.00  0.00    +0.000 A 
ATOM     14  C   UNL     1      -4.687  11.387  18.050  0.00  0.00    +0.000 A 
ATOM     15  C   UNL     1      -3.529  11.908  18.691  0.00  0.00    +0.000 A 
ATOM     16  C   UNL     1      -3.478  12.503  19.991  0.00  0.00    +0.000 A 
ENDROOT
BRANCH   2  17
ATOM     17  O   UNL     1       1.351  14.457  22.344  0.00  0.00    +0.000 OA
ATOM     18  H   UNL     1       2.048  14.585  21.675  0.00  0.00    +0.000 HD
ENDBRANCH   2  17
BRANCH  14  19
ATOM     19  O   UNL     1      -5.894  11.463  18.707  0.00  0.00    +0.000 OA
ATOM     20  H   UNL     1      -6.216  10.559  18.868  0.00  0.00    +0.000 HD
ENDBRANCH  14  19
BRANCH  16  21
ATOM     21  O   UNL     1      -4.644  12.613  20.711  0.00  0.00    +0.000 OA
ATOM     22  H   UNL     1      -5.055  13.471  20.488  0.00  0.00    +0.000 HD
ENDBRANCH  16  21
BRANCH   1  23
ATOM     23  C   UNL     1       1.362  12.288  20.247  0.00  0.00    +0.000 C 
BRANCH  23  27
ATOM     24  C   UNL     1       0.674   8.569  21.270  0.00  0.00    +0.000 C 
ATOM     25  C   UNL     1       0.907   9.777  20.401  0.00  0.00    +0.000 C 
ATOM     26  C   UNL     1       1.084   9.528  18.931  0.00  0.00    +0.000 C 
ATOM     27  C   UNL     1       0.980  11.004  20.956  0.00  0.00    +0.000 C 
ENDBRANCH  23  27
ENDBRANCH   1  23
BRANCH   1  28
ATOM     28  C   UNL     1       0.689  14.612  19.376  0.00  0.00    +0.000 C 
BRANCH  28  29
ATOM     29  C   UNL     1      -0.368  15.690  19.241  0.00  0.00    +0.000 C 
ATOM     30  C   UNL     1      -0.273  16.883  18.624  0.00  0.00    +0.000 C 
ATOM     31  C   UNL     1       0.961  17.429  17.964  0.00  0.00    +0.000 C 
ATOM     32  C   UNL     1      -1.476  17.790  18.530  0.00  0.00    +0.000 C 
ENDBRANCH  28  29
ENDBRANCH   1  28
TORSDOF 7
ENDMDL
MODEL 6
REMARK VINA RESULT:      -6.7      2.666      5.859
REMARK  Name = 
REMARK  12 active torsions:
REMARK  status: ('A' for Active; 'I' for Inactive)
REMARK    1  A    between atoms: C_1  and  C_2
REMARK    2  A    between atoms: C_2  and  C_3
REMARK    3  A    between atoms: C_4  and  C_5
REMARK    4  A    between atoms: C_5  and  C_6
REMARK    5  A    between atoms: C_6  and  C_7
REMARK    6  A    between atoms: C_7  and  C_8
REMARK    7  A    between atoms: C_9  and  C_10
REMARK    8  A    between atoms: C_9  and  C_11
REMARK    9  A    between atoms: C_12  and  O_13
REMARK   10  A    between atoms: C_22  and  C_23
REMARK   11  A    between atoms: C_25  and  O_26
REMARK   12  A    between atoms: C_28  and  O_29
REMARK                            x       y       z     vdW  Elec       q    Type
REMARK                         _______ _______ _______ _____ _____    ______ ____
ROOT
ATOM      1  C   UNL     1       0.350  13.412  20.310  0.00  0.00    +0.000 C 
ATOM      2  C   UNL     1       0.307  13.955  21.737  0.00  0.00    +0.000 C 
ATOM      3  C   UNL     1      -0.815  14.043  22.461  0.00  0.00    +0.000 C 
ATOM      4  C   UNL     1      -2.134  13.628  21.945  0.00  0.00    +0.000 C 
ATOM      5  O   UNL     1      -3.105  13.827  22.661  0.00  0.00    +0.000 OA
ATOM      6  C   UNL     1      -2.195  13.010  20.584  0.00  0.00    +0.000 A 
ATOM      7  C   UNL     1      -1.018  12.885  19.823  0.00  0.00    +0.000 A 
ATOM      8  C   UNL     1      -1.104  12.311  18.538  0.00  0.00    +0.000 A 
ATOM      9  C   UNL     1      -2.301  11.836  18.002  0.00  0.00    +0.000 A 
ATOM     10  C   UNL     1      -2.288  11.247  16.729  0.00  0.00    +0.000 A 
ATOM     11  C   UNL     1      -3.448  10.728  16.153  0.00  0.00    +0.000 A 
ATOM     12  C   UNL     1      -3.394  10.057  14.813  0.00  0.00    +0.000 C 
ATOM     13  C   UNL     1      -4.650  10.840  16.852  0.00  0.00    +0.000 A 
ATOM     14  C   UNL     1      -4.669  11.443  18.116  0.00  0.00    +0.000 A 
ATOM     15  C   UNL     1      -3.494  11.948  18.739  0.00  0.00    +0.000 A 
ATOM     16  C   UNL     1      -3.416  12.552  20.033  0.00  0.00    +0.000 A 
ENDROOT
BRANCH   2  17
ATOM     17  O   UNL     1       1.475  14.439  22.311  0.00  0.00    +0.000 OA
ATOM     18  H   UNL     1       1.308  15.292  22.751  0.00  0.00    +0.000 HD
ENDBRANCH   2  17
BRANCH  14  19
ATOM     19  O   UNL     1      -5.866  11.545  18.787  0.00  0.00    +0.000 OA
ATOM     20  H   UNL     1      -6.584  11.304  18.175  0.00  0.00    +0.000 HD
ENDBRANCH  14  19
BRANCH  16  21
ATOM     21  O   UNL     1      -4.571  12.688  20.766  0.00  0.00    +0.000 OA
ATOM     22  H   UNL     1      -4.328  12.695  21.713  0.00  0.00    +0.000 HD
ENDBRANCH  16  21
BRANCH   1  23
ATOM     23  C   UNL     1       1.423  12.254  20.231  0.00  0.00    +0.000 C 
BRANCH  23  27
ATOM     24  C   UNL     1       0.678   8.550  21.270  0.00  0.00    +0.000 C 
ATOM     25  C   UNL     1       0.927   9.751  20.396  0.00  0.00    +0.000 C 
ATOM     26  C   UNL     1       1.096   9.495  18.926  0.00  0.00    +0.000 C 
ATOM     27  C   UNL     1       1.022  10.979  20.947  0.00  0.00    +0.000 C 
ENDBRANCH  23  27
ENDBRANCH   1  23
BRANCH   1  28
ATOM     28  C   UNL     1       0.780  14.583  19.350  0.00  0.00    +0.000 C 
BRANCH  28  29
ATOM     29  C   UNL     1       2.185  14.438  18.800  0.00  0.00    +0.000 C 
ATOM     30  C   UNL     1       2.943  15.367  18.186  0.00  0.00    +0.000 C 
ATOM     31  C   UNL     1       2.515  16.770  17.865  0.00  0.00    +0.000 C 
ATOM     32  C   UNL     1       4.360  15.045  17.780  0.00  0.00    +0.000 C 
ENDBRANCH  28  29
ENDBRANCH   1  28
TORSDOF 7
ENDMDL
MODEL 7
REMARK VINA RESULT:      -6.7      3.247      6.217
REMARK  Name = 
REMARK  12 active torsions:
REMARK  status: ('A' for Active; 'I' for Inactive)
REMARK    1  A    between atoms: C_1  and  C_2
REMARK    2  A    between atoms: C_2  and  C_3
REMARK    3  A    between atoms: C_4  and  C_5
REMARK    4  A    between atoms: C_5  and  C_6
REMARK    5  A    between atoms: C_6  and  C_7
REMARK    6  A    between atoms: C_7  and  C_8
REMARK    7  A    between atoms: C_9  and  C_10
REMARK    8  A    between atoms: C_9  and  C_11
REMARK    9  A    between atoms: C_12  and  O_13
REMARK   10  A    between atoms: C_22  and  C_23
REMARK   11  A    between atoms: C_25  and  O_26
REMARK   12  A    between atoms: C_28  and  O_29
REMARK                            x       y       z     vdW  Elec       q    Type
REMARK                         _______ _______ _______ _____ _____    ______ ____
ROOT
ATOM      1  C   UNL     1      -0.339  13.621  21.250  0.00  0.00    +0.000 C 
ATOM      2  C   UNL     1       1.177  13.499  21.098  0.00  0.00    +0.000 C 
ATOM      3  C   UNL     1       1.768  12.709  20.194  0.00  0.00    +0.000 C 
ATOM      4  C   UNL     1       1.009  11.863  19.253  0.00  0.00    +0.000 C 
ATOM      5  O   UNL     1       1.650  11.119  18.525  0.00  0.00    +0.000 OA
ATOM      6  C   UNL     1      -0.484  11.963  19.264  0.00  0.00    +0.000 A 
ATOM      7  C   UNL     1      -1.119  12.812  20.190  0.00  0.00    +0.000 A 
ATOM      8  C   UNL     1      -2.526  12.878  20.188  0.00  0.00    +0.000 A 
ATOM      9  C   UNL     1      -3.316  12.160  19.290  0.00  0.00    +0.000 A 
ATOM     10  C   UNL     1      -4.709  12.314  19.337  0.00  0.00    +0.000 A 
ATOM     11  C   UNL     1      -5.547  11.644  18.445  0.00  0.00    +0.000 A 
ATOM     12  C   UNL     1      -7.030  11.868  18.485  0.00  0.00    +0.000 C 
ATOM     13  C   UNL     1      -4.978  10.773  17.516  0.00  0.00    +0.000 A 
ATOM     14  C   UNL     1      -3.588  10.605  17.479  0.00  0.00    +0.000 A 
ATOM     15  C   UNL     1      -2.710  11.302  18.354  0.00  0.00    +0.000 A 
ATOM     16  C   UNL     1      -1.283  11.213  18.367  0.00  0.00    +0.000 A 
ENDROOT
BRANCH   2  17
ATOM     17  O   UNL     1       2.001  14.196  21.971  0.00  0.00    +0.000 OA
ATOM     18  H   UNL     1       2.097  15.121  21.682  0.00  0.00    +0.000 HD
ENDBRANCH   2  17
BRANCH  14  19
ATOM     19  O   UNL     1      -3.048   9.739  16.556  0.00  0.00    +0.000 OA
ATOM     20  H   UNL     1      -2.561  10.258  15.892  0.00  0.00    +0.000 HD
ENDBRANCH  14  19
BRANCH  16  21
ATOM     21  O   UNL     1      -0.668  10.369  17.472  0.00  0.00    +0.000 OA
ATOM     22  H   UNL     1      -1.306   9.669  17.232  0.00  0.00    +0.000 HD
ENDBRANCH  16  21
BRANCH   1  23
ATOM     23  C   UNL     1      -0.745  15.145  21.158  0.00  0.00    +0.000 C 
BRANCH  23  27
ATOM     24  C   UNL     1      -0.638  17.447  17.989  0.00  0.00    +0.000 C 
ATOM     25  C   UNL     1      -1.149  16.795  19.246  0.00  0.00    +0.000 C 
ATOM     26  C   UNL     1      -2.424  17.340  19.821  0.00  0.00    +0.000 C 
ATOM     27  C   UNL     1      -0.450  15.793  19.819  0.00  0.00    +0.000 C 
ENDBRANCH  23  27
ENDBRANCH   1  23
BRANCH   1  28
ATOM     28  C   UNL     1      -0.738  13.062  22.666  0.00  0.00    +0.000 C 
BRANCH  28  29
ATOM     29  C   UNL     1      -1.507  14.052  23.519  0.00  0.00    +0.000 C 
ATOM     30  C   UNL     1      -2.756  13.940  24.009  0.00  0.00    +0.000 C 
ATOM     31  C   UNL     1      -3.693  12.794  23.758  0.00  0.00    +0.000 C 
ATOM     32  C   UNL     1      -3.317  15.011  24.912  0.00  0.00    +0.000 C 
ENDBRANCH  28  29
ENDBRANCH   1  28
TORSDOF 7
ENDMDL
MODEL 8
REMARK VINA RESULT:      -6.7      2.712      6.437
REMARK  Name = 
REMARK  12 active torsions:
REMARK  status: ('A' for Active; 'I' for Inactive)
REMARK    1  A    between atoms: C_1  and  C_2
REMARK    2  A    between atoms: C_2  and  C_3
REMARK    3  A    between atoms: C_4  and  C_5
REMARK    4  A    between atoms: C_5  and  C_6
REMARK    5  A    between atoms: C_6  and  C_7
REMARK    6  A    between atoms: C_7  and  C_8
REMARK    7  A    between atoms: C_9  and  C_10
REMARK    8  A    between atoms: C_9  and  C_11
REMARK    9  A    between atoms: C_12  and  O_13
REMARK   10  A    between atoms: C_22  and  C_23
REMARK   11  A    between atoms: C_25  and  O_26
REMARK   12  A    between atoms: C_28  and  O_29
REMARK                            x       y       z     vdW  Elec       q    Type
REMARK                         _______ _______ _______ _____ _____    ______ ____
ROOT
ATOM      1  C   UNL     1      -0.431  11.921  19.383  0.00  0.00    +0.000 C 
ATOM      2  C   UNL     1       1.059  12.158  19.146  0.00  0.00    +0.000 C 
ATOM      3  C   UNL     1       1.823  12.919  19.941  0.00  0.00    +0.000 C 
ATOM      4  C   UNL     1       1.293  13.615  21.128  0.00  0.00    +0.000 C 
ATOM      5  O   UNL     1       2.059  14.349  21.737  0.00  0.00    +0.000 OA
ATOM      6  C   UNL     1      -0.140  13.391  21.496  0.00  0.00    +0.000 A 
ATOM      7  C   UNL     1      -0.946  12.570  20.686  0.00  0.00    +0.000 A 
ATOM      8  C   UNL     1      -2.296  12.384  21.048  0.00  0.00    +0.000 A 
ATOM      9  C   UNL     1      -2.858  12.956  22.190  0.00  0.00    +0.000 A 
ATOM     10  C   UNL     1      -4.201  12.688  22.492  0.00  0.00    +0.000 A 
ATOM     11  C   UNL     1      -4.809  13.209  23.635  0.00  0.00    +0.000 A 
ATOM     12  C   UNL     1      -6.232  12.863  23.960  0.00  0.00    +0.000 C 
ATOM     13  C   UNL     1      -4.066  14.045  24.467  0.00  0.00    +0.000 A 
ATOM     14  C   UNL     1      -2.729  14.327  24.158  0.00  0.00    +0.000 A 
ATOM     15  C   UNL     1      -2.077  13.781  23.018  0.00  0.00    +0.000 A 
ATOM     16  C   UNL     1      -0.713  13.992  22.643  0.00  0.00    +0.000 A 
ENDROOT
BRANCH   2  17
ATOM     17  O   UNL     1       1.661  11.609  18.022  0.00  0.00    +0.000 OA
ATOM     18  H   UNL     1       1.052  10.990  17.579  0.00  0.00    +0.000 HD
ENDBRANCH   2  17
BRANCH  14  19
ATOM     19  O   UNL     1      -2.015  15.157  24.992  0.00  0.00    +0.000 OA
ATOM     20  H   UNL     1      -2.402  16.048  24.947  0.00  0.00    +0.000 HD
ENDBRANCH  14  19
BRANCH  16  21
ATOM     21  O   UNL     1       0.067  14.809  23.428  0.00  0.00    +0.000 OA
ATOM     22  H   UNL     1      -0.528  15.366  23.967  0.00  0.00    +0.000 HD
ENDBRANCH  16  21
BRANCH   1  23
ATOM     23  C   UNL     1      -0.705  10.365  19.421  0.00  0.00    +0.000 C 
BRANCH  23  27
ATOM     24  C   UNL     1       1.639   8.119  21.614  0.00  0.00    +0.000 C 
ATOM     25  C   UNL     1       0.525   9.062  21.244  0.00  0.00    +0.000 C 
ATOM     26  C   UNL     1      -0.467   9.391  22.322  0.00  0.00    +0.000 C 
ATOM     27  C   UNL     1       0.435   9.541  19.987  0.00  0.00    +0.000 C 
ENDBRANCH  23  27
ENDBRANCH   1  23
BRANCH   1  28
ATOM     28  C   UNL     1      -1.227  12.559  18.185  0.00  0.00    +0.000 C 
BRANCH  28  29
ATOM     29  C   UNL     1      -1.796  11.540  17.217  0.00  0.00    +0.000 C 
ATOM     30  C   UNL     1      -3.077  11.152  17.068  0.00  0.00    +0.000 C 
ATOM     31  C   UNL     1      -4.236  11.630  17.895  0.00  0.00    +0.000 C 
ATOM     32  C   UNL     1      -3.455  10.173  15.983  0.00  0.00    +0.000 C 
ENDBRANCH  28  29
ENDBRANCH   1  28
TORSDOF 7
ENDMDL
MODEL 9
REMARK VINA RESULT:      -6.7      4.851      8.946
REMARK  Name = 
REMARK  12 active torsions:
REMARK  status: ('A' for Active; 'I' for Inactive)
REMARK    1  A    between atoms: C_1  and  C_2
REMARK    2  A    between atoms: C_2  and  C_3
REMARK    3  A    between atoms: C_4  and  C_5
REMARK    4  A    between atoms: C_5  and  C_6
REMARK    5  A    between atoms: C_6  and  C_7
REMARK    6  A    between atoms: C_7  and  C_8
REMARK    7  A    between atoms: C_9  and  C_10
REMARK    8  A    between atoms: C_9  and  C_11
REMARK    9  A    between atoms: C_12  and  O_13
REMARK   10  A    between atoms: C_22  and  C_23
REMARK   11  A    between atoms: C_25  and  O_26
REMARK   12  A    between atoms: C_28  and  O_29
REMARK                            x       y       z     vdW  Elec       q    Type
REMARK                         _______ _______ _______ _____ _____    ______ ____
ROOT
ATOM      1  C   UNL     1       4.172   4.540  18.191  0.00  0.00    +0.000 C 
ATOM      2  C   UNL     1       4.728   5.306  19.390  0.00  0.00    +0.000 C 
ATOM      3  C   UNL     1       5.885   5.979  19.366  0.00  0.00    +0.000 C 
ATOM      4  C   UNL     1       6.750   6.039  18.171  0.00  0.00    +0.000 C 
ATOM      5  O   UNL     1       7.823   6.613  18.284  0.00  0.00    +0.000 OA
ATOM      6  C   UNL     1       6.264   5.385  16.916  0.00  0.00    +0.000 A 
ATOM      7  C   UNL     1       5.035   4.699  16.919  0.00  0.00    +0.000 A 
ATOM      8  C   UNL     1       4.605   4.081  15.728  0.00  0.00    +0.000 A 
ATOM      9  C   UNL     1       5.332   4.145  14.539  0.00  0.00    +0.000 A 
ATOM     10  C   UNL     1       4.812   3.531  13.391  0.00  0.00    +0.000 A 
ATOM     11  C   UNL     1       5.480   3.585  12.167  0.00  0.00    +0.000 A 
ATOM     12  C   UNL     1       4.873   2.964  10.944  0.00  0.00    +0.000 C 
ATOM     13  C   UNL     1       6.712   4.235  12.106  0.00  0.00    +0.000 A 
ATOM     14  C   UNL     1       7.243   4.835  13.255  0.00  0.00    +0.000 A 
ATOM     15  C   UNL     1       6.565   4.823  14.505  0.00  0.00    +0.000 A 
ATOM     16  C   UNL     1       7.016   5.431  15.718  0.00  0.00    +0.000 A 
ENDROOT
BRANCH   2  17
ATOM     17  O   UNL     1       4.038   5.271  20.594  0.00  0.00    +0.000 OA
ATOM     18  H   UNL     1       4.160   6.106  21.080  0.00  0.00    +0.000 HD
ENDBRANCH   2  17
BRANCH  14  19
ATOM     19  O   UNL     1       8.461   5.469  13.173  0.00  0.00    +0.000 OA
ATOM     20  H   UNL     1       9.048   4.936  12.607  0.00  0.00    +0.000 HD
ENDBRANCH  14  19
BRANCH  16  21
ATOM     21  O   UNL     1       8.226   6.085  15.715  0.00  0.00    +0.000 OA
ATOM     22  H   UNL     1       8.422   6.360  16.632  0.00  0.00    +0.000 HD
ENDBRANCH  16  21
BRANCH   1  23
ATOM     23  C   UNL     1       2.701   5.036  17.899  0.00  0.00    +0.000 C 
BRANCH  23  27
ATOM     24  C   UNL     1       2.369   8.941  17.873  0.00  0.00    +0.000 C 
ATOM     25  C   UNL     1       2.270   7.516  18.351  0.00  0.00    +0.000 C 
ATOM     26  C   UNL     1       1.838   7.309  19.774  0.00  0.00    +0.000 C 
ATOM     27  C   UNL     1       2.596   6.502  17.524  0.00  0.00    +0.000 C 
ENDBRANCH  23  27
ENDBRANCH   1  23
BRANCH   1  28
ATOM     28  C   UNL     1       4.140   3.010  18.557  0.00  0.00    +0.000 C 
BRANCH  28  29
ATOM     29  C   UNL     1       2.761   2.386  18.460  0.00  0.00    +0.000 C 
ATOM     30  C   UNL     1       1.811   2.306  19.410  0.00  0.00    +0.000 C 
ATOM     31  C   UNL     1       1.948   2.789  20.826  0.00  0.00    +0.000 C 
ATOM     32  C   UNL     1       0.462   1.711  19.089  0.00  0.00    +0.000 C 
ENDBRANCH  28  29
ENDBRANCH   1  28
TORSDOF 7
ENDMDL
