MODEL 1
REMARK VINA RESULT:      -7.9      0.000      0.000
REMARK  Name = 
REMARK  12 active torsions:
REMARK  status: ('A' for Active; 'I' for Inactive)
REMARK    1  A    between atoms: C_1  and  C_2
REMARK    2  A    between atoms: C_2  and  C_3
REMARK    3  A    between atoms: C_2  and  C_4
REMARK    4  A    between atoms: C_4  and  N_5
REMARK    5  A    between atoms: C_8  and  C_9
REMARK    6  A    between atoms: C_10  and  C_11
REMARK    7  A    between atoms: C_11  and  C_12
REMARK    8  A    between atoms: C_12  and  C_13
REMARK    9  A    between atoms: C_13  and  C_14
REMARK   10  A    between atoms: C_18  and  C_19
REMARK   11  A    between atoms: C_22  and  C_23
REMARK   12  A    between atoms: N_25  and  C_26
REMARK                            x       y       z     vdW  Elec       q    Type
REMARK                         _______ _______ _______ _____ _____    ______ ____
ROOT
ATOM      1  N   UNL     1      -1.273  12.541  22.490  0.00  0.00    +0.000 N 
ATOM      2  C   UNL     1      -1.035  11.675  21.438  0.00  0.00    +0.000 A 
ATOM      3  N   UNL     1      -1.665  11.819  20.291  0.00  0.00    +0.000 NA
ATOM      4  C   UNL     1      -1.386  10.955  19.244  0.00  0.00    +0.000 A 
ATOM      5  C   UNL     1      -0.505   9.943  19.348  0.00  0.00    +0.000 A 
ATOM      6  N   UNL     1       0.179   9.754  20.542  0.00  0.00    +0.000 N 
ATOM      7  C   UNL     1       1.137   8.836  20.969  0.00  0.00    +0.000 A 
ATOM      8  C   UNL     1       1.328   9.165  22.307  0.00  0.00    +0.000 A 
ATOM      9  N   UNL     1       0.587  10.256  22.687  0.00  0.00    +0.000 NA
ATOM     10  C   UNL     1      -0.074  10.587  21.596  0.00  0.00    +0.000 A 
ATOM     11  H   UNL     1      -0.813  12.253  23.350  0.00  0.00    +0.000 HD
ENDROOT
BRANCH   7  12
ATOM     12  C   UNL     1       1.726   7.764  20.166  0.00  0.00    +0.000 A 
ATOM     13  C   UNL     1       1.805   6.460  20.661  0.00  0.00    +0.000 A 
ATOM     14  C   UNL     1       2.516   5.475  19.983  0.00  0.00    +0.000 A 
ATOM     15  C   UNL     1       3.104   5.755  18.747  0.00  0.00    +0.000 A 
ATOM     16  C   UNL     1       2.904   7.009  18.163  0.00  0.00    +0.000 A 
ATOM     17  C   UNL     1       2.238   8.014  18.883  0.00  0.00    +0.000 A 
BRANCH  15  18
ATOM     18  C   UNL     1       3.930   4.677  18.134  0.00  0.00    +0.000 C 
ATOM     19  O   UNL     1       4.064   3.615  18.732  0.00  0.00    +0.000 OA
ATOM     20  N   UNL     1       4.562   4.970  16.937  0.00  0.00    +0.000 N 
ATOM     21  H   UNL     1       4.509   5.905  16.556  0.00  0.00    +0.000 HD
BRANCH  20  22
ATOM     22  C   UNL     1       5.457   4.035  16.316  0.00  0.00    +0.000 C 
ATOM     23  C   UNL     1       5.792   4.119  14.851  0.00  0.00    +0.000 C 
ATOM     24  C   UNL     1       6.833   4.459  15.876  0.00  0.00    +0.000 C 
ENDBRANCH  20  22
ENDBRANCH  15  18
ENDBRANCH   7  12
BRANCH   4  25
ATOM     25  C   UNL     1      -2.047  11.172  17.992  0.00  0.00    +0.000 C 
ATOM     26  C   UNL     1      -2.613  11.313  16.930  0.00  0.00    +0.000 C 
BRANCH  26  27
ATOM     27  C   UNL     1      -3.315  11.442  15.641  0.00  0.00    +0.000 C 
BRANCH  27  28
ATOM     28  C   UNL     1      -3.039  10.274  14.681  0.00  0.00    +0.000 C 
BRANCH  28  29
ATOM     29  C   UNL     1      -4.293   9.725  13.984  0.00  0.00    +0.000 C 
BRANCH  29  30
ATOM     30  C   UNL     1      -4.048   9.633  12.486  0.00  0.00    +0.000 C 
ATOM     31  N   UNL     1      -3.844   9.558  11.244  0.00  0.00    +0.000 NA
ENDBRANCH  29  30
ENDBRANCH  28  29
ENDBRANCH  27  28
ENDBRANCH  26  27
ENDBRANCH   4  25
BRANCH   1  32
ATOM     32  C   UNL     1      -2.539  13.237  22.650  0.00  0.00    +0.000 C 
BRANCH  32  34
ATOM     33  C   UNL     1      -3.267  14.754  24.544  0.00  0.00    +0.000 C 
ATOM     34  C   UNL     1      -2.949  13.315  24.133  0.00  0.00    +0.000 C 
ATOM     35  C   UNL     1      -4.168  12.432  24.425  0.00  0.00    +0.000 C 
ENDBRANCH  32  34
ENDBRANCH   1  32
TORSDOF 10
ENDMDL
MODEL 2
REMARK VINA RESULT:      -7.1      1.707      2.198
REMARK  Name = 
REMARK  12 active torsions:
REMARK  status: ('A' for Active; 'I' for Inactive)
REMARK    1  A    between atoms: C_1  and  C_2
REMARK    2  A    between atoms: C_2  and  C_3
REMARK    3  A    between atoms: C_2  and  C_4
REMARK    4  A    between atoms: C_4  and  N_5
REMARK    5  A    between atoms: C_8  and  C_9
REMARK    6  A    between atoms: C_10  and  C_11
REMARK    7  A    between atoms: C_11  and  C_12
REMARK    8  A    between atoms: C_12  and  C_13
REMARK    9  A    between atoms: C_13  and  C_14
REMARK   10  A    between atoms: C_18  and  C_19
REMARK   11  A    between atoms: C_22  and  C_23
REMARK   12  A    between atoms: N_25  and  C_26
REMARK                            x       y       z     vdW  Elec       q    Type
REMARK                         _______ _______ _______ _____ _____    ______ ____
ROOT
ATOM      1  N   UNL     1      -1.388  12.273  22.586  0.00  0.00    +0.000 N 
ATOM      2  C   UNL     1      -1.094  11.428  21.532  0.00  0.00    +0.000 A 
ATOM      3  N   UNL     1      -1.717  11.548  20.378  0.00  0.00    +0.000 NA
ATOM      4  C   UNL     1      -1.382  10.706  19.329  0.00  0.00    +0.000 A 
ATOM      5  C   UNL     1      -0.453   9.738  19.437  0.00  0.00    +0.000 A 
ATOM      6  N   UNL     1       0.226   9.576  20.638  0.00  0.00    +0.000 N 
ATOM      7  C   UNL     1       1.223   8.704  21.071  0.00  0.00    +0.000 A 
ATOM      8  C   UNL     1       1.380   9.032  22.414  0.00  0.00    +0.000 A 
ATOM      9  N   UNL     1       0.582  10.083  22.792  0.00  0.00    +0.000 NA
ATOM     10  C   UNL     1      -0.082  10.388  21.694  0.00  0.00    +0.000 A 
ATOM     11  H   UNL     1      -0.924  12.002  23.450  0.00  0.00    +0.000 HD
ENDROOT
BRANCH   7  12
ATOM     12  C   UNL     1       1.874   7.668  20.269  0.00  0.00    +0.000 A 
ATOM     13  C   UNL     1       2.499   7.986  19.060  0.00  0.00    +0.000 A 
ATOM     14  C   UNL     1       2.966   6.990  18.208  0.00  0.00    +0.000 A 
ATOM     15  C   UNL     1       2.886   5.647  18.584  0.00  0.00    +0.000 A 
ATOM     16  C   UNL     1       2.406   5.320  19.855  0.00  0.00    +0.000 A 
ATOM     17  C   UNL     1       1.881   6.327  20.682  0.00  0.00    +0.000 A 
BRANCH  15  18
ATOM     18  C   UNL     1       3.316   4.638  17.575  0.00  0.00    +0.000 C 
ATOM     19  O   UNL     1       2.713   3.573  17.500  0.00  0.00    +0.000 OA
ATOM     20  N   UNL     1       4.434   4.943  16.816  0.00  0.00    +0.000 N 
ATOM     21  H   UNL     1       4.959   5.785  17.009  0.00  0.00    +0.000 HD
BRANCH  20  22
ATOM     22  C   UNL     1       4.986   3.999  15.887  0.00  0.00    +0.000 C 
ATOM     23  C   UNL     1       5.534   4.432  14.554  0.00  0.00    +0.000 C 
ATOM     24  C   UNL     1       6.468   3.951  15.624  0.00  0.00    +0.000 C 
ENDBRANCH  20  22
ENDBRANCH  15  18
ENDBRANCH   7  12
BRANCH   4  25
ATOM     25  C   UNL     1      -2.038  10.899  18.070  0.00  0.00    +0.000 C 
ATOM     26  C   UNL     1      -2.628  11.075  17.026  0.00  0.00    +0.000 C 
BRANCH  26  27
ATOM     27  C   UNL     1      -3.377  11.313  15.780  0.00  0.00    +0.000 C 
BRANCH  27  28
ATOM     28  C   UNL     1      -4.882  11.523  16.008  0.00  0.00    +0.000 C 
BRANCH  28  29
ATOM     29  C   UNL     1      -5.233  12.102  17.388  0.00  0.00    +0.000 C 
BRANCH  29  30
ATOM     30  C   UNL     1      -6.224  11.188  18.089  0.00  0.00    +0.000 C 
ATOM     31  N   UNL     1      -7.046  10.430  18.672  0.00  0.00    +0.000 NA
ENDBRANCH  29  30
ENDBRANCH  28  29
ENDBRANCH  27  28
ENDBRANCH  26  27
ENDBRANCH   4  25
BRANCH   1  32
ATOM     32  C   UNL     1      -2.690  12.904  22.735  0.00  0.00    +0.000 C 
BRANCH  32  34
ATOM     33  C   UNL     1      -2.920  14.503  24.686  0.00  0.00    +0.000 C 
ATOM     34  C   UNL     1      -3.070  13.053  24.221  0.00  0.00    +0.000 C 
ATOM     35  C   UNL     1      -4.509  12.593  24.479  0.00  0.00    +0.000 C 
ENDBRANCH  32  34
ENDBRANCH   1  32
TORSDOF 10
ENDMDL
MODEL 3
REMARK VINA RESULT:      -7.1      5.614      8.100
REMARK  Name = 
REMARK  12 active torsions:
REMARK  status: ('A' for Active; 'I' for Inactive)
REMARK    1  A    between atoms: C_1  and  C_2
REMARK    2  A    between atoms: C_2  and  C_3
REMARK    3  A    between atoms: C_2  and  C_4
REMARK    4  A    between atoms: C_4  and  N_5
REMARK    5  A    between atoms: C_8  and  C_9
REMARK    6  A    between atoms: C_10  and  C_11
REMARK    7  A    between atoms: C_11  and  C_12
REMARK    8  A    between atoms: C_12  and  C_13
REMARK    9  A    between atoms: C_13  and  C_14
REMARK   10  A    between atoms: C_18  and  C_19
REMARK   11  A    between atoms: C_22  and  C_23
REMARK   12  A    between atoms: N_25  and  C_26
REMARK                            x       y       z     vdW  Elec       q    Type
REMARK                         _______ _______ _______ _____ _____    ______ ____
ROOT
ATOM      1  N   UNL     1      -2.204  12.322  18.087  0.00  0.00    +0.000 N 
ATOM      2  C   UNL     1      -0.841  12.147  18.247  0.00  0.00    +0.000 A 
ATOM      3  N   UNL     1      -0.305  10.945  18.185  0.00  0.00    +0.000 NA
ATOM      4  C   UNL     1       1.067  10.802  18.320  0.00  0.00    +0.000 A 
ATOM      5  C   UNL     1       1.893  11.843  18.537  0.00  0.00    +0.000 A 
ATOM      6  N   UNL     1       1.367  13.126  18.612  0.00  0.00    +0.000 N 
ATOM      7  C   UNL     1       1.926  14.387  18.811  0.00  0.00    +0.000 A 
ATOM      8  C   UNL     1       0.820  15.229  18.862  0.00  0.00    +0.000 A 
ATOM      9  N   UNL     1      -0.358  14.557  18.647  0.00  0.00    +0.000 NA
ATOM     10  C   UNL     1       0.017  13.303  18.486  0.00  0.00    +0.000 A 
ATOM     11  H   UNL     1      -2.503  13.276  18.272  0.00  0.00    +0.000 HD
ENDROOT
BRANCH   7  12
ATOM     12  C   UNL     1       3.349  14.685  18.978  0.00  0.00    +0.000 A 
ATOM     13  C   UNL     1       4.172  14.893  17.868  0.00  0.00    +0.000 A 
ATOM     14  C   UNL     1       5.552  15.003  18.007  0.00  0.00    +0.000 A 
ATOM     15  C   UNL     1       6.137  14.983  19.276  0.00  0.00    +0.000 A 
ATOM     16  C   UNL     1       5.316  14.931  20.406  0.00  0.00    +0.000 A 
ATOM     17  C   UNL     1       3.931  14.759  20.254  0.00  0.00    +0.000 A 
BRANCH  15  18
ATOM     18  C   UNL     1       7.626  15.006  19.332  0.00  0.00    +0.000 C 
ATOM     19  O   UNL     1       8.182  15.773  20.110  0.00  0.00    +0.000 OA
ATOM     20  N   UNL     1       8.303  14.195  18.438  0.00  0.00    +0.000 N 
ATOM     21  H   UNL     1       7.788  13.675  17.739  0.00  0.00    +0.000 HD
BRANCH  20  22
ATOM     22  C   UNL     1       9.735  14.217  18.345  0.00  0.00    +0.000 C 
ATOM     23  C   UNL     1      10.588  13.210  19.068  0.00  0.00    +0.000 C 
ATOM     24  C   UNL     1      10.475  13.157  17.574  0.00  0.00    +0.000 C 
ENDBRANCH  20  22
ENDBRANCH  15  18
ENDBRANCH   7  12
BRANCH   4  25
ATOM     25  C   UNL     1       1.626   9.489  18.193  0.00  0.00    +0.000 C 
ATOM     26  C   UNL     1       2.104   8.378  18.128  0.00  0.00    +0.000 C 
BRANCH  26  27
ATOM     27  C   UNL     1       2.681   7.022  18.094  0.00  0.00    +0.000 C 
BRANCH  27  28
ATOM     28  C   UNL     1       4.047   6.962  17.394  0.00  0.00    +0.000 C 
BRANCH  28  29
ATOM     29  C   UNL     1       4.921   5.773  17.824  0.00  0.00    +0.000 C 
BRANCH  29  30
ATOM     30  C   UNL     1       4.143   4.478  17.653  0.00  0.00    +0.000 C 
ATOM     31  N   UNL     1       3.498   3.404  17.511  0.00  0.00    +0.000 NA
ENDBRANCH  29  30
ENDBRANCH  28  29
ENDBRANCH  27  28
ENDBRANCH  26  27
ENDBRANCH   4  25
BRANCH   1  32
ATOM     32  C   UNL     1      -3.163  11.280  18.418  0.00  0.00    +0.000 C 
BRANCH  32  34
ATOM     33  C   UNL     1      -5.164  11.970  17.025  0.00  0.00    +0.000 C 
ATOM     34  C   UNL     1      -4.052  10.935  17.206  0.00  0.00    +0.000 C 
ATOM     35  C   UNL     1      -3.230  10.855  15.915  0.00  0.00    +0.000 C 
ENDBRANCH  32  34
ENDBRANCH   1  32
TORSDOF 10
ENDMDL
MODEL 4
REMARK VINA RESULT:      -7.1      1.852      2.208
REMARK  Name = 
REMARK  12 active torsions:
REMARK  status: ('A' for Active; 'I' for Inactive)
REMARK    1  A    between atoms: C_1  and  C_2
REMARK    2  A    between atoms: C_2  and  C_3
REMARK    3  A    between atoms: C_2  and  C_4
REMARK    4  A    between atoms: C_4  and  N_5
REMARK    5  A    between atoms: C_8  and  C_9
REMARK    6  A    between atoms: C_10  and  C_11
REMARK    7  A    between atoms: C_11  and  C_12
REMARK    8  A    between atoms: C_12  and  C_13
REMARK    9  A    between atoms: C_13  and  C_14
REMARK   10  A    between atoms: C_18  and  C_19
REMARK   11  A    between atoms: C_22  and  C_23
REMARK   12  A    between atoms: N_25  and  C_26
REMARK                            x       y       z     vdW  Elec       q    Type
REMARK                         _______ _______ _______ _____ _____    ______ ____
ROOT
ATOM      1  N   UNL     1      -0.891  12.032  22.736  0.00  0.00    +0.000 N 
ATOM      2  C   UNL     1      -0.706  11.240  21.618  0.00  0.00    +0.000 A 
ATOM      3  N   UNL     1      -1.409  11.444  20.523  0.00  0.00    +0.000 NA
ATOM      4  C   UNL     1      -1.182  10.653  19.408  0.00  0.00    +0.000 A 
ATOM      5  C   UNL     1      -0.280   9.654  19.392  0.00  0.00    +0.000 A 
ATOM      6  N   UNL     1       0.480   9.403  20.527  0.00  0.00    +0.000 N 
ATOM      7  C   UNL     1       1.477   8.480  20.834  0.00  0.00    +0.000 A 
ATOM      8  C   UNL     1       1.746   8.726  22.177  0.00  0.00    +0.000 A 
ATOM      9  N   UNL     1       1.013   9.777  22.671  0.00  0.00    +0.000 NA
ATOM     10  C   UNL     1       0.280  10.163  21.646  0.00  0.00    +0.000 A 
ATOM     11  H   UNL     1      -0.374  11.699  23.546  0.00  0.00    +0.000 HD
ENDROOT
BRANCH   7  12
ATOM     12  C   UNL     1       2.032   7.472  19.929  0.00  0.00    +0.000 A 
ATOM     13  C   UNL     1       2.096   6.129  20.307  0.00  0.00    +0.000 A 
ATOM     14  C   UNL     1       2.776   5.195  19.531  0.00  0.00    +0.000 A 
ATOM     15  C   UNL     1       3.347   5.573  18.313  0.00  0.00    +0.000 A 
ATOM     16  C   UNL     1       3.159   6.877  17.846  0.00  0.00    +0.000 A 
ATOM     17  C   UNL     1       2.525   7.826  18.663  0.00  0.00    +0.000 A 
BRANCH  15  18
ATOM     18  C   UNL     1       4.141   4.539  17.592  0.00  0.00    +0.000 C 
ATOM     19  O   UNL     1       4.132   3.384  18.004  0.00  0.00    +0.000 OA
ATOM     20  N   UNL     1       4.910   4.967  16.522  0.00  0.00    +0.000 N 
ATOM     21  H   UNL     1       4.968   5.953  16.307  0.00  0.00    +0.000 HD
BRANCH  20  22
ATOM     22  C   UNL     1       5.784   4.069  15.824  0.00  0.00    +0.000 C 
ATOM     23  C   UNL     1       5.803   3.995  14.321  0.00  0.00    +0.000 C 
ATOM     24  C   UNL     1       6.969   4.588  15.054  0.00  0.00    +0.000 C 
ENDBRANCH  20  22
ENDBRANCH  15  18
ENDBRANCH   7  12
BRANCH   4  25
ATOM     25  C   UNL     1      -1.924  10.936  18.215  0.00  0.00    +0.000 C 
ATOM     26  C   UNL     1      -2.554  11.216  17.219  0.00  0.00    +0.000 C 
BRANCH  26  27
ATOM     27  C   UNL     1      -3.315  11.600  16.018  0.00  0.00    +0.000 C 
BRANCH  27  28
ATOM     28  C   UNL     1      -4.820  11.315  16.136  0.00  0.00    +0.000 C 
BRANCH  28  29
ATOM     29  C   UNL     1      -5.515  12.072  17.279  0.00  0.00    +0.000 C 
BRANCH  29  30
ATOM     30  C   UNL     1      -6.258  11.088  18.168  0.00  0.00    +0.000 C 
ATOM     31  N   UNL     1      -6.875  10.272  18.905  0.00  0.00    +0.000 NA
ENDBRANCH  29  30
ENDBRANCH  28  29
ENDBRANCH  27  28
ENDBRANCH  26  27
ENDBRANCH   4  25
BRANCH   1  32
ATOM     32  C   UNL     1      -2.156  12.691  23.018  0.00  0.00    +0.000 C 
BRANCH  32  34
ATOM     33  C   UNL     1      -2.739  14.711  21.605  0.00  0.00    +0.000 C 
ATOM     34  C   UNL     1      -2.034  14.221  22.870  0.00  0.00    +0.000 C 
ATOM     35  C   UNL     1      -2.622  14.949  24.083  0.00  0.00    +0.000 C 
ENDBRANCH  32  34
ENDBRANCH   1  32
TORSDOF 10
ENDMDL
MODEL 5
REMARK VINA RESULT:      -7.0      4.817      6.805
REMARK  Name = 
REMARK  12 active torsions:
REMARK  status: ('A' for Active; 'I' for Inactive)
REMARK    1  A    between atoms: C_1  and  C_2
REMARK    2  A    between atoms: C_2  and  C_3
REMARK    3  A    between atoms: C_2  and  C_4
REMARK    4  A    between atoms: C_4  and  N_5
REMARK    5  A    between atoms: C_8  and  C_9
REMARK    6  A    between atoms: C_10  and  C_11
REMARK    7  A    between atoms: C_11  and  C_12
REMARK    8  A    between atoms: C_12  and  C_13
REMARK    9  A    between atoms: C_13  and  C_14
REMARK   10  A    between atoms: C_18  and  C_19
REMARK   11  A    between atoms: C_22  and  C_23
REMARK   12  A    between atoms: N_25  and  C_26
REMARK                            x       y       z     vdW  Elec       q    Type
REMARK                         _______ _______ _______ _____ _____    ______ ____
ROOT
ATOM      1  N   UNL     1      -0.836  15.469  19.258  0.00  0.00    +0.000 N 
ATOM      2  C   UNL     1       0.197  14.564  19.097  0.00  0.00    +0.000 A 
ATOM      3  N   UNL     1       1.428  14.978  18.879  0.00  0.00    +0.000 NA
ATOM      4  C   UNL     1       2.449  14.050  18.751  0.00  0.00    +0.000 A 
ATOM      5  C   UNL     1       2.241  12.721  18.814  0.00  0.00    +0.000 A 
ATOM      6  N   UNL     1       0.957  12.242  19.039  0.00  0.00    +0.000 N 
ATOM      7  C   UNL     1       0.413  10.966  19.167  0.00  0.00    +0.000 A 
ATOM      8  C   UNL     1      -0.951  11.205  19.292  0.00  0.00    +0.000 A 
ATOM      9  N   UNL     1      -1.247  12.545  19.307  0.00  0.00    +0.000 NA
ATOM     10  C   UNL     1      -0.075  13.131  19.168  0.00  0.00    +0.000 A 
ATOM     11  H   UNL     1      -1.749  15.022  19.303  0.00  0.00    +0.000 HD
ENDROOT
BRANCH   7  12
ATOM     12  C   UNL     1       1.150   9.702  19.115  0.00  0.00    +0.000 A 
ATOM     13  C   UNL     1       1.788   9.293  17.941  0.00  0.00    +0.000 A 
ATOM     14  C   UNL     1       2.340   8.021  17.828  0.00  0.00    +0.000 A 
ATOM     15  C   UNL     1       2.333   7.151  18.921  0.00  0.00    +0.000 A 
ATOM     16  C   UNL     1       1.839   7.599  20.149  0.00  0.00    +0.000 A 
ATOM     17  C   UNL     1       1.229   8.861  20.236  0.00  0.00    +0.000 A 
BRANCH  15  18
ATOM     18  C   UNL     1       2.854   5.774  18.688  0.00  0.00    +0.000 C 
ATOM     19  O   UNL     1       4.049   5.618  18.460  0.00  0.00    +0.000 OA
ATOM     20  N   UNL     1       1.929   4.744  18.677  0.00  0.00    +0.000 N 
ATOM     21  H   UNL     1       0.943   4.952  18.752  0.00  0.00    +0.000 HD
BRANCH  20  22
ATOM     22  C   UNL     1       2.315   3.397  18.365  0.00  0.00    +0.000 C 
ATOM     23  C   UNL     1       2.625   2.396  19.445  0.00  0.00    +0.000 C 
ATOM     24  C   UNL     1       1.379   2.247  18.624  0.00  0.00    +0.000 C 
ENDBRANCH  20  22
ENDBRANCH  15  18
ENDBRANCH   7  12
BRANCH   4  25
ATOM     25  C   UNL     1       3.785  14.534  18.570  0.00  0.00    +0.000 C 
ATOM     26  C   UNL     1       4.913  14.933  18.376  0.00  0.00    +0.000 C 
BRANCH  26  27
ATOM     27  C   UNL     1       6.275  15.418  18.095  0.00  0.00    +0.000 C 
BRANCH  27  28
ATOM     28  C   UNL     1       7.256  14.292  17.730  0.00  0.00    +0.000 C 
BRANCH  28  29
ATOM     29  C   UNL     1       8.404  14.110  18.736  0.00  0.00    +0.000 C 
BRANCH  29  30
ATOM     30  C   UNL     1       9.475  13.215  18.133  0.00  0.00    +0.000 C 
ATOM     31  N   UNL     1      10.363  12.473  17.632  0.00  0.00    +0.000 NA
ENDBRANCH  29  30
ENDBRANCH  28  29
ENDBRANCH  27  28
ENDBRANCH  26  27
ENDBRANCH   4  25
BRANCH   1  32
ATOM     32  C   UNL     1      -0.807  16.793  18.659  0.00  0.00    +0.000 C 
BRANCH  32  34
ATOM     33  C   UNL     1      -2.534  18.630  18.414  0.00  0.00    +0.000 C 
ATOM     34  C   UNL     1      -1.751  17.761  19.399  0.00  0.00    +0.000 C 
ATOM     35  C   UNL     1      -2.741  17.003  20.291  0.00  0.00    +0.000 C 
ENDBRANCH  32  34
ENDBRANCH   1  32
TORSDOF 10
ENDMDL
MODEL 6
REMARK VINA RESULT:      -7.0      5.858      8.135
REMARK  Name = 
REMARK  12 active torsions:
REMARK  status: ('A' for Active; 'I' for Inactive)
REMARK    1  A    between atoms: C_1  and  C_2
REMARK    2  A    between atoms: C_2  and  C_3
REMARK    3  A    between atoms: C_2  and  C_4
REMARK    4  A    between atoms: C_4  and  N_5
REMARK    5  A    between atoms: C_8  and  C_9
REMARK    6  A    between atoms: C_10  and  C_11
REMARK    7  A    between atoms: C_11  and  C_12
REMARK    8  A    between atoms: C_12  and  C_13
REMARK    9  A    between atoms: C_13  and  C_14
REMARK   10  A    between atoms: C_18  and  C_19
REMARK   11  A    between atoms: C_22  and  C_23
REMARK   12  A    between atoms: N_25  and  C_26
REMARK                            x       y       z     vdW  Elec       q    Type
REMARK                         _______ _______ _______ _____ _____    ______ ____
ROOT
ATOM      1  N   UNL     1      -1.837  12.751  18.322  0.00  0.00    +0.000 N 
ATOM      2  C   UNL     1      -0.478  12.512  18.412  0.00  0.00    +0.000 A 
ATOM      3  N   UNL     1      -0.001  11.289  18.313  0.00  0.00    +0.000 NA
ATOM      4  C   UNL     1       1.367  11.082  18.378  0.00  0.00    +0.000 A 
ATOM      5  C   UNL     1       2.250  12.081  18.564  0.00  0.00    +0.000 A 
ATOM      6  N   UNL     1       1.788  13.387  18.676  0.00  0.00    +0.000 N 
ATOM      7  C   UNL     1       2.414  14.618  18.858  0.00  0.00    +0.000 A 
ATOM      8  C   UNL     1       1.351  15.509  18.971  0.00  0.00    +0.000 A 
ATOM      9  N   UNL     1       0.135  14.894  18.809  0.00  0.00    +0.000 NA
ATOM     10  C   UNL     1       0.443  13.626  18.619  0.00  0.00    +0.000 A 
ATOM     11  H   UNL     1      -2.083  13.716  18.530  0.00  0.00    +0.000 HD
ENDROOT
BRANCH   7  12
ATOM     12  C   UNL     1       3.856  14.849  18.957  0.00  0.00    +0.000 A 
ATOM     13  C   UNL     1       4.651  14.907  17.810  0.00  0.00    +0.000 A 
ATOM     14  C   UNL     1       6.039  14.951  17.900  0.00  0.00    +0.000 A 
ATOM     15  C   UNL     1       6.663  15.015  19.148  0.00  0.00    +0.000 A 
ATOM     16  C   UNL     1       5.878  15.114  20.300  0.00  0.00    +0.000 A 
ATOM     17  C   UNL     1       4.482  15.007  20.204  0.00  0.00    +0.000 A 
BRANCH  15  18
ATOM     18  C   UNL     1       8.152  14.959  19.160  0.00  0.00    +0.000 C 
ATOM     19  O   UNL     1       8.785  15.742  18.461  0.00  0.00    +0.000 OA
ATOM     20  N   UNL     1       8.740  13.963  19.922  0.00  0.00    +0.000 N 
ATOM     21  H   UNL     1       8.160  13.273  20.381  0.00  0.00    +0.000 HD
BRANCH  20  22
ATOM     22  C   UNL     1      10.160  13.763  19.924  0.00  0.00    +0.000 C 
ATOM     23  C   UNL     1      10.781  12.519  20.502  0.00  0.00    +0.000 C 
ATOM     24  C   UNL     1      10.797  12.742  19.019  0.00  0.00    +0.000 C 
ENDBRANCH  20  22
ENDBRANCH  15  18
ENDBRANCH   7  12
BRANCH   4  25
ATOM     25  C   UNL     1       1.859   9.747  18.212  0.00  0.00    +0.000 C 
ATOM     26  C   UNL     1       2.299   8.631  18.038  0.00  0.00    +0.000 C 
BRANCH  26  27
ATOM     27  C   UNL     1       2.866   7.292  17.801  0.00  0.00    +0.000 C 
BRANCH  27  28
ATOM     28  C   UNL     1       2.040   6.162  18.435  0.00  0.00    +0.000 C 
BRANCH  28  29
ATOM     29  C   UNL     1       2.217   6.033  19.956  0.00  0.00    +0.000 C 
BRANCH  29  30
ATOM     30  C   UNL     1       1.631   4.713  20.429  0.00  0.00    +0.000 C 
ATOM     31  N   UNL     1       1.145   3.618  20.822  0.00  0.00    +0.000 NA
ENDBRANCH  29  30
ENDBRANCH  28  29
ENDBRANCH  27  28
ENDBRANCH  26  27
ENDBRANCH   4  25
BRANCH   1  32
ATOM     32  C   UNL     1      -2.826  11.751  18.690  0.00  0.00    +0.000 C 
BRANCH  32  34
ATOM     33  C   UNL     1      -3.315   9.581  17.477  0.00  0.00    +0.000 C 
ATOM     34  C   UNL     1      -3.457  11.104  17.442  0.00  0.00    +0.000 C 
ATOM     35  C   UNL     1      -4.942  11.463  17.315  0.00  0.00    +0.000 C 
ENDBRANCH  32  34
ENDBRANCH   1  32
TORSDOF 10
ENDMDL
MODEL 7
REMARK VINA RESULT:      -7.0      5.682      8.349
REMARK  Name = 
REMARK  12 active torsions:
REMARK  status: ('A' for Active; 'I' for Inactive)
REMARK    1  A    between atoms: C_1  and  C_2
REMARK    2  A    between atoms: C_2  and  C_3
REMARK    3  A    between atoms: C_2  and  C_4
REMARK    4  A    between atoms: C_4  and  N_5
REMARK    5  A    between atoms: C_8  and  C_9
REMARK    6  A    between atoms: C_10  and  C_11
REMARK    7  A    between atoms: C_11  and  C_12
REMARK    8  A    between atoms: C_12  and  C_13
REMARK    9  A    between atoms: C_13  and  C_14
REMARK   10  A    between atoms: C_18  and  C_19
REMARK   11  A    between atoms: C_22  and  C_23
REMARK   12  A    between atoms: N_25  and  C_26
REMARK                            x       y       z     vdW  Elec       q    Type
REMARK                         _______ _______ _______ _____ _____    ______ ____
ROOT
ATOM      1  N   UNL     1      -2.207  12.231  18.159  0.00  0.00    +0.000 N 
ATOM      2  C   UNL     1      -0.839  12.095  18.316  0.00  0.00    +0.000 A 
ATOM      3  N   UNL     1      -0.270  10.908  18.268  0.00  0.00    +0.000 NA
ATOM      4  C   UNL     1       1.105  10.804  18.399  0.00  0.00    +0.000 A 
ATOM      5  C   UNL     1       1.903  11.870  18.599  0.00  0.00    +0.000 A 
ATOM      6  N   UNL     1       1.343  13.139  18.659  0.00  0.00    +0.000 N 
ATOM      7  C   UNL     1       1.868  14.417  18.839  0.00  0.00    +0.000 A 
ATOM      8  C   UNL     1       0.740  15.229  18.883  0.00  0.00    +0.000 A 
ATOM      9  N   UNL     1      -0.420  14.523  18.681  0.00  0.00    +0.000 NA
ATOM     10  C   UNL     1      -0.012  13.278  18.536  0.00  0.00    +0.000 A 
ATOM     11  H   UNL     1      -2.531  13.179  18.332  0.00  0.00    +0.000 HD
ENDROOT
BRANCH   7  12
ATOM     12  C   UNL     1       3.283  14.756  18.997  0.00  0.00    +0.000 A 
ATOM     13  C   UNL     1       4.103  14.941  17.881  0.00  0.00    +0.000 A 
ATOM     14  C   UNL     1       5.480  15.090  18.017  0.00  0.00    +0.000 A 
ATOM     15  C   UNL     1       6.062  15.133  19.287  0.00  0.00    +0.000 A 
ATOM     16  C   UNL     1       5.240  15.105  20.416  0.00  0.00    +0.000 A 
ATOM     17  C   UNL     1       3.860  14.893  20.269  0.00  0.00    +0.000 A 
BRANCH  15  18
ATOM     18  C   UNL     1       7.550  15.195  19.344  0.00  0.00    +0.000 C 
ATOM     19  O   UNL     1       8.134  16.091  18.744  0.00  0.00    +0.000 OA
ATOM     20  N   UNL     1       8.197  14.178  20.025  0.00  0.00    +0.000 N 
ATOM     21  H   UNL     1       7.665  13.402  20.396  0.00  0.00    +0.000 HD
BRANCH  20  22
ATOM     22  C   UNL     1       9.629  14.092  20.055  0.00  0.00    +0.000 C 
ATOM     23  C   UNL     1      10.417  14.490  21.274  0.00  0.00    +0.000 C 
ATOM     24  C   UNL     1      10.323  13.045  20.885  0.00  0.00    +0.000 C 
ENDBRANCH  20  22
ENDBRANCH  15  18
ENDBRANCH   7  12
BRANCH   4  25
ATOM     25  C   UNL     1       1.700   9.505  18.288  0.00  0.00    +0.000 C 
ATOM     26  C   UNL     1       2.166   8.393  18.176  0.00  0.00    +0.000 C 
BRANCH  26  27
ATOM     27  C   UNL     1       2.698   7.028  18.014  0.00  0.00    +0.000 C 
BRANCH  27  28
ATOM     28  C   UNL     1       3.982   6.975  17.172  0.00  0.00    +0.000 C 
BRANCH  28  29
ATOM     29  C   UNL     1       5.194   6.385  17.912  0.00  0.00    +0.000 C 
BRANCH  29  30
ATOM     30  C   UNL     1       6.312   6.104  16.921  0.00  0.00    +0.000 C 
ATOM     31  N   UNL     1       7.238   5.869  16.099  0.00  0.00    +0.000 NA
ENDBRANCH  29  30
ENDBRANCH  28  29
ENDBRANCH  27  28
ENDBRANCH  26  27
ENDBRANCH   4  25
BRANCH   1  32
ATOM     32  C   UNL     1      -3.136  11.168  18.507  0.00  0.00    +0.000 C 
BRANCH  32  34
ATOM     33  C   UNL     1      -5.292  11.825  17.350  0.00  0.00    +0.000 C 
ATOM     34  C   UNL     1      -4.100  10.867  17.343  0.00  0.00    +0.000 C 
ATOM     35  C   UNL     1      -3.389  10.965  15.989  0.00  0.00    +0.000 C 
ENDBRANCH  32  34
ENDBRANCH   1  32
TORSDOF 10
ENDMDL
MODEL 8
REMARK VINA RESULT:      -6.9      5.711      8.182
REMARK  Name = 
REMARK  12 active torsions:
REMARK  status: ('A' for Active; 'I' for Inactive)
REMARK    1  A    between atoms: C_1  and  C_2
REMARK    2  A    between atoms: C_2  and  C_3
REMARK    3  A    between atoms: C_2  and  C_4
REMARK    4  A    between atoms: C_4  and  N_5
REMARK    5  A    between atoms: C_8  and  C_9
REMARK    6  A    between atoms: C_10  and  C_11
REMARK    7  A    between atoms: C_11  and  C_12
REMARK    8  A    between atoms: C_12  and  C_13
REMARK    9  A    between atoms: C_13  and  C_14
REMARK   10  A    between atoms: C_18  and  C_19
REMARK   11  A    between atoms: C_22  and  C_23
REMARK   12  A    between atoms: N_25  and  C_26
REMARK                            x       y       z     vdW  Elec       q    Type
REMARK                         _______ _______ _______ _____ _____    ______ ____
ROOT
ATOM      1  N   UNL     1      -2.226  12.522  18.459  0.00  0.00    +0.000 N 
ATOM      2  C   UNL     1      -0.861  12.317  18.551  0.00  0.00    +0.000 A 
ATOM      3  N   UNL     1      -0.359  11.099  18.519  0.00  0.00    +0.000 NA
ATOM      4  C   UNL     1       1.014  10.925  18.584  0.00  0.00    +0.000 A 
ATOM      5  C   UNL     1       1.877  11.951  18.704  0.00  0.00    +0.000 A 
ATOM      6  N   UNL     1       1.388  13.251  18.745  0.00  0.00    +0.000 N 
ATOM      7  C   UNL     1       1.989  14.504  18.851  0.00  0.00    +0.000 A 
ATOM      8  C   UNL     1       0.910  15.377  18.921  0.00  0.00    +0.000 A 
ATOM      9  N   UNL     1      -0.295  14.729  18.805  0.00  0.00    +0.000 NA
ATOM     10  C   UNL     1       0.038  13.459  18.685  0.00  0.00    +0.000 A 
ATOM     11  H   UNL     1      -2.490  13.492  18.613  0.00  0.00    +0.000 HD
ENDROOT
BRANCH   7  12
ATOM     12  C   UNL     1       3.427  14.770  18.924  0.00  0.00    +0.000 A 
ATOM     13  C   UNL     1       4.213  14.774  17.769  0.00  0.00    +0.000 A 
ATOM     14  C   UNL     1       5.601  14.852  17.844  0.00  0.00    +0.000 A 
ATOM     15  C   UNL     1       6.232  15.004  19.081  0.00  0.00    +0.000 A 
ATOM     16  C   UNL     1       5.453  15.156  20.232  0.00  0.00    +0.000 A 
ATOM     17  C   UNL     1       4.058  15.016  20.153  0.00  0.00    +0.000 A 
BRANCH  15  18
ATOM     18  C   UNL     1       7.722  14.978  19.085  0.00  0.00    +0.000 C 
ATOM     19  O   UNL     1       8.330  15.707  19.861  0.00  0.00    +0.000 OA
ATOM     20  N   UNL     1       8.341  14.169  18.147  0.00  0.00    +0.000 N 
ATOM     21  H   UNL     1       7.785  13.685  17.455  0.00  0.00    +0.000 HD
BRANCH  20  22
ATOM     22  C   UNL     1       9.768  14.149  18.004  0.00  0.00    +0.000 C 
ATOM     23  C   UNL     1      10.630  13.223  18.820  0.00  0.00    +0.000 C 
ATOM     24  C   UNL     1      10.462  12.985  17.349  0.00  0.00    +0.000 C 
ENDBRANCH  20  22
ENDBRANCH  15  18
ENDBRANCH   7  12
BRANCH   4  25
ATOM     25  C   UNL     1       1.532   9.592  18.490  0.00  0.00    +0.000 C 
ATOM     26  C   UNL     1       1.995   8.474  18.445  0.00  0.00    +0.000 C 
BRANCH  26  27
ATOM     27  C   UNL     1       2.577   7.120  18.432  0.00  0.00    +0.000 C 
BRANCH  27  28
ATOM     28  C   UNL     1       2.306   6.331  19.723  0.00  0.00    +0.000 C 
BRANCH  28  29
ATOM     29  C   UNL     1       3.075   5.004  19.820  0.00  0.00    +0.000 C 
BRANCH  29  30
ATOM     30  C   UNL     1       2.505   4.164  20.951  0.00  0.00    +0.000 C 
ATOM     31  N   UNL     1       2.032   3.467  21.889  0.00  0.00    +0.000 NA
ENDBRANCH  29  30
ENDBRANCH  28  29
ENDBRANCH  27  28
ENDBRANCH  26  27
ENDBRANCH   4  25
BRANCH   1  32
ATOM     32  C   UNL     1      -3.190  11.525  18.893  0.00  0.00    +0.000 C 
BRANCH  32  34
ATOM     33  C   UNL     1      -3.609  11.605  16.396  0.00  0.00    +0.000 C 
ATOM     34  C   UNL     1      -3.847  10.823  17.688  0.00  0.00    +0.000 C 
ATOM     35  C   UNL     1      -3.315   9.396  17.513  0.00  0.00    +0.000 C 
ENDBRANCH  32  34
ENDBRANCH   1  32
TORSDOF 10
ENDMDL
MODEL 9
REMARK VINA RESULT:      -6.9      6.007      8.271
REMARK  Name = 
REMARK  12 active torsions:
REMARK  status: ('A' for Active; 'I' for Inactive)
REMARK    1  A    between atoms: C_1  and  C_2
REMARK    2  A    between atoms: C_2  and  C_3
REMARK    3  A    between atoms: C_2  and  C_4
REMARK    4  A    between atoms: C_4  and  N_5
REMARK    5  A    between atoms: C_8  and  C_9
REMARK    6  A    between atoms: C_10  and  C_11
REMARK    7  A    between atoms: C_11  and  C_12
REMARK    8  A    between atoms: C_12  and  C_13
REMARK    9  A    between atoms: C_13  and  C_14
REMARK   10  A    between atoms: C_18  and  C_19
REMARK   11  A    between atoms: C_22  and  C_23
REMARK   12  A    between atoms: N_25  and  C_26
REMARK                            x       y       z     vdW  Elec       q    Type
REMARK                         _______ _______ _______ _____ _____    ______ ____
ROOT
ATOM      1  N   UNL     1      -1.976  12.691  18.310  0.00  0.00    +0.000 N 
ATOM      2  C   UNL     1      -0.614  12.467  18.392  0.00  0.00    +0.000 A 
ATOM      3  N   UNL     1      -0.123  11.250  18.274  0.00  0.00    +0.000 NA
ATOM      4  C   UNL     1       1.248  11.058  18.331  0.00  0.00    +0.000 A 
ATOM      5  C   UNL     1       2.119  12.065  18.527  0.00  0.00    +0.000 A 
ATOM      6  N   UNL     1       1.643  13.363  18.660  0.00  0.00    +0.000 N 
ATOM      7  C   UNL     1       2.255  14.599  18.857  0.00  0.00    +0.000 A 
ATOM      8  C   UNL     1       1.183  15.476  18.987  0.00  0.00    +0.000 A 
ATOM      9  N   UNL     1      -0.027  14.849  18.820  0.00  0.00    +0.000 NA
ATOM     10  C   UNL     1       0.295  13.588  18.611  0.00  0.00    +0.000 A 
ATOM     11  H   UNL     1      -2.232  13.650  18.532  0.00  0.00    +0.000 HD
ENDROOT
BRANCH   7  12
ATOM     12  C   UNL     1       3.695  14.846  18.954  0.00  0.00    +0.000 A 
ATOM     13  C   UNL     1       4.481  14.955  17.804  0.00  0.00    +0.000 A 
ATOM     14  C   UNL     1       5.869  15.014  17.885  0.00  0.00    +0.000 A 
ATOM     15  C   UNL     1       6.501  15.041  19.131  0.00  0.00    +0.000 A 
ATOM     16  C   UNL     1       5.724  15.089  20.291  0.00  0.00    +0.000 A 
ATOM     17  C   UNL     1       4.328  14.967  20.201  0.00  0.00    +0.000 A 
BRANCH  15  18
ATOM     18  C   UNL     1       7.991  15.004  19.130  0.00  0.00    +0.000 C 
ATOM     19  O   UNL     1       8.574  14.425  20.040  0.00  0.00    +0.000 OA
ATOM     20  N   UNL     1       8.639  15.697  18.121  0.00  0.00    +0.000 N 
ATOM     21  H   UNL     1       8.103  16.255  17.470  0.00  0.00    +0.000 HD
BRANCH  20  22
ATOM     22  C   UNL     1      10.069  15.804  18.088  0.00  0.00    +0.000 C 
ATOM     23  C   UNL     1      10.913  14.847  17.290  0.00  0.00    +0.000 C 
ATOM     24  C   UNL     1      10.780  16.273  16.846  0.00  0.00    +0.000 C 
ENDBRANCH  20  22
ENDBRANCH  15  18
ENDBRANCH   7  12
BRANCH   4  25
ATOM     25  C   UNL     1       1.754   9.731  18.144  0.00  0.00    +0.000 C 
ATOM     26  C   UNL     1       2.156   8.595  18.017  0.00  0.00    +0.000 C 
BRANCH  26  27
ATOM     27  C   UNL     1       2.610   7.199  17.888  0.00  0.00    +0.000 C 
BRANCH  27  28
ATOM     28  C   UNL     1       2.531   6.412  19.205  0.00  0.00    +0.000 C 
BRANCH  28  29
ATOM     29  C   UNL     1       2.436   4.889  19.021  0.00  0.00    +0.000 C 
BRANCH  29  30
ATOM     30  C   UNL     1       3.377   4.448  17.911  0.00  0.00    +0.000 C 
ATOM     31  N   UNL     1       4.156   4.083  16.990  0.00  0.00    +0.000 NA
ENDBRANCH  29  30
ENDBRANCH  28  29
ENDBRANCH  27  28
ENDBRANCH  26  27
ENDBRANCH   4  25
BRANCH   1  32
ATOM     32  C   UNL     1      -2.952  11.674  18.668  0.00  0.00    +0.000 C 
BRANCH  32  34
ATOM     33  C   UNL     1      -3.475  10.645  16.413  0.00  0.00    +0.000 C 
ATOM     34  C   UNL     1      -4.011  11.503  17.561  0.00  0.00    +0.000 C 
ATOM     35  C   UNL     1      -5.292  10.862  18.106  0.00  0.00    +0.000 C 
ENDBRANCH  32  34
ENDBRANCH   1  32
TORSDOF 10
ENDMDL
