MODEL 1
REMARK VINA RESULT:      -5.5      0.000      0.000
REMARK  Name = 
REMARK  28 active torsions:
REMARK  status: ('A' for Active; 'I' for Inactive)
REMARK    1  A    between atoms: C_1  and  C_2
REMARK    2  A    between atoms: C_2  and  C_3
REMARK    3  A    between atoms: C_3  and  C_4
REMARK    4  A    between atoms: C_4  and  C_5
REMARK    5  A    between atoms: C_5  and  C_6
REMARK    6  A    between atoms: C_6  and  C_7
REMARK    7  A    between atoms: C_7  and  C_8
REMARK    8  A    between atoms: C_8  and  C_9
REMARK    9  A    between atoms: C_9  and  C_10
REMARK   10  A    between atoms: C_10  and  C_11
REMARK   11  A    between atoms: C_11  and  C_12
REMARK   12  A    between atoms: C_12  and  C_13
REMARK   13  A    between atoms: C_13  and  C_14
REMARK   14  A    between atoms: C_14  and  N_15
REMARK   15  A    between atoms: N_15  and  C_16
REMARK   16  A    between atoms: N_15  and  C_17
REMARK   17  A    between atoms: N_15  and  C_18
REMARK   18  A    between atoms: C_18  and  C_19
REMARK   19  A    between atoms: C_19  and  C_20
REMARK   20  A    between atoms: C_20  and  C_21
REMARK   21  A    between atoms: C_21  and  C_22
REMARK   22  A    between atoms: C_22  and  C_23
REMARK   23  A    between atoms: C_23  and  C_24
REMARK   24  A    between atoms: C_24  and  C_25
REMARK   25  A    between atoms: C_25  and  C_26
REMARK   26  A    between atoms: C_26  and  C_27
REMARK   27  A    between atoms: C_27  and  C_28
REMARK   28  A    between atoms: C_28  and  S_29
REMARK                            x       y       z     vdW  Elec       q    Type
REMARK                         _______ _______ _______ _____ _____    ______ ____
ROOT
ATOM      1  N   UNL     1       2.065   3.412  20.507  0.00  0.00    +0.000 N 
ATOM      2  C   UNL     1       0.943   3.594  19.485  0.00  0.00    +0.000 C 
ATOM      3  C   UNL     1       1.592   2.513  21.652  0.00  0.00    +0.000 C 
ENDROOT
BRANCH   1   4
ATOM      4  C   UNL     1       2.516   4.786  21.058  0.00  0.00    +0.000 C 
BRANCH   4   5
ATOM      5  C   UNL     1       2.049   5.932  20.178  0.00  0.00    +0.000 C 
BRANCH   5   6
ATOM      6  C   UNL     1       1.243   6.953  20.959  0.00  0.00    +0.000 C 
BRANCH   6   7
ATOM      7  C   UNL     1       1.614   8.333  20.433  0.00  0.00    +0.000 C 
BRANCH   7   8
ATOM      8  C   UNL     1       1.990   8.268  18.968  0.00  0.00    +0.000 C 
BRANCH   8   9
ATOM      9  C   UNL     1       1.322   9.409  18.215  0.00  0.00    +0.000 C 
BRANCH   9  10
ATOM     10  C   UNL     1       0.464  10.221  19.169  0.00  0.00    +0.000 C 
BRANCH  10  11
ATOM     11  C   UNL     1       0.007  11.514  18.514  0.00  0.00    +0.000 C 
BRANCH  11  12
ATOM     12  C   UNL     1      -1.499  11.497  18.314  0.00  0.00    +0.000 C 
BRANCH  12  13
ATOM     13  C   UNL     1      -2.012  10.068  18.170  0.00  0.00    +0.000 C 
BRANCH  13  14
ATOM     14  C   UNL     1      -2.614   9.854  16.788  0.00  0.00    +0.000 C 
BRANCH  14  15
ATOM     15  S   UNL     1      -3.915  11.076  16.475  0.00  0.00    +0.000 S 
ATOM     16  H   UNL     1      -4.854  10.203  16.080  0.00  0.00    +0.000 HD
ENDBRANCH  14  15
ENDBRANCH  13  14
ENDBRANCH  12  13
ENDBRANCH  11  12
ENDBRANCH  10  11
ENDBRANCH   9  10
ENDBRANCH   8   9
ENDBRANCH   7   8
ENDBRANCH   6   7
ENDBRANCH   5   6
ENDBRANCH   4   5
ENDBRANCH   1   4
BRANCH   1  17
ATOM     17  C   UNL     1       3.313   2.801  19.830  0.00  0.00    +0.000 C 
BRANCH  17  18
ATOM     18  C   UNL     1       3.356   3.104  18.345  0.00  0.00    +0.000 C 
BRANCH  18  19
ATOM     19  C   UNL     1       4.730   3.559  17.899  0.00  0.00    +0.000 C 
BRANCH  19  20
ATOM     20  C   UNL     1       4.541   4.754  16.978  0.00  0.00    +0.000 C 
BRANCH  20  21
ATOM     21  C   UNL     1       4.744   6.046  17.735  0.00  0.00    +0.000 C 
BRANCH  21  22
ATOM     22  C   UNL     1       5.817   6.874  17.052  0.00  0.00    +0.000 C 
BRANCH  22  23
ATOM     23  C   UNL     1       7.173   6.251  17.303  0.00  0.00    +0.000 C 
BRANCH  23  24
ATOM     24  C   UNL     1       7.961   7.086  18.295  0.00  0.00    +0.000 C 
BRANCH  24  25
ATOM     25  C   UNL     1       8.078   8.511  17.783  0.00  0.00    +0.000 C 
BRANCH  25  26
ATOM     26  C   UNL     1       8.746   9.392  18.824  0.00  0.00    +0.000 C 
BRANCH  26  27
ATOM     27  C   UNL     1       9.274  10.666  18.180  0.00  0.00    +0.000 C 
BRANCH  27  28
ATOM     28  C   UNL     1      10.391  11.263  19.026  0.00  0.00    +0.000 C 
BRANCH  28  30
ATOM     29  C   UNL     1      10.582  12.924  17.162  0.00  0.00    +0.000 C 
ATOM     30  C   UNL     1      11.348  12.080  18.165  0.00  0.00    +0.000 C 
ENDBRANCH  28  30
ENDBRANCH  27  28
ENDBRANCH  26  27
ENDBRANCH  25  26
ENDBRANCH  24  25
ENDBRANCH  23  24
ENDBRANCH  22  23
ENDBRANCH  21  22
ENDBRANCH  20  21
ENDBRANCH  19  20
ENDBRANCH  18  19
ENDBRANCH  17  18
ENDBRANCH   1  17
TORSDOF 25
ENDMDL
MODEL 2
REMARK VINA RESULT:      -5.3      3.220      8.323
REMARK  Name = 
REMARK  28 active torsions:
REMARK  status: ('A' for Active; 'I' for Inactive)
REMARK    1  A    between atoms: C_1  and  C_2
REMARK    2  A    between atoms: C_2  and  C_3
REMARK    3  A    between atoms: C_3  and  C_4
REMARK    4  A    between atoms: C_4  and  C_5
REMARK    5  A    between atoms: C_5  and  C_6
REMARK    6  A    between atoms: C_6  and  C_7
REMARK    7  A    between atoms: C_7  and  C_8
REMARK    8  A    between atoms: C_8  and  C_9
REMARK    9  A    between atoms: C_9  and  C_10
REMARK   10  A    between atoms: C_10  and  C_11
REMARK   11  A    between atoms: C_11  and  C_12
REMARK   12  A    between atoms: C_12  and  C_13
REMARK   13  A    between atoms: C_13  and  C_14
REMARK   14  A    between atoms: C_14  and  N_15
REMARK   15  A    between atoms: N_15  and  C_16
REMARK   16  A    between atoms: N_15  and  C_17
REMARK   17  A    between atoms: N_15  and  C_18
REMARK   18  A    between atoms: C_18  and  C_19
REMARK   19  A    between atoms: C_19  and  C_20
REMARK   20  A    between atoms: C_20  and  C_21
REMARK   21  A    between atoms: C_21  and  C_22
REMARK   22  A    between atoms: C_22  and  C_23
REMARK   23  A    between atoms: C_23  and  C_24
REMARK   24  A    between atoms: C_24  and  C_25
REMARK   25  A    between atoms: C_25  and  C_26
REMARK   26  A    between atoms: C_26  and  C_27
REMARK   27  A    between atoms: C_27  and  C_28
REMARK   28  A    between atoms: C_28  and  S_29
REMARK                            x       y       z     vdW  Elec       q    Type
REMARK                         _______ _______ _______ _____ _____    ______ ____
ROOT
ATOM      1  N   UNL     1       2.021   3.617  20.487  0.00  0.00    +0.000 N 
ATOM      2  C   UNL     1       2.056   2.993  21.881  0.00  0.00    +0.000 C 
ATOM      3  C   UNL     1       0.578   3.700  19.984  0.00  0.00    +0.000 C 
ENDROOT
BRANCH   1   4
ATOM      4  C   UNL     1       2.882   2.788  19.506  0.00  0.00    +0.000 C 
BRANCH   4   5
ATOM      5  C   UNL     1       4.369   3.006  19.731  0.00  0.00    +0.000 C 
BRANCH   5   6
ATOM      6  C   UNL     1       5.069   3.471  18.468  0.00  0.00    +0.000 C 
BRANCH   6   7
ATOM      7  C   UNL     1       4.185   3.095  17.286  0.00  0.00    +0.000 C 
BRANCH   7   8
ATOM      8  C   UNL     1       4.361   4.079  16.148  0.00  0.00    +0.000 C 
BRANCH   8   9
ATOM      9  C   UNL     1       5.693   3.831  15.457  0.00  0.00    +0.000 C 
BRANCH   9  10
ATOM     10  C   UNL     1       6.666   4.944  15.801  0.00  0.00    +0.000 C 
BRANCH  10  11
ATOM     11  C   UNL     1       5.941   6.274  15.930  0.00  0.00    +0.000 C 
BRANCH  11  12
ATOM     12  C   UNL     1       6.220   6.895  17.288  0.00  0.00    +0.000 C 
BRANCH  12  13
ATOM     13  C   UNL     1       7.548   7.646  17.279  0.00  0.00    +0.000 C 
BRANCH  13  14
ATOM     14  C   UNL     1       8.269   7.468  18.609  0.00  0.00    +0.000 C 
BRANCH  14  15
ATOM     15  S   UNL     1       7.923   5.827  19.296  0.00  0.00    +0.000 S 
ATOM     16  H   UNL     1       7.816   6.217  20.575  0.00  0.00    +0.000 HD
ENDBRANCH  14  15
ENDBRANCH  13  14
ENDBRANCH  12  13
ENDBRANCH  11  12
ENDBRANCH  10  11
ENDBRANCH   9  10
ENDBRANCH   8   9
ENDBRANCH   7   8
ENDBRANCH   6   7
ENDBRANCH   5   6
ENDBRANCH   4   5
ENDBRANCH   1   4
BRANCH   1  17
ATOM     17  C   UNL     1       2.657   5.027  20.515  0.00  0.00    +0.000 C 
BRANCH  17  18
ATOM     18  C   UNL     1       2.035   5.948  19.484  0.00  0.00    +0.000 C 
BRANCH  18  19
ATOM     19  C   UNL     1       3.064   6.484  18.510  0.00  0.00    +0.000 C 
BRANCH  19  20
ATOM     20  C   UNL     1       2.570   7.834  18.016  0.00  0.00    +0.000 C 
BRANCH  20  21
ATOM     21  C   UNL     1       1.684   8.487  19.050  0.00  0.00    +0.000 C 
BRANCH  21  22
ATOM     22  C   UNL     1       0.837   9.560  18.392  0.00  0.00    +0.000 C 
BRANCH  22  23
ATOM     23  C   UNL     1       1.327  10.926  18.823  0.00  0.00    +0.000 C 
BRANCH  23  24
ATOM     24  C   UNL     1       0.256  11.640  19.626  0.00  0.00    +0.000 C 
BRANCH  24  25
ATOM     25  C   UNL     1      -1.089  10.974  19.388  0.00  0.00    +0.000 C 
BRANCH  25  26
ATOM     26  C   UNL     1      -2.070  11.966  18.786  0.00  0.00    +0.000 C 
BRANCH  26  27
ATOM     27  C   UNL     1      -3.223  11.232  18.120  0.00  0.00    +0.000 C 
BRANCH  27  28
ATOM     28  C   UNL     1      -2.769   9.861  17.635  0.00  0.00    +0.000 C 
BRANCH  28  30
ATOM     29  C   UNL     1      -3.285  10.730  15.344  0.00  0.00    +0.000 C 
ATOM     30  C   UNL     1      -2.311   9.922  16.182  0.00  0.00    +0.000 C 
ENDBRANCH  28  30
ENDBRANCH  27  28
ENDBRANCH  26  27
ENDBRANCH  25  26
ENDBRANCH  24  25
ENDBRANCH  23  24
ENDBRANCH  22  23
ENDBRANCH  21  22
ENDBRANCH  20  21
ENDBRANCH  19  20
ENDBRANCH  18  19
ENDBRANCH  17  18
ENDBRANCH   1  17
TORSDOF 25
ENDMDL
MODEL 3
REMARK VINA RESULT:      -5.2      3.066      8.580
REMARK  Name = 
REMARK  28 active torsions:
REMARK  status: ('A' for Active; 'I' for Inactive)
REMARK    1  A    between atoms: C_1  and  C_2
REMARK    2  A    between atoms: C_2  and  C_3
REMARK    3  A    between atoms: C_3  and  C_4
REMARK    4  A    between atoms: C_4  and  C_5
REMARK    5  A    between atoms: C_5  and  C_6
REMARK    6  A    between atoms: C_6  and  C_7
REMARK    7  A    between atoms: C_7  and  C_8
REMARK    8  A    between atoms: C_8  and  C_9
REMARK    9  A    between atoms: C_9  and  C_10
REMARK   10  A    between atoms: C_10  and  C_11
REMARK   11  A    between atoms: C_11  and  C_12
REMARK   12  A    between atoms: C_12  and  C_13
REMARK   13  A    between atoms: C_13  and  C_14
REMARK   14  A    between atoms: C_14  and  N_15
REMARK   15  A    between atoms: N_15  and  C_16
REMARK   16  A    between atoms: N_15  and  C_17
REMARK   17  A    between atoms: N_15  and  C_18
REMARK   18  A    between atoms: C_18  and  C_19
REMARK   19  A    between atoms: C_19  and  C_20
REMARK   20  A    between atoms: C_20  and  C_21
REMARK   21  A    between atoms: C_21  and  C_22
REMARK   22  A    between atoms: C_22  and  C_23
REMARK   23  A    between atoms: C_23  and  C_24
REMARK   24  A    between atoms: C_24  and  C_25
REMARK   25  A    between atoms: C_25  and  C_26
REMARK   26  A    between atoms: C_26  and  C_27
REMARK   27  A    between atoms: C_27  and  C_28
REMARK   28  A    between atoms: C_28  and  S_29
REMARK                            x       y       z     vdW  Elec       q    Type
REMARK                         _______ _______ _______ _____ _____    ______ ____
ROOT
ATOM      1  N   UNL     1       5.681   5.718  16.966  0.00  0.00    +0.000 N 
ATOM      2  C   UNL     1       6.228   5.862  15.546  0.00  0.00    +0.000 C 
ATOM      3  C   UNL     1       4.359   6.478  17.099  0.00  0.00    +0.000 C 
ENDROOT
BRANCH   1   4
ATOM      4  C   UNL     1       6.708   6.250  17.993  0.00  0.00    +0.000 C 
BRANCH   4   5
ATOM      5  C   UNL     1       7.556   7.372  17.419  0.00  0.00    +0.000 C 
BRANCH   5   6
ATOM      6  C   UNL     1       8.374   8.067  18.491  0.00  0.00    +0.000 C 
BRANCH   6   7
ATOM      7  C   UNL     1       8.385   9.555  18.171  0.00  0.00    +0.000 C 
BRANCH   7   8
ATOM      8  C   UNL     1       9.521  10.253  18.888  0.00  0.00    +0.000 C 
BRANCH   8   9
ATOM      9  C   UNL     1      10.135  11.305  17.976  0.00  0.00    +0.000 C 
BRANCH   9  10
ATOM     10  C   UNL     1      11.163  12.116  18.745  0.00  0.00    +0.000 C 
BRANCH  10  11
ATOM     11  C   UNL     1      11.231  13.539  18.217  0.00  0.00    +0.000 C 
BRANCH  11  12
ATOM     12  C   UNL     1      11.530  14.506  19.349  0.00  0.00    +0.000 C 
BRANCH  12  13
ATOM     13  C   UNL     1      10.728  14.146  20.596  0.00  0.00    +0.000 C 
BRANCH  13  14
ATOM     14  C   UNL     1       9.336  14.760  20.530  0.00  0.00    +0.000 C 
BRANCH  14  15
ATOM     15  S   UNL     1       8.232  13.942  21.711  0.00  0.00    +0.000 S 
ATOM     16  H   UNL     1       7.293  13.587  20.822  0.00  0.00    +0.000 HD
ENDBRANCH  14  15
ENDBRANCH  13  14
ENDBRANCH  12  13
ENDBRANCH  11  12
ENDBRANCH  10  11
ENDBRANCH   9  10
ENDBRANCH   8   9
ENDBRANCH   7   8
ENDBRANCH   6   7
ENDBRANCH   5   6
ENDBRANCH   4   5
ENDBRANCH   1   4
BRANCH   1  17
ATOM     17  C   UNL     1       5.475   4.225  17.312  0.00  0.00    +0.000 C 
BRANCH  17  18
ATOM     18  C   UNL     1       4.241   4.008  18.166  0.00  0.00    +0.000 C 
BRANCH  18  19
ATOM     19  C   UNL     1       3.492   2.753  17.769  0.00  0.00    +0.000 C 
BRANCH  19  20
ATOM     20  C   UNL     1       2.856   2.180  19.025  0.00  0.00    +0.000 C 
BRANCH  20  21
ATOM     21  C   UNL     1       1.350   2.250  18.939  0.00  0.00    +0.000 C 
BRANCH  21  22
ATOM     22  C   UNL     1       0.860   3.528  19.596  0.00  0.00    +0.000 C 
BRANCH  22  23
ATOM     23  C   UNL     1       1.559   3.713  20.926  0.00  0.00    +0.000 C 
BRANCH  23  24
ATOM     24  C   UNL     1       1.972   5.161  21.107  0.00  0.00    +0.000 C 
BRANCH  24  25
ATOM     25  C   UNL     1       2.063   5.839  19.750  0.00  0.00    +0.000 C 
BRANCH  25  26
ATOM     26  C   UNL     1       2.095   7.349  19.916  0.00  0.00    +0.000 C 
BRANCH  26  27
ATOM     27  C   UNL     1       1.182   7.775  21.056  0.00  0.00    +0.000 C 
BRANCH  27  28
ATOM     28  C   UNL     1       0.687   9.198  20.834  0.00  0.00    +0.000 C 
BRANCH  28  30
ATOM     29  C   UNL     1       0.150  10.915  19.093  0.00  0.00    +0.000 C 
ATOM     30  C   UNL     1       0.907   9.633  19.390  0.00  0.00    +0.000 C 
ENDBRANCH  28  30
ENDBRANCH  27  28
ENDBRANCH  26  27
ENDBRANCH  25  26
ENDBRANCH  24  25
ENDBRANCH  23  24
ENDBRANCH  22  23
ENDBRANCH  21  22
ENDBRANCH  20  21
ENDBRANCH  19  20
ENDBRANCH  18  19
ENDBRANCH  17  18
ENDBRANCH   1  17
TORSDOF 25
ENDMDL
MODEL 4
REMARK VINA RESULT:      -5.1      3.143      8.374
REMARK  Name = 
REMARK  28 active torsions:
REMARK  status: ('A' for Active; 'I' for Inactive)
REMARK    1  A    between atoms: C_1  and  C_2
REMARK    2  A    between atoms: C_2  and  C_3
REMARK    3  A    between atoms: C_3  and  C_4
REMARK    4  A    between atoms: C_4  and  C_5
REMARK    5  A    between atoms: C_5  and  C_6
REMARK    6  A    between atoms: C_6  and  C_7
REMARK    7  A    between atoms: C_7  and  C_8
REMARK    8  A    between atoms: C_8  and  C_9
REMARK    9  A    between atoms: C_9  and  C_10
REMARK   10  A    between atoms: C_10  and  C_11
REMARK   11  A    between atoms: C_11  and  C_12
REMARK   12  A    between atoms: C_12  and  C_13
REMARK   13  A    between atoms: C_13  and  C_14
REMARK   14  A    between atoms: C_14  and  N_15
REMARK   15  A    between atoms: N_15  and  C_16
REMARK   16  A    between atoms: N_15  and  C_17
REMARK   17  A    between atoms: N_15  and  C_18
REMARK   18  A    between atoms: C_18  and  C_19
REMARK   19  A    between atoms: C_19  and  C_20
REMARK   20  A    between atoms: C_20  and  C_21
REMARK   21  A    between atoms: C_21  and  C_22
REMARK   22  A    between atoms: C_22  and  C_23
REMARK   23  A    between atoms: C_23  and  C_24
REMARK   24  A    between atoms: C_24  and  C_25
REMARK   25  A    between atoms: C_25  and  C_26
REMARK   26  A    between atoms: C_26  and  C_27
REMARK   27  A    between atoms: C_27  and  C_28
REMARK   28  A    between atoms: C_28  and  S_29
REMARK                            x       y       z     vdW  Elec       q    Type
REMARK                         _______ _______ _______ _____ _____    ______ ____
ROOT
ATOM      1  N   UNL     1       2.901   4.070  18.814  0.00  0.00    +0.000 N 
ATOM      2  C   UNL     1       2.027   3.356  19.845  0.00  0.00    +0.000 C 
ATOM      3  C   UNL     1       2.489   3.657  17.399  0.00  0.00    +0.000 C 
ENDROOT
BRANCH   1   4
ATOM      4  C   UNL     1       4.393   3.740  19.054  0.00  0.00    +0.000 C 
BRANCH   4   5
ATOM      5  C   UNL     1       5.243   4.994  19.163  0.00  0.00    +0.000 C 
BRANCH   5   6
ATOM      6  C   UNL     1       6.383   4.992  18.163  0.00  0.00    +0.000 C 
BRANCH   6   7
ATOM      7  C   UNL     1       6.579   6.425  17.686  0.00  0.00    +0.000 C 
BRANCH   7   8
ATOM      8  C   UNL     1       7.844   7.019  18.270  0.00  0.00    +0.000 C 
BRANCH   8   9
ATOM      9  C   UNL     1       8.056   8.420  17.717  0.00  0.00    +0.000 C 
BRANCH   9  10
ATOM     10  C   UNL     1       8.805   9.265  18.732  0.00  0.00    +0.000 C 
BRANCH  10  11
ATOM     11  C   UNL     1       8.806  10.728  18.319  0.00  0.00    +0.000 C 
BRANCH  11  12
ATOM     12  C   UNL     1      10.207  11.160  17.922  0.00  0.00    +0.000 C 
BRANCH  12  13
ATOM     13  C   UNL     1      10.867  11.958  19.043  0.00  0.00    +0.000 C 
BRANCH  13  14
ATOM     14  C   UNL     1       9.823  12.750  19.819  0.00  0.00    +0.000 C 
BRANCH  14  15
ATOM     15  S   UNL     1       9.689  14.431  19.156  0.00  0.00    +0.000 S 
ATOM     16  H   UNL     1      10.225  15.056  20.215  0.00  0.00    +0.000 HD
ENDBRANCH  14  15
ENDBRANCH  13  14
ENDBRANCH  12  13
ENDBRANCH  11  12
ENDBRANCH  10  11
ENDBRANCH   9  10
ENDBRANCH   8   9
ENDBRANCH   7   8
ENDBRANCH   6   7
ENDBRANCH   5   6
ENDBRANCH   4   5
ENDBRANCH   1   4
BRANCH   1  17
ATOM     17  C   UNL     1       2.779   5.603  18.978  0.00  0.00    +0.000 C 
BRANCH  17  18
ATOM     18  C   UNL     1       2.814   6.319  17.642  0.00  0.00    +0.000 C 
BRANCH  18  19
ATOM     19  C   UNL     1       3.124   7.794  17.799  0.00  0.00    +0.000 C 
BRANCH  19  20
ATOM     20  C   UNL     1       1.804   8.523  17.991  0.00  0.00    +0.000 C 
BRANCH  20  21
ATOM     21  C   UNL     1       2.011  10.018  17.941  0.00  0.00    +0.000 C 
BRANCH  21  22
ATOM     22  C   UNL     1       1.157  10.687  19.003  0.00  0.00    +0.000 C 
BRANCH  22  23
ATOM     23  C   UNL     1       1.113  12.179  18.751  0.00  0.00    +0.000 C 
BRANCH  23  24
ATOM     24  C   UNL     1       0.393  12.883  19.886  0.00  0.00    +0.000 C 
BRANCH  24  25
ATOM     25  C   UNL     1      -0.589  11.926  20.540  0.00  0.00    +0.000 C 
BRANCH  25  26
ATOM     26  C   UNL     1      -0.212  11.696  21.994  0.00  0.00    +0.000 C 
BRANCH  26  27
ATOM     27  C   UNL     1      -0.884  10.437  22.521  0.00  0.00    +0.000 C 
BRANCH  27  28
ATOM     28  C   UNL     1       0.139   9.536  23.201  0.00  0.00    +0.000 C 
BRANCH  28  30
ATOM     29  C   UNL     1       0.790   7.891  21.429  0.00  0.00    +0.000 C 
ATOM     30  C   UNL     1       1.227   9.111  22.221  0.00  0.00    +0.000 C 
ENDBRANCH  28  30
ENDBRANCH  27  28
ENDBRANCH  26  27
ENDBRANCH  25  26
ENDBRANCH  24  25
ENDBRANCH  23  24
ENDBRANCH  22  23
ENDBRANCH  21  22
ENDBRANCH  20  21
ENDBRANCH  19  20
ENDBRANCH  18  19
ENDBRANCH  17  18
ENDBRANCH   1  17
TORSDOF 25
ENDMDL
MODEL 5
REMARK VINA RESULT:      -5.1      3.347      6.141
REMARK  Name = 
REMARK  28 active torsions:
REMARK  status: ('A' for Active; 'I' for Inactive)
REMARK    1  A    between atoms: C_1  and  C_2
REMARK    2  A    between atoms: C_2  and  C_3
REMARK    3  A    between atoms: C_3  and  C_4
REMARK    4  A    between atoms: C_4  and  C_5
REMARK    5  A    between atoms: C_5  and  C_6
REMARK    6  A    between atoms: C_6  and  C_7
REMARK    7  A    between atoms: C_7  and  C_8
REMARK    8  A    between atoms: C_8  and  C_9
REMARK    9  A    between atoms: C_9  and  C_10
REMARK   10  A    between atoms: C_10  and  C_11
REMARK   11  A    between atoms: C_11  and  C_12
REMARK   12  A    between atoms: C_12  and  C_13
REMARK   13  A    between atoms: C_13  and  C_14
REMARK   14  A    between atoms: C_14  and  N_15
REMARK   15  A    between atoms: N_15  and  C_16
REMARK   16  A    between atoms: N_15  and  C_17
REMARK   17  A    between atoms: N_15  and  C_18
REMARK   18  A    between atoms: C_18  and  C_19
REMARK   19  A    between atoms: C_19  and  C_20
REMARK   20  A    between atoms: C_20  and  C_21
REMARK   21  A    between atoms: C_21  and  C_22
REMARK   22  A    between atoms: C_22  and  C_23
REMARK   23  A    between atoms: C_23  and  C_24
REMARK   24  A    between atoms: C_24  and  C_25
REMARK   25  A    between atoms: C_25  and  C_26
REMARK   26  A    between atoms: C_26  and  C_27
REMARK   27  A    between atoms: C_27  and  C_28
REMARK   28  A    between atoms: C_28  and  S_29
REMARK                            x       y       z     vdW  Elec       q    Type
REMARK                         _______ _______ _______ _____ _____    ______ ____
ROOT
ATOM      1  N   UNL     1       5.300   4.427  17.887  0.00  0.00    +0.000 N 
ATOM      2  C   UNL     1       5.387   3.672  19.214  0.00  0.00    +0.000 C 
ATOM      3  C   UNL     1       6.662   4.421  17.189  0.00  0.00    +0.000 C 
ENDROOT
BRANCH   1   4
ATOM      4  C   UNL     1       4.828   5.880  18.127  0.00  0.00    +0.000 C 
BRANCH   4   5
ATOM      5  C   UNL     1       4.997   6.744  16.890  0.00  0.00    +0.000 C 
BRANCH   5   6
ATOM      6  C   UNL     1       3.731   7.511  16.559  0.00  0.00    +0.000 C 
BRANCH   6   7
ATOM      7  C   UNL     1       3.189   8.089  17.859  0.00  0.00    +0.000 C 
BRANCH   7   8
ATOM      8  C   UNL     1       1.811   8.682  17.653  0.00  0.00    +0.000 C 
BRANCH   8   9
ATOM      9  C   UNL     1       1.546   9.743  18.709  0.00  0.00    +0.000 C 
BRANCH   9  10
ATOM     10  C   UNL     1       0.442  10.673  18.238  0.00  0.00    +0.000 C 
BRANCH  10  11
ATOM     11  C   UNL     1      -0.743   9.880  17.711  0.00  0.00    +0.000 C 
BRANCH  11  12
ATOM     12  C   UNL     1      -1.993  10.212  18.508  0.00  0.00    +0.000 C 
BRANCH  12  13
ATOM     13  C   UNL     1      -2.059  11.704  18.819  0.00  0.00    +0.000 C 
BRANCH  13  14
ATOM     14  C   UNL     1      -3.481  12.109  19.185  0.00  0.00    +0.000 C 
BRANCH  14  15
ATOM     15  S   UNL     1      -4.643  11.534  17.920  0.00  0.00    +0.000 S 
ATOM     16  H   UNL     1      -4.373  12.490  17.019  0.00  0.00    +0.000 HD
ENDBRANCH  14  15
ENDBRANCH  13  14
ENDBRANCH  12  13
ENDBRANCH  11  12
ENDBRANCH  10  11
ENDBRANCH   9  10
ENDBRANCH   8   9
ENDBRANCH   7   8
ENDBRANCH   6   7
ENDBRANCH   5   6
ENDBRANCH   4   5
ENDBRANCH   1   4
BRANCH   1  17
ATOM     17  C   UNL     1       4.230   3.783  16.975  0.00  0.00    +0.000 C 
BRANCH  17  18
ATOM     18  C   UNL     1       3.185   3.030  17.774  0.00  0.00    +0.000 C 
BRANCH  18  19
ATOM     19  C   UNL     1       1.812   3.657  17.644  0.00  0.00    +0.000 C 
BRANCH  19  20
ATOM     20  C   UNL     1       0.855   2.851  18.508  0.00  0.00    +0.000 C 
BRANCH  20  21
ATOM     21  C   UNL     1       1.409   2.686  19.903  0.00  0.00    +0.000 C 
BRANCH  21  22
ATOM     22  C   UNL     1       1.096   3.921  20.726  0.00  0.00    +0.000 C 
BRANCH  22  23
ATOM     23  C   UNL     1       2.371   4.695  20.983  0.00  0.00    +0.000 C 
BRANCH  23  24
ATOM     24  C   UNL     1       2.251   6.106  20.440  0.00  0.00    +0.000 C 
BRANCH  24  25
ATOM     25  C   UNL     1       0.861   6.647  20.732  0.00  0.00    +0.000 C 
BRANCH  25  26
ATOM     26  C   UNL     1       0.948   7.858  21.646  0.00  0.00    +0.000 C 
BRANCH  26  27
ATOM     27  C   UNL     1      -0.364   8.627  21.631  0.00  0.00    +0.000 C 
BRANCH  27  28
ATOM     28  C   UNL     1      -0.107  10.115  21.835  0.00  0.00    +0.000 C 
BRANCH  28  30
ATOM     29  C   UNL     1      -1.722  11.848  22.646  0.00  0.00    +0.000 C 
ATOM     30  C   UNL     1      -0.885  10.643  23.035  0.00  0.00    +0.000 C 
ENDBRANCH  28  30
ENDBRANCH  27  28
ENDBRANCH  26  27
ENDBRANCH  25  26
ENDBRANCH  24  25
ENDBRANCH  23  24
ENDBRANCH  22  23
ENDBRANCH  21  22
ENDBRANCH  20  21
ENDBRANCH  19  20
ENDBRANCH  18  19
ENDBRANCH  17  18
ENDBRANCH   1  17
TORSDOF 25
ENDMDL
MODEL 6
REMARK VINA RESULT:      -5.0      1.295      1.880
REMARK  Name = 
REMARK  28 active torsions:
REMARK  status: ('A' for Active; 'I' for Inactive)
REMARK    1  A    between atoms: C_1  and  C_2
REMARK    2  A    between atoms: C_2  and  C_3
REMARK    3  A    between atoms: C_3  and  C_4
REMARK    4  A    between atoms: C_4  and  C_5
REMARK    5  A    between atoms: C_5  and  C_6
REMARK    6  A    between atoms: C_6  and  C_7
REMARK    7  A    between atoms: C_7  and  C_8
REMARK    8  A    between atoms: C_8  and  C_9
REMARK    9  A    between atoms: C_9  and  C_10
REMARK   10  A    between atoms: C_10  and  C_11
REMARK   11  A    between atoms: C_11  and  C_12
REMARK   12  A    between atoms: C_12  and  C_13
REMARK   13  A    between atoms: C_13  and  C_14
REMARK   14  A    between atoms: C_14  and  N_15
REMARK   15  A    between atoms: N_15  and  C_16
REMARK   16  A    between atoms: N_15  and  C_17
REMARK   17  A    between atoms: N_15  and  C_18
REMARK   18  A    between atoms: C_18  and  C_19
REMARK   19  A    between atoms: C_19  and  C_20
REMARK   20  A    between atoms: C_20  and  C_21
REMARK   21  A    between atoms: C_21  and  C_22
REMARK   22  A    between atoms: C_22  and  C_23
REMARK   23  A    between atoms: C_23  and  C_24
REMARK   24  A    between atoms: C_24  and  C_25
REMARK   25  A    between atoms: C_25  and  C_26
REMARK   26  A    between atoms: C_26  and  C_27
REMARK   27  A    between atoms: C_27  and  C_28
REMARK   28  A    between atoms: C_28  and  S_29
REMARK                            x       y       z     vdW  Elec       q    Type
REMARK                         _______ _______ _______ _____ _____    ______ ____
ROOT
ATOM      1  N   UNL     1       2.634   3.601  19.245  0.00  0.00    +0.000 N 
ATOM      2  C   UNL     1       1.641   2.442  19.159  0.00  0.00    +0.000 C 
ATOM      3  C   UNL     1       2.273   4.517  20.417  0.00  0.00    +0.000 C 
ENDROOT
BRANCH   1   4
ATOM      4  C   UNL     1       2.637   4.403  17.922  0.00  0.00    +0.000 C 
BRANCH   4   5
ATOM      5  C   UNL     1       2.046   5.791  18.097  0.00  0.00    +0.000 C 
BRANCH   5   6
ATOM      6  C   UNL     1       2.881   6.852  17.406  0.00  0.00    +0.000 C 
BRANCH   6   7
ATOM      7  C   UNL     1       3.134   7.966  18.412  0.00  0.00    +0.000 C 
BRANCH   7   8
ATOM      8  C   UNL     1       1.829   8.551  18.910  0.00  0.00    +0.000 C 
BRANCH   8   9
ATOM      9  C   UNL     1       1.292   9.547  17.893  0.00  0.00    +0.000 C 
BRANCH   9  10
ATOM     10  C   UNL     1      -0.165   9.852  18.191  0.00  0.00    +0.000 C 
BRANCH  10  11
ATOM     11  C   UNL     1      -0.321  11.263  18.732  0.00  0.00    +0.000 C 
BRANCH  11  12
ATOM     12  C   UNL     1      -1.534  11.933  18.109  0.00  0.00    +0.000 C 
BRANCH  12  13
ATOM     13  C   UNL     1      -2.750  11.014  18.164  0.00  0.00    +0.000 C 
BRANCH  13  14
ATOM     14  C   UNL     1      -3.758  11.399  17.089  0.00  0.00    +0.000 C 
BRANCH  14  15
ATOM     15  S   UNL     1      -5.444  11.293  17.743  0.00  0.00    +0.000 S 
ATOM     16  H   UNL     1      -5.933  10.500  16.778  0.00  0.00    +0.000 HD
ENDBRANCH  14  15
ENDBRANCH  13  14
ENDBRANCH  12  13
ENDBRANCH  11  12
ENDBRANCH  10  11
ENDBRANCH   9  10
ENDBRANCH   8   9
ENDBRANCH   7   8
ENDBRANCH   6   7
ENDBRANCH   5   6
ENDBRANCH   4   5
ENDBRANCH   1   4
BRANCH   1  17
ATOM     17  C   UNL     1       4.073   3.062  19.413  0.00  0.00    +0.000 C 
BRANCH  17  18
ATOM     18  C   UNL     1       5.048   3.752  18.478  0.00  0.00    +0.000 C 
BRANCH  18  19
ATOM     19  C   UNL     1       5.873   4.801  19.194  0.00  0.00    +0.000 C 
BRANCH  19  20
ATOM     20  C   UNL     1       7.197   4.927  18.457  0.00  0.00    +0.000 C 
BRANCH  20  21
ATOM     21  C   UNL     1       6.971   5.358  17.028  0.00  0.00    +0.000 C 
BRANCH  21  22
ATOM     22  C   UNL     1       6.847   6.869  16.964  0.00  0.00    +0.000 C 
BRANCH  22  23
ATOM     23  C   UNL     1       7.677   7.492  18.066  0.00  0.00    +0.000 C 
BRANCH  23  24
ATOM     24  C   UNL     1       7.895   8.968  17.791  0.00  0.00    +0.000 C 
BRANCH  24  25
ATOM     25  C   UNL     1       9.078   9.468  18.602  0.00  0.00    +0.000 C 
BRANCH  25  26
ATOM     26  C   UNL     1       9.215  10.974  18.461  0.00  0.00    +0.000 C 
BRANCH  26  27
ATOM     27  C   UNL     1      10.370  11.482  19.311  0.00  0.00    +0.000 C 
BRANCH  27  28
ATOM     28  C   UNL     1      11.621  11.650  18.458  0.00  0.00    +0.000 C 
BRANCH  28  30
ATOM     29  C   UNL     1      11.808  13.411  16.689  0.00  0.00    +0.000 C 
ATOM     30  C   UNL     1      11.896  13.123  18.177  0.00  0.00    +0.000 C 
ENDBRANCH  28  30
ENDBRANCH  27  28
ENDBRANCH  26  27
ENDBRANCH  25  26
ENDBRANCH  24  25
ENDBRANCH  23  24
ENDBRANCH  22  23
ENDBRANCH  21  22
ENDBRANCH  20  21
ENDBRANCH  19  20
ENDBRANCH  18  19
ENDBRANCH  17  18
ENDBRANCH   1  17
TORSDOF 25
ENDMDL
MODEL 7
REMARK VINA RESULT:      -5.0      3.980      8.604
REMARK  Name = 
REMARK  28 active torsions:
REMARK  status: ('A' for Active; 'I' for Inactive)
REMARK    1  A    between atoms: C_1  and  C_2
REMARK    2  A    between atoms: C_2  and  C_3
REMARK    3  A    between atoms: C_3  and  C_4
REMARK    4  A    between atoms: C_4  and  C_5
REMARK    5  A    between atoms: C_5  and  C_6
REMARK    6  A    between atoms: C_6  and  C_7
REMARK    7  A    between atoms: C_7  and  C_8
REMARK    8  A    between atoms: C_8  and  C_9
REMARK    9  A    between atoms: C_9  and  C_10
REMARK   10  A    between atoms: C_10  and  C_11
REMARK   11  A    between atoms: C_11  and  C_12
REMARK   12  A    between atoms: C_12  and  C_13
REMARK   13  A    between atoms: C_13  and  C_14
REMARK   14  A    between atoms: C_14  and  N_15
REMARK   15  A    between atoms: N_15  and  C_16
REMARK   16  A    between atoms: N_15  and  C_17
REMARK   17  A    between atoms: N_15  and  C_18
REMARK   18  A    between atoms: C_18  and  C_19
REMARK   19  A    between atoms: C_19  and  C_20
REMARK   20  A    between atoms: C_20  and  C_21
REMARK   21  A    between atoms: C_21  and  C_22
REMARK   22  A    between atoms: C_22  and  C_23
REMARK   23  A    between atoms: C_23  and  C_24
REMARK   24  A    between atoms: C_24  and  C_25
REMARK   25  A    between atoms: C_25  and  C_26
REMARK   26  A    between atoms: C_26  and  C_27
REMARK   27  A    between atoms: C_27  and  C_28
REMARK   28  A    between atoms: C_28  and  S_29
REMARK                            x       y       z     vdW  Elec       q    Type
REMARK                         _______ _______ _______ _____ _____    ______ ____
ROOT
ATOM      1  N   UNL     1       2.107   3.664  19.767  0.00  0.00    +0.000 N 
ATOM      2  C   UNL     1       1.363   2.778  20.765  0.00  0.00    +0.000 C 
ATOM      3  C   UNL     1       1.193   4.012  18.590  0.00  0.00    +0.000 C 
ENDROOT
BRANCH   1   4
ATOM      4  C   UNL     1       3.381   2.947  19.260  0.00  0.00    +0.000 C 
BRANCH   4   5
ATOM      5  C   UNL     1       4.644   3.711  19.620  0.00  0.00    +0.000 C 
BRANCH   5   6
ATOM      6  C   UNL     1       5.471   4.044  18.393  0.00  0.00    +0.000 C 
BRANCH   6   7
ATOM      7  C   UNL     1       4.515   4.520  17.307  0.00  0.00    +0.000 C 
BRANCH   7   8
ATOM      8  C   UNL     1       4.281   6.012  17.411  0.00  0.00    +0.000 C 
BRANCH   8   9
ATOM      9  C   UNL     1       5.218   6.745  16.463  0.00  0.00    +0.000 C 
BRANCH   9  10
ATOM     10  C   UNL     1       5.503   5.879  15.249  0.00  0.00    +0.000 C 
BRANCH  10  11
ATOM     11  C   UNL     1       6.956   5.433  15.235  0.00  0.00    +0.000 C 
BRANCH  11  12
ATOM     12  C   UNL     1       7.275   4.722  13.931  0.00  0.00    +0.000 C 
BRANCH  12  13
ATOM     13  C   UNL     1       6.220   3.665  13.617  0.00  0.00    +0.000 C 
BRANCH  13  14
ATOM     14  C   UNL     1       6.200   3.360  12.125  0.00  0.00    +0.000 C 
BRANCH  14  15
ATOM     15  S   UNL     1       4.493   3.175  11.546  0.00  0.00    +0.000 S 
ATOM     16  H   UNL     1       4.786   3.051  10.243  0.00  0.00    +0.000 HD
ENDBRANCH  14  15
ENDBRANCH  13  14
ENDBRANCH  12  13
ENDBRANCH  11  12
ENDBRANCH  10  11
ENDBRANCH   9  10
ENDBRANCH   8   9
ENDBRANCH   7   8
ENDBRANCH   6   7
ENDBRANCH   5   6
ENDBRANCH   4   5
ENDBRANCH   1   4
BRANCH   1  17
ATOM     17  C   UNL     1       2.600   4.955  20.460  0.00  0.00    +0.000 C 
BRANCH  17  18
ATOM     18  C   UNL     1       1.545   6.044  20.443  0.00  0.00    +0.000 C 
BRANCH  18  19
ATOM     19  C   UNL     1       2.153   7.419  20.259  0.00  0.00    +0.000 C 
BRANCH  19  20
ATOM     20  C   UNL     1       1.060   8.443  20.522  0.00  0.00    +0.000 C 
BRANCH  20  21
ATOM     21  C   UNL     1       0.889   8.668  22.006  0.00  0.00    +0.000 C 
BRANCH  21  22
ATOM     22  C   UNL     1      -0.020   9.861  22.239  0.00  0.00    +0.000 C 
BRANCH  22  23
ATOM     23  C   UNL     1       0.426  11.015  21.367  0.00  0.00    +0.000 C 
BRANCH  23  24
ATOM     24  C   UNL     1      -0.761  11.607  20.629  0.00  0.00    +0.000 C 
BRANCH  24  25
ATOM     25  C   UNL     1      -0.315  12.107  19.265  0.00  0.00    +0.000 C 
BRANCH  25  26
ATOM     26  C   UNL     1      -0.694  11.107  18.187  0.00  0.00    +0.000 C 
BRANCH  26  27
ATOM     27  C   UNL     1      -2.130  11.331  17.738  0.00  0.00    +0.000 C 
BRANCH  27  28
ATOM     28  C   UNL     1      -2.823   9.997  17.494  0.00  0.00    +0.000 C 
BRANCH  28  30
ATOM     29  C   UNL     1      -3.312  10.690  15.138  0.00  0.00    +0.000 C 
ATOM     30  C   UNL     1      -2.738   9.600  16.025  0.00  0.00    +0.000 C 
ENDBRANCH  28  30
ENDBRANCH  27  28
ENDBRANCH  26  27
ENDBRANCH  25  26
ENDBRANCH  24  25
ENDBRANCH  23  24
ENDBRANCH  22  23
ENDBRANCH  21  22
ENDBRANCH  20  21
ENDBRANCH  19  20
ENDBRANCH  18  19
ENDBRANCH  17  18
ENDBRANCH   1  17
TORSDOF 25
ENDMDL
MODEL 8
REMARK VINA RESULT:      -5.0      3.607      5.524
REMARK  Name = 
REMARK  28 active torsions:
REMARK  status: ('A' for Active; 'I' for Inactive)
REMARK    1  A    between atoms: C_1  and  C_2
REMARK    2  A    between atoms: C_2  and  C_3
REMARK    3  A    between atoms: C_3  and  C_4
REMARK    4  A    between atoms: C_4  and  C_5
REMARK    5  A    between atoms: C_5  and  C_6
REMARK    6  A    between atoms: C_6  and  C_7
REMARK    7  A    between atoms: C_7  and  C_8
REMARK    8  A    between atoms: C_8  and  C_9
REMARK    9  A    between atoms: C_9  and  C_10
REMARK   10  A    between atoms: C_10  and  C_11
REMARK   11  A    between atoms: C_11  and  C_12
REMARK   12  A    between atoms: C_12  and  C_13
REMARK   13  A    between atoms: C_13  and  C_14
REMARK   14  A    between atoms: C_14  and  N_15
REMARK   15  A    between atoms: N_15  and  C_16
REMARK   16  A    between atoms: N_15  and  C_17
REMARK   17  A    between atoms: N_15  and  C_18
REMARK   18  A    between atoms: C_18  and  C_19
REMARK   19  A    between atoms: C_19  and  C_20
REMARK   20  A    between atoms: C_20  and  C_21
REMARK   21  A    between atoms: C_21  and  C_22
REMARK   22  A    between atoms: C_22  and  C_23
REMARK   23  A    between atoms: C_23  and  C_24
REMARK   24  A    between atoms: C_24  and  C_25
REMARK   25  A    between atoms: C_25  and  C_26
REMARK   26  A    between atoms: C_26  and  C_27
REMARK   27  A    between atoms: C_27  and  C_28
REMARK   28  A    between atoms: C_28  and  S_29
REMARK                            x       y       z     vdW  Elec       q    Type
REMARK                         _______ _______ _______ _____ _____    ______ ____
ROOT
ATOM      1  N   UNL     1       1.611   3.262  20.204  0.00  0.00    +0.000 N 
ATOM      2  C   UNL     1       0.899   2.409  19.154  0.00  0.00    +0.000 C 
ATOM      3  C   UNL     1       1.574   2.560  21.564  0.00  0.00    +0.000 C 
ENDROOT
BRANCH   1   4
ATOM      4  C   UNL     1       0.947   4.656  20.303  0.00  0.00    +0.000 C 
BRANCH   4   5
ATOM      5  C   UNL     1       1.801   5.637  21.087  0.00  0.00    +0.000 C 
BRANCH   5   6
ATOM      6  C   UNL     1       1.735   7.036  20.503  0.00  0.00    +0.000 C 
BRANCH   6   7
ATOM      7  C   UNL     1       0.667   7.805  21.269  0.00  0.00    +0.000 C 
BRANCH   7   8
ATOM      8  C   UNL     1       1.222   9.108  21.805  0.00  0.00    +0.000 C 
BRANCH   8   9
ATOM      9  C   UNL     1       0.925  10.233  20.826  0.00  0.00    +0.000 C 
BRANCH   9  10
ATOM     10  C   UNL     1      -0.421   9.998  20.164  0.00  0.00    +0.000 C 
BRANCH  10  11
ATOM     11  C   UNL     1      -1.096  11.318  19.830  0.00  0.00    +0.000 C 
BRANCH  11  12
ATOM     12  C   UNL     1      -0.190  12.480  20.200  0.00  0.00    +0.000 C 
BRANCH  12  13
ATOM     13  C   UNL     1      -0.746  13.794  19.662  0.00  0.00    +0.000 C 
BRANCH  13  14
ATOM     14  C   UNL     1       0.064  14.971  20.189  0.00  0.00    +0.000 C 
BRANCH  14  15
ATOM     15  S   UNL     1       0.022  15.001  22.000  0.00  0.00    +0.000 S 
ATOM     16  H   UNL     1       0.250  16.316  22.136  0.00  0.00    +0.000 HD
ENDBRANCH  14  15
ENDBRANCH  13  14
ENDBRANCH  12  13
ENDBRANCH  11  12
ENDBRANCH  10  11
ENDBRANCH   9  10
ENDBRANCH   8   9
ENDBRANCH   7   8
ENDBRANCH   6   7
ENDBRANCH   5   6
ENDBRANCH   4   5
ENDBRANCH   1   4
BRANCH   1  17
ATOM     17  C   UNL     1       3.074   3.523  19.778  0.00  0.00    +0.000 C 
BRANCH  17  18
ATOM     18  C   UNL     1       3.252   3.426  18.275  0.00  0.00    +0.000 C 
BRANCH  18  19
ATOM     19  C   UNL     1       3.069   4.768  17.596  0.00  0.00    +0.000 C 
BRANCH  19  20
ATOM     20  C   UNL     1       4.147   5.701  18.124  0.00  0.00    +0.000 C 
BRANCH  20  21
ATOM     21  C   UNL     1       4.344   6.869  17.188  0.00  0.00    +0.000 C 
BRANCH  21  22
ATOM     22  C   UNL     1       5.259   6.460  16.048  0.00  0.00    +0.000 C 
BRANCH  22  23
ATOM     23  C   UNL     1       6.469   5.741  16.603  0.00  0.00    +0.000 C 
BRANCH  23  24
ATOM     24  C   UNL     1       6.459   4.285  16.176  0.00  0.00    +0.000 C 
BRANCH  24  25
ATOM     25  C   UNL     1       6.819   4.184  14.703  0.00  0.00    +0.000 C 
BRANCH  25  26
ATOM     26  C   UNL     1       5.585   3.855  13.880  0.00  0.00    +0.000 C 
BRANCH  26  27
ATOM     27  C   UNL     1       5.936   3.797  12.401  0.00  0.00    +0.000 C 
BRANCH  27  28
ATOM     28  C   UNL     1       5.126   2.708  11.708  0.00  0.00    +0.000 C 
BRANCH  28  30
ATOM     29  C   UNL     1       7.346   1.906  10.873  0.00  0.00    +0.000 C 
ATOM     30  C   UNL     1       5.992   1.488  11.417  0.00  0.00    +0.000 C 
ENDBRANCH  28  30
ENDBRANCH  27  28
ENDBRANCH  26  27
ENDBRANCH  25  26
ENDBRANCH  24  25
ENDBRANCH  23  24
ENDBRANCH  22  23
ENDBRANCH  21  22
ENDBRANCH  20  21
ENDBRANCH  19  20
ENDBRANCH  18  19
ENDBRANCH  17  18
ENDBRANCH   1  17
TORSDOF 25
ENDMDL
MODEL 9
REMARK VINA RESULT:      -5.0      3.445      6.450
REMARK  Name = 
REMARK  28 active torsions:
REMARK  status: ('A' for Active; 'I' for Inactive)
REMARK    1  A    between atoms: C_1  and  C_2
REMARK    2  A    between atoms: C_2  and  C_3
REMARK    3  A    between atoms: C_3  and  C_4
REMARK    4  A    between atoms: C_4  and  C_5
REMARK    5  A    between atoms: C_5  and  C_6
REMARK    6  A    between atoms: C_6  and  C_7
REMARK    7  A    between atoms: C_7  and  C_8
REMARK    8  A    between atoms: C_8  and  C_9
REMARK    9  A    between atoms: C_9  and  C_10
REMARK   10  A    between atoms: C_10  and  C_11
REMARK   11  A    between atoms: C_11  and  C_12
REMARK   12  A    between atoms: C_12  and  C_13
REMARK   13  A    between atoms: C_13  and  C_14
REMARK   14  A    between atoms: C_14  and  N_15
REMARK   15  A    between atoms: N_15  and  C_16
REMARK   16  A    between atoms: N_15  and  C_17
REMARK   17  A    between atoms: N_15  and  C_18
REMARK   18  A    between atoms: C_18  and  C_19
REMARK   19  A    between atoms: C_19  and  C_20
REMARK   20  A    between atoms: C_20  and  C_21
REMARK   21  A    between atoms: C_21  and  C_22
REMARK   22  A    between atoms: C_22  and  C_23
REMARK   23  A    between atoms: C_23  and  C_24
REMARK   24  A    between atoms: C_24  and  C_25
REMARK   25  A    between atoms: C_25  and  C_26
REMARK   26  A    between atoms: C_26  and  C_27
REMARK   27  A    between atoms: C_27  and  C_28
REMARK   28  A    between atoms: C_28  and  S_29
REMARK                            x       y       z     vdW  Elec       q    Type
REMARK                         _______ _______ _______ _____ _____    ______ ____
ROOT
ATOM      1  N   UNL     1       1.357   9.612  18.571  0.00  0.00    +0.000 N 
ATOM      2  C   UNL     1       1.141   9.380  20.067  0.00  0.00    +0.000 C 
ATOM      3  C   UNL     1       2.184  10.881  18.350  0.00  0.00    +0.000 C 
ENDROOT
BRANCH   1   4
ATOM      4  C   UNL     1      -0.004   9.727  17.845  0.00  0.00    +0.000 C 
BRANCH   4   5
ATOM      5  C   UNL     1      -1.118  10.151  18.788  0.00  0.00    +0.000 C 
BRANCH   5   6
ATOM      6  C   UNL     1      -1.389  11.641  18.709  0.00  0.00    +0.000 C 
BRANCH   6   7
ATOM      7  C   UNL     1      -2.881  11.825  18.464  0.00  0.00    +0.000 C 
BRANCH   7   8
ATOM      8  C   UNL     1      -3.380  10.849  17.419  0.00  0.00    +0.000 C 
BRANCH   8   9
ATOM      9  C   UNL     1      -4.822  11.174  17.060  0.00  0.00    +0.000 C 
BRANCH   9  10
ATOM     10  C   UNL     1      -5.658  11.262  18.325  0.00  0.00    +0.000 C 
BRANCH  10  11
ATOM     11  C   UNL     1      -7.028  11.849  18.025  0.00  0.00    +0.000 C 
BRANCH  11  12
ATOM     12  C   UNL     1      -7.530  12.647  19.215  0.00  0.00    +0.000 C 
BRANCH  12  13
ATOM     13  C   UNL     1      -6.558  12.543  20.387  0.00  0.00    +0.000 C 
BRANCH  13  14
ATOM     14  C   UNL     1      -7.318  12.506  21.707  0.00  0.00    +0.000 C 
BRANCH  14  15
ATOM     15  S   UNL     1      -6.242  13.038  23.065  0.00  0.00    +0.000 S 
ATOM     16  H   UNL     1      -5.255  13.523  22.297  0.00  0.00    +0.000 HD
ENDBRANCH  14  15
ENDBRANCH  13  14
ENDBRANCH  12  13
ENDBRANCH  11  12
ENDBRANCH  10  11
ENDBRANCH   9  10
ENDBRANCH   8   9
ENDBRANCH   7   8
ENDBRANCH   6   7
ENDBRANCH   5   6
ENDBRANCH   4   5
ENDBRANCH   1   4
BRANCH   1  17
ATOM     17  C   UNL     1       2.068   8.394  17.938  0.00  0.00    +0.000 C 
BRANCH  17  18
ATOM     18  C   UNL     1       2.657   7.473  18.989  0.00  0.00    +0.000 C 
BRANCH  18  19
ATOM     19  C   UNL     1       2.161   6.050  18.837  0.00  0.00    +0.000 C 
BRANCH  19  20
ATOM     20  C   UNL     1       2.004   5.468  20.233  0.00  0.00    +0.000 C 
BRANCH  20  21
ATOM     21  C   UNL     1       1.391   4.089  20.167  0.00  0.00    +0.000 C 
BRANCH  21  22
ATOM     22  C   UNL     1       1.340   3.621  18.725  0.00  0.00    +0.000 C 
BRANCH  22  23
ATOM     23  C   UNL     1       2.022   2.275  18.605  0.00  0.00    +0.000 C 
BRANCH  23  24
ATOM     24  C   UNL     1       3.431   2.444  18.069  0.00  0.00    +0.000 C 
BRANCH  24  25
ATOM     25  C   UNL     1       3.428   3.459  16.938  0.00  0.00    +0.000 C 
BRANCH  25  26
ATOM     26  C   UNL     1       4.840   3.954  16.671  0.00  0.00    +0.000 C 
BRANCH  26  27
ATOM     27  C   UNL     1       4.853   5.470  16.542  0.00  0.00    +0.000 C 
BRANCH  27  28
ATOM     28  C   UNL     1       6.010   6.059  17.339  0.00  0.00    +0.000 C 
BRANCH  28  30
ATOM     29  C   UNL     1       7.535   5.747  19.300  0.00  0.00    +0.000 C 
ATOM     30  C   UNL     1       6.372   5.163  18.518  0.00  0.00    +0.000 C 
ENDBRANCH  28  30
ENDBRANCH  27  28
ENDBRANCH  26  27
ENDBRANCH  25  26
ENDBRANCH  24  25
ENDBRANCH  23  24
ENDBRANCH  22  23
ENDBRANCH  21  22
ENDBRANCH  20  21
ENDBRANCH  19  20
ENDBRANCH  18  19
ENDBRANCH  17  18
ENDBRANCH   1  17
TORSDOF 25
ENDMDL
