MODEL 1
REMARK VINA RESULT:      -7.3      0.000      0.000
REMARK  Name = 
REMARK  7 active torsions:
REMARK  status: ('A' for Active; 'I' for Inactive)
REMARK    1  A    between atoms: C_1  and  C_2
REMARK    2  A    between atoms: C_2  and  C_3
REMARK    3  A    between atoms: C_2  and  N_10
REMARK    4  A    between atoms: C_3  and  C_4
REMARK    5  A    between atoms: N_10  and  C_11
REMARK    6  A    between atoms: C_11  and  C_12
REMARK    7  A    between atoms: C_17  and  O_18
REMARK                            x       y       z     vdW  Elec       q    Type
REMARK                         _______ _______ _______ _____ _____    ______ ____
ROOT
ATOM      1  N   UNL     1       5.935   3.917  16.934  0.00  0.00    +0.000 NA
ATOM      2  H   UNL     1       6.060   2.905  16.960  0.00  0.00    +0.000 HD
ENDROOT
BRANCH   1   4
ATOM      3  C   UNL     1       6.325   5.314  18.970  0.00  0.00    +0.000 C 
ATOM      4  C   UNL     1       5.363   4.381  18.214  0.00  0.00    +0.000 C 
BRANCH   4   5
ATOM      5  C   UNL     1       4.013   5.095  17.930  0.00  0.00    +0.000 C 
BRANCH   5   6
ATOM      6  C   UNL     1       2.838   4.473  18.658  0.00  0.00    +0.000 A 
ATOM      7  C   UNL     1       2.516   4.880  19.962  0.00  0.00    +0.000 A 
ATOM      8  C   UNL     1       1.491   4.247  20.665  0.00  0.00    +0.000 A 
ATOM      9  C   UNL     1       0.776   3.207  20.075  0.00  0.00    +0.000 A 
ATOM     10  C   UNL     1       1.068   2.813  18.771  0.00  0.00    +0.000 A 
ATOM     11  C   UNL     1       2.087   3.451  18.062  0.00  0.00    +0.000 A 
ENDBRANCH   5   6
ENDBRANCH   4   5
ENDBRANCH   1   4
BRANCH   1  12
ATOM     12  C   UNL     1       5.077   4.238  15.785  0.00  0.00    +0.000 C 
BRANCH  12  13
ATOM     13  C   UNL     1       5.852   4.296  14.489  0.00  0.00    +0.000 A 
ATOM     14  C   UNL     1       5.420   3.547  13.382  0.00  0.00    +0.000 A 
ATOM     15  C   UNL     1       6.151   3.543  12.192  0.00  0.00    +0.000 A 
ATOM     16  C   UNL     1       7.325   4.287  12.092  0.00  0.00    +0.000 A 
ATOM     17  C   UNL     1       7.767   5.040  13.177  0.00  0.00    +0.000 A 
ATOM     18  C   UNL     1       7.031   5.041  14.364  0.00  0.00    +0.000 A 
BRANCH  18  19
ATOM     19  O   UNL     1       7.473   5.777  15.429  0.00  0.00    +0.000 OA
ATOM     20  H   UNL     1       7.615   5.181  16.183  0.00  0.00    +0.000 HD
ENDBRANCH  18  19
ENDBRANCH  12  13
ENDBRANCH   1  12
TORSDOF 6
ENDMDL
MODEL 2
REMARK VINA RESULT:      -7.3      0.111      1.138
REMARK  Name = 
REMARK  7 active torsions:
REMARK  status: ('A' for Active; 'I' for Inactive)
REMARK    1  A    between atoms: C_1  and  C_2
REMARK    2  A    between atoms: C_2  and  C_3
REMARK    3  A    between atoms: C_2  and  N_10
REMARK    4  A    between atoms: C_3  and  C_4
REMARK    5  A    between atoms: N_10  and  C_11
REMARK    6  A    between atoms: C_11  and  C_12
REMARK    7  A    between atoms: C_17  and  O_18
REMARK                            x       y       z     vdW  Elec       q    Type
REMARK                         _______ _______ _______ _____ _____    ______ ____
ROOT
ATOM      1  N   UNL     1       6.031   3.955  16.944  0.00  0.00    +0.000 NA
ATOM      2  H   UNL     1       6.226   2.954  16.966  0.00  0.00    +0.000 HD
ENDROOT
BRANCH   1   4
ATOM      3  C   UNL     1       6.366   5.339  18.999  0.00  0.00    +0.000 C 
ATOM      4  C   UNL     1       5.443   4.376  18.232  0.00  0.00    +0.000 C 
BRANCH   4   5
ATOM      5  C   UNL     1       4.063   5.034  17.961  0.00  0.00    +0.000 C 
BRANCH   5   6
ATOM      6  C   UNL     1       2.922   4.366  18.702  0.00  0.00    +0.000 A 
ATOM      7  C   UNL     1       2.273   3.251  18.148  0.00  0.00    +0.000 A 
ATOM      8  C   UNL     1       1.166   2.691  18.787  0.00  0.00    +0.000 A 
ATOM      9  C   UNL     1       0.699   3.232  19.982  0.00  0.00    +0.000 A 
ATOM     10  C   UNL     1       1.353   4.321  20.556  0.00  0.00    +0.000 A 
ATOM     11  C   UNL     1       2.465   4.878  19.924  0.00  0.00    +0.000 A 
ENDBRANCH   5   6
ENDBRANCH   4   5
ENDBRANCH   1   4
BRANCH   1  12
ATOM     12  C   UNL     1       5.140   4.218  15.806  0.00  0.00    +0.000 C 
BRANCH  12  13
ATOM     13  C   UNL     1       5.888   4.287  14.495  0.00  0.00    +0.000 A 
ATOM     14  C   UNL     1       5.443   3.535  13.396  0.00  0.00    +0.000 A 
ATOM     15  C   UNL     1       6.150   3.542  12.191  0.00  0.00    +0.000 A 
ATOM     16  C   UNL     1       7.314   4.298  12.069  0.00  0.00    +0.000 A 
ATOM     17  C   UNL     1       7.769   5.054  13.147  0.00  0.00    +0.000 A 
ATOM     18  C   UNL     1       7.057   5.045  14.348  0.00  0.00    +0.000 A 
BRANCH  18  19
ATOM     19  O   UNL     1       7.512   5.783  15.406  0.00  0.00    +0.000 OA
ATOM     20  H   UNL     1       6.974   6.587  15.481  0.00  0.00    +0.000 HD
ENDBRANCH  18  19
ENDBRANCH  12  13
ENDBRANCH   1  12
TORSDOF 6
ENDMDL
MODEL 3
REMARK VINA RESULT:      -7.3      3.591      5.883
REMARK  Name = 
REMARK  7 active torsions:
REMARK  status: ('A' for Active; 'I' for Inactive)
REMARK    1  A    between atoms: C_1  and  C_2
REMARK    2  A    between atoms: C_2  and  C_3
REMARK    3  A    between atoms: C_2  and  N_10
REMARK    4  A    between atoms: C_3  and  C_4
REMARK    5  A    between atoms: N_10  and  C_11
REMARK    6  A    between atoms: C_11  and  C_12
REMARK    7  A    between atoms: C_17  and  O_18
REMARK                            x       y       z     vdW  Elec       q    Type
REMARK                         _______ _______ _______ _____ _____    ______ ____
ROOT
ATOM      1  N   UNL     1       4.975   3.549  17.860  0.00  0.00    +0.000 NA
ATOM      2  H   UNL     1       5.623   2.994  18.420  0.00  0.00    +0.000 HD
ENDROOT
BRANCH   1   4
ATOM      3  C   UNL     1       6.145   5.505  18.889  0.00  0.00    +0.000 C 
ATOM      4  C   UNL     1       4.801   4.881  18.475  0.00  0.00    +0.000 C 
BRANCH   4   5
ATOM      5  C   UNL     1       4.052   5.800  17.473  0.00  0.00    +0.000 C 
BRANCH   5   6
ATOM      6  C   UNL     1       3.130   6.798  18.145  0.00  0.00    +0.000 A 
ATOM      7  C   UNL     1       2.753   7.975  17.479  0.00  0.00    +0.000 A 
ATOM      8  C   UNL     1       1.977   8.936  18.130  0.00  0.00    +0.000 A 
ATOM      9  C   UNL     1       1.567   8.730  19.445  0.00  0.00    +0.000 A 
ATOM     10  C   UNL     1       1.911   7.553  20.106  0.00  0.00    +0.000 A 
ATOM     11  C   UNL     1       2.679   6.587  19.455  0.00  0.00    +0.000 A 
ENDBRANCH   5   6
ENDBRANCH   4   5
ENDBRANCH   1   4
BRANCH   1  12
ATOM     12  C   UNL     1       3.712   2.806  17.759  0.00  0.00    +0.000 C 
BRANCH  12  13
ATOM     13  C   UNL     1       2.920   2.842  19.046  0.00  0.00    +0.000 A 
ATOM     14  C   UNL     1       1.590   3.292  19.037  0.00  0.00    +0.000 A 
ATOM     15  C   UNL     1       0.858   3.384  20.223  0.00  0.00    +0.000 A 
ATOM     16  C   UNL     1       1.446   3.031  21.436  0.00  0.00    +0.000 A 
ATOM     17  C   UNL     1       2.764   2.579  21.465  0.00  0.00    +0.000 A 
ATOM     18  C   UNL     1       3.490   2.486  20.276  0.00  0.00    +0.000 A 
BRANCH  18  19
ATOM     19  O   UNL     1       4.786   2.048  20.311  0.00  0.00    +0.000 OA
ATOM     20  H   UNL     1       4.798   1.137  20.644  0.00  0.00    +0.000 HD
ENDBRANCH  18  19
ENDBRANCH  12  13
ENDBRANCH   1  12
TORSDOF 6
ENDMDL
MODEL 4
REMARK VINA RESULT:      -7.2      2.464      5.824
REMARK  Name = 
REMARK  7 active torsions:
REMARK  status: ('A' for Active; 'I' for Inactive)
REMARK    1  A    between atoms: C_1  and  C_2
REMARK    2  A    between atoms: C_2  and  C_3
REMARK    3  A    between atoms: C_2  and  N_10
REMARK    4  A    between atoms: C_3  and  C_4
REMARK    5  A    between atoms: N_10  and  C_11
REMARK    6  A    between atoms: C_11  and  C_12
REMARK    7  A    between atoms: C_17  and  O_18
REMARK                            x       y       z     vdW  Elec       q    Type
REMARK                         _______ _______ _______ _____ _____    ______ ____
ROOT
ATOM      1  N   UNL     1       3.733   3.717  16.917  0.00  0.00    +0.000 NA
ATOM      2  H   UNL     1       3.373   3.640  15.966  0.00  0.00    +0.000 HD
ENDROOT
BRANCH   1   4
ATOM      3  C   UNL     1       5.542   4.729  15.518  0.00  0.00    +0.000 C 
ATOM      4  C   UNL     1       5.151   4.130  16.881  0.00  0.00    +0.000 C 
BRANCH   4   5
ATOM      5  C   UNL     1       5.404   5.151  18.024  0.00  0.00    +0.000 C 
BRANCH   5   6
ATOM      6  C   UNL     1       4.224   6.067  18.285  0.00  0.00    +0.000 A 
ATOM      7  C   UNL     1       3.939   7.123  17.407  0.00  0.00    +0.000 A 
ATOM      8  C   UNL     1       2.908   8.020  17.694  0.00  0.00    +0.000 A 
ATOM      9  C   UNL     1       2.152   7.869  18.854  0.00  0.00    +0.000 A 
ATOM     10  C   UNL     1       2.408   6.807  19.719  0.00  0.00    +0.000 A 
ATOM     11  C   UNL     1       3.432   5.904  19.430  0.00  0.00    +0.000 A 
ENDBRANCH   5   6
ENDBRANCH   4   5
ENDBRANCH   1   4
BRANCH   1  12
ATOM     12  C   UNL     1       3.542   2.420  17.580  0.00  0.00    +0.000 C 
BRANCH  12  13
ATOM     13  C   UNL     1       2.854   2.556  18.919  0.00  0.00    +0.000 A 
ATOM     14  C   UNL     1       1.487   2.874  18.974  0.00  0.00    +0.000 A 
ATOM     15  C   UNL     1       0.845   3.057  20.201  0.00  0.00    +0.000 A 
ATOM     16  C   UNL     1       1.560   2.928  21.390  0.00  0.00    +0.000 A 
ATOM     17  C   UNL     1       2.916   2.608  21.355  0.00  0.00    +0.000 A 
ATOM     18  C   UNL     1       3.552   2.425  20.126  0.00  0.00    +0.000 A 
BRANCH  18  19
ATOM     19  O   UNL     1       4.886   2.118  20.098  0.00  0.00    +0.000 OA
ATOM     20  H   UNL     1       5.080   1.649  19.271  0.00  0.00    +0.000 HD
ENDBRANCH  18  19
ENDBRANCH  12  13
ENDBRANCH   1  12
TORSDOF 6
ENDMDL
MODEL 5
REMARK VINA RESULT:      -7.1      2.569      6.581
REMARK  Name = 
REMARK  7 active torsions:
REMARK  status: ('A' for Active; 'I' for Inactive)
REMARK    1  A    between atoms: C_1  and  C_2
REMARK    2  A    between atoms: C_2  and  C_3
REMARK    3  A    between atoms: C_2  and  N_10
REMARK    4  A    between atoms: C_3  and  C_4
REMARK    5  A    between atoms: N_10  and  C_11
REMARK    6  A    between atoms: C_11  and  C_12
REMARK    7  A    between atoms: C_17  and  O_18
REMARK                            x       y       z     vdW  Elec       q    Type
REMARK                         _______ _______ _______ _____ _____    ______ ____
ROOT
ATOM      1  N   UNL     1       3.129   3.477  16.781  0.00  0.00    +0.000 NA
ATOM      2  H   UNL     1       2.890   3.284  15.809  0.00  0.00    +0.000 HD
ENDROOT
BRANCH   1   4
ATOM      3  C   UNL     1       5.191   4.036  15.482  0.00  0.00    +0.000 C 
ATOM      4  C   UNL     1       4.505   4.010  16.859  0.00  0.00    +0.000 C 
BRANCH   4   5
ATOM      5  C   UNL     1       4.456   5.433  17.478  0.00  0.00    +0.000 C 
BRANCH   5   6
ATOM      6  C   UNL     1       5.823   5.979  17.841  0.00  0.00    +0.000 A 
ATOM      7  C   UNL     1       6.574   5.385  18.868  0.00  0.00    +0.000 A 
ATOM      8  C   UNL     1       7.791   5.940  19.263  0.00  0.00    +0.000 A 
ATOM      9  C   UNL     1       8.274   7.087  18.636  0.00  0.00    +0.000 A 
ATOM     10  C   UNL     1       7.551   7.668  17.596  0.00  0.00    +0.000 A 
ATOM     11  C   UNL     1       6.338   7.110  17.194  0.00  0.00    +0.000 A 
ENDBRANCH   5   6
ENDBRANCH   4   5
ENDBRANCH   1   4
BRANCH   1  12
ATOM     12  C   UNL     1       2.963   2.233  17.545  0.00  0.00    +0.000 C 
BRANCH  12  13
ATOM     13  C   UNL     1       2.545   2.488  18.974  0.00  0.00    +0.000 A 
ATOM     14  C   UNL     1       1.220   2.855  19.261  0.00  0.00    +0.000 A 
ATOM     15  C   UNL     1       0.826   3.148  20.569  0.00  0.00    +0.000 A 
ATOM     16  C   UNL     1       1.751   3.081  21.608  0.00  0.00    +0.000 A 
ATOM     17  C   UNL     1       3.070   2.715  21.344  0.00  0.00    +0.000 A 
ATOM     18  C   UNL     1       3.458   2.421  20.036  0.00  0.00    +0.000 A 
BRANCH  18  19
ATOM     19  O   UNL     1       4.755   2.069  19.781  0.00  0.00    +0.000 OA
ATOM     20  H   UNL     1       5.301   2.871  19.774  0.00  0.00    +0.000 HD
ENDBRANCH  18  19
ENDBRANCH  12  13
ENDBRANCH   1  12
TORSDOF 6
ENDMDL
MODEL 6
REMARK VINA RESULT:      -7.1      1.079      1.185
REMARK  Name = 
REMARK  7 active torsions:
REMARK  status: ('A' for Active; 'I' for Inactive)
REMARK    1  A    between atoms: C_1  and  C_2
REMARK    2  A    between atoms: C_2  and  C_3
REMARK    3  A    between atoms: C_2  and  N_10
REMARK    4  A    between atoms: C_3  and  C_4
REMARK    5  A    between atoms: N_10  and  C_11
REMARK    6  A    between atoms: C_11  and  C_12
REMARK    7  A    between atoms: C_17  and  O_18
REMARK                            x       y       z     vdW  Elec       q    Type
REMARK                         _______ _______ _______ _____ _____    ______ ____
ROOT
ATOM      1  N   UNL     1       5.920   3.940  16.811  0.00  0.00    +0.000 NA
ATOM      2  H   UNL     1       6.260   2.992  16.648  0.00  0.00    +0.000 HD
ENDROOT
BRANCH   1   4
ATOM      3  C   UNL     1       4.925   5.437  18.549  0.00  0.00    +0.000 C 
ATOM      4  C   UNL     1       5.181   3.991  18.089  0.00  0.00    +0.000 C 
BRANCH   4   5
ATOM      5  C   UNL     1       3.843   3.220  17.924  0.00  0.00    +0.000 C 
BRANCH   5   6
ATOM      6  C   UNL     1       2.980   3.239  19.170  0.00  0.00    +0.000 A 
ATOM      7  C   UNL     1       3.435   2.643  20.357  0.00  0.00    +0.000 A 
ATOM      8  C   UNL     1       2.606   2.582  21.478  0.00  0.00    +0.000 A 
ATOM      9  C   UNL     1       1.321   3.117  21.428  0.00  0.00    +0.000 A 
ATOM     10  C   UNL     1       0.869   3.737  20.265  0.00  0.00    +0.000 A 
ATOM     11  C   UNL     1       1.699   3.807  19.145  0.00  0.00    +0.000 A 
ENDBRANCH   5   6
ENDBRANCH   4   5
ENDBRANCH   1   4
BRANCH   1  12
ATOM     12  C   UNL     1       5.088   4.326  15.663  0.00  0.00    +0.000 C 
BRANCH  12  13
ATOM     13  C   UNL     1       5.863   4.327  14.366  0.00  0.00    +0.000 A 
ATOM     14  C   UNL     1       5.420   3.547  13.286  0.00  0.00    +0.000 A 
ATOM     15  C   UNL     1       6.150   3.491  12.097  0.00  0.00    +0.000 A 
ATOM     16  C   UNL     1       7.336   4.212  11.971  0.00  0.00    +0.000 A 
ATOM     17  C   UNL     1       7.789   4.996  13.031  0.00  0.00    +0.000 A 
ATOM     18  C   UNL     1       7.054   5.049  14.216  0.00  0.00    +0.000 A 
BRANCH  18  19
ATOM     19  O   UNL     1       7.508   5.814  15.256  0.00  0.00    +0.000 OA
ATOM     20  H   UNL     1       7.430   6.750  15.012  0.00  0.00    +0.000 HD
ENDBRANCH  18  19
ENDBRANCH  12  13
ENDBRANCH   1  12
TORSDOF 6
ENDMDL
MODEL 7
REMARK VINA RESULT:      -7.1      3.623      5.854
REMARK  Name = 
REMARK  7 active torsions:
REMARK  status: ('A' for Active; 'I' for Inactive)
REMARK    1  A    between atoms: C_1  and  C_2
REMARK    2  A    between atoms: C_2  and  C_3
REMARK    3  A    between atoms: C_2  and  N_10
REMARK    4  A    between atoms: C_3  and  C_4
REMARK    5  A    between atoms: N_10  and  C_11
REMARK    6  A    between atoms: C_11  and  C_12
REMARK    7  A    between atoms: C_17  and  O_18
REMARK                            x       y       z     vdW  Elec       q    Type
REMARK                         _______ _______ _______ _____ _____    ______ ____
ROOT
ATOM      1  N   UNL     1       4.546   3.962  17.428  0.00  0.00    +0.000 NA
ATOM      2  H   UNL     1       5.345   3.395  17.712  0.00  0.00    +0.000 HD
ENDROOT
BRANCH   1   4
ATOM      3  C   UNL     1       5.827   5.563  18.860  0.00  0.00    +0.000 C 
ATOM      4  C   UNL     1       4.457   5.162  18.286  0.00  0.00    +0.000 C 
BRANCH   4   5
ATOM      5  C   UNL     1       3.845   6.325  17.458  0.00  0.00    +0.000 C 
BRANCH   5   6
ATOM      6  C   UNL     1       2.968   7.251  18.277  0.00  0.00    +0.000 A 
ATOM      7  C   UNL     1       2.584   6.896  19.579  0.00  0.00    +0.000 A 
ATOM      8  C   UNL     1       1.705   7.705  20.300  0.00  0.00    +0.000 A 
ATOM      9  C   UNL     1       1.207   8.876  19.733  0.00  0.00    +0.000 A 
ATOM     10  C   UNL     1       1.604   9.253  18.452  0.00  0.00    +0.000 A 
ATOM     11  C   UNL     1       2.489   8.450  17.732  0.00  0.00    +0.000 A 
ENDBRANCH   5   6
ENDBRANCH   4   5
ENDBRANCH   1   4
BRANCH   1  12
ATOM     12  C   UNL     1       3.343   3.124  17.508  0.00  0.00    +0.000 C 
BRANCH  12  13
ATOM     13  C   UNL     1       2.781   3.058  18.909  0.00  0.00    +0.000 A 
ATOM     14  C   UNL     1       1.489   3.544  19.168  0.00  0.00    +0.000 A 
ATOM     15  C   UNL     1       0.971   3.543  20.465  0.00  0.00    +0.000 A 
ATOM     16  C   UNL     1       1.737   3.057  21.522  0.00  0.00    +0.000 A 
ATOM     17  C   UNL     1       3.020   2.566  21.284  0.00  0.00    +0.000 A 
ATOM     18  C   UNL     1       3.532   2.569  19.986  0.00  0.00    +0.000 A 
BRANCH  18  19
ATOM     19  O   UNL     1       4.794   2.092  19.759  0.00  0.00    +0.000 OA
ATOM     20  H   UNL     1       5.074   1.571  20.528  0.00  0.00    +0.000 HD
ENDBRANCH  18  19
ENDBRANCH  12  13
ENDBRANCH   1  12
TORSDOF 6
ENDMDL
MODEL 8
REMARK VINA RESULT:      -7.1      2.663      6.621
REMARK  Name = 
REMARK  7 active torsions:
REMARK  status: ('A' for Active; 'I' for Inactive)
REMARK    1  A    between atoms: C_1  and  C_2
REMARK    2  A    between atoms: C_2  and  C_3
REMARK    3  A    between atoms: C_2  and  N_10
REMARK    4  A    between atoms: C_3  and  C_4
REMARK    5  A    between atoms: N_10  and  C_11
REMARK    6  A    between atoms: C_11  and  C_12
REMARK    7  A    between atoms: C_17  and  O_18
REMARK                            x       y       z     vdW  Elec       q    Type
REMARK                         _______ _______ _______ _____ _____    ______ ____
ROOT
ATOM      1  N   UNL     1       4.756   3.140  17.469  0.00  0.00    +0.000 NA
ATOM      2  H   UNL     1       5.058   3.400  18.407  0.00  0.00    +0.000 HD
ENDROOT
BRANCH   1   4
ATOM      3  C   UNL     1       3.856   5.473  17.479  0.00  0.00    +0.000 C 
ATOM      4  C   UNL     1       4.530   4.357  16.662  0.00  0.00    +0.000 C 
BRANCH   4   5
ATOM      5  C   UNL     1       5.892   4.838  16.091  0.00  0.00    +0.000 C 
BRANCH   5   6
ATOM      6  C   UNL     1       6.678   5.703  17.057  0.00  0.00    +0.000 A 
ATOM      7  C   UNL     1       6.918   7.054  16.766  0.00  0.00    +0.000 A 
ATOM      8  C   UNL     1       7.716   7.827  17.610  0.00  0.00    +0.000 A 
ATOM      9  C   UNL     1       8.277   7.262  18.753  0.00  0.00    +0.000 A 
ATOM     10  C   UNL     1       8.022   5.929  19.068  0.00  0.00    +0.000 A 
ATOM     11  C   UNL     1       7.218   5.156  18.230  0.00  0.00    +0.000 A 
ENDBRANCH   5   6
ENDBRANCH   4   5
ENDBRANCH   1   4
BRANCH   1  12
ATOM     12  C   UNL     1       3.546   2.316  17.594  0.00  0.00    +0.000 C 
BRANCH  12  13
ATOM     13  C   UNL     1       2.852   2.513  18.922  0.00  0.00    +0.000 A 
ATOM     14  C   UNL     1       1.490   2.854  18.957  0.00  0.00    +0.000 A 
ATOM     15  C   UNL     1       0.843   3.093  20.171  0.00  0.00    +0.000 A 
ATOM     16  C   UNL     1       1.549   2.998  21.369  0.00  0.00    +0.000 A 
ATOM     17  C   UNL     1       2.900   2.657  21.355  0.00  0.00    +0.000 A 
ATOM     18  C   UNL     1       3.541   2.417  20.139  0.00  0.00    +0.000 A 
BRANCH  18  19
ATOM     19  O   UNL     1       4.869   2.090  20.131  0.00  0.00    +0.000 OA
ATOM     20  H   UNL     1       5.314   2.572  20.846  0.00  0.00    +0.000 HD
ENDBRANCH  18  19
ENDBRANCH  12  13
ENDBRANCH   1  12
TORSDOF 6
ENDMDL
MODEL 9
REMARK VINA RESULT:      -7.1      1.105      1.519
REMARK  Name = 
REMARK  7 active torsions:
REMARK  status: ('A' for Active; 'I' for Inactive)
REMARK    1  A    between atoms: C_1  and  C_2
REMARK    2  A    between atoms: C_2  and  C_3
REMARK    3  A    between atoms: C_2  and  N_10
REMARK    4  A    between atoms: C_3  and  C_4
REMARK    5  A    between atoms: N_10  and  C_11
REMARK    6  A    between atoms: C_11  and  C_12
REMARK    7  A    between atoms: C_17  and  O_18
REMARK                            x       y       z     vdW  Elec       q    Type
REMARK                         _______ _______ _______ _____ _____    ______ ____
ROOT
ATOM      1  N   UNL     1       4.990   5.515  16.420  0.00  0.00    +0.000 NA
ATOM      2  H   UNL     1       5.880   5.956  16.651  0.00  0.00    +0.000 HD
ENDROOT
BRANCH   1   4
ATOM      3  C   UNL     1       3.371   6.775  17.849  0.00  0.00    +0.000 C 
ATOM      4  C   UNL     1       4.135   5.458  17.623  0.00  0.00    +0.000 C 
BRANCH   4   5
ATOM      5  C   UNL     1       3.149   4.267  17.481  0.00  0.00    +0.000 C 
BRANCH   5   6
ATOM      6  C   UNL     1       2.648   3.738  18.810  0.00  0.00    +0.000 A 
ATOM      7  C   UNL     1       1.310   3.927  19.189  0.00  0.00    +0.000 A 
ATOM      8  C   UNL     1       0.870   3.519  20.450  0.00  0.00    +0.000 A 
ATOM      9  C   UNL     1       1.757   2.917  21.339  0.00  0.00    +0.000 A 
ATOM     10  C   UNL     1       3.081   2.698  20.962  0.00  0.00    +0.000 A 
ATOM     11  C   UNL     1       3.521   3.097  19.700  0.00  0.00    +0.000 A 
ENDBRANCH   5   6
ENDBRANCH   4   5
ENDBRANCH   1   4
BRANCH   1  12
ATOM     12  C   UNL     1       5.275   4.183  15.869  0.00  0.00    +0.000 C 
BRANCH  12  13
ATOM     13  C   UNL     1       5.933   4.252  14.510  0.00  0.00    +0.000 A 
ATOM     14  C   UNL     1       5.399   3.522  13.436  0.00  0.00    +0.000 A 
ATOM     15  C   UNL     1       6.022   3.529  12.186  0.00  0.00    +0.000 A 
ATOM     16  C   UNL     1       7.190   4.264  11.993  0.00  0.00    +0.000 A 
ATOM     17  C   UNL     1       7.732   4.999  13.045  0.00  0.00    +0.000 A 
ATOM     18  C   UNL     1       7.104   4.990  14.292  0.00  0.00    +0.000 A 
BRANCH  18  19
ATOM     19  O   UNL     1       7.644   5.707  15.323  0.00  0.00    +0.000 OA
ATOM     20  H   UNL     1       6.924   6.062  15.868  0.00  0.00    +0.000 HD
ENDBRANCH  18  19
ENDBRANCH  12  13
ENDBRANCH   1  12
TORSDOF 6
ENDMDL
