MODEL 1
REMARK VINA RESULT:      -8.2      0.000      0.000
REMARK  Name = 
REMARK  8 active torsions:
REMARK  status: ('A' for Active; 'I' for Inactive)
REMARK    1  A    between atoms: C_1  and  C_2
REMARK    2  A    between atoms: C_2  and  N_3
REMARK    3  A    between atoms: N_3  and  C_4
REMARK    4  A    between atoms: C_4  and  C_5
REMARK    5  A    between atoms: C_5  and  O_6
REMARK    6  A    between atoms: C_5  and  C_7
REMARK    7  A    between atoms: C_9  and  C_10
REMARK    8  A    between atoms: C_17  and  C_18
REMARK                            x       y       z     vdW  Elec       q    Type
REMARK                         _______ _______ _______ _____ _____    ______ ____
ROOT
ATOM      1  C   UNL     1       7.086   5.186  18.224  0.00  0.00    +0.000 A 
ATOM      2  C   UNL     1       7.273   5.103  16.845  0.00  0.00    +0.000 A 
ATOM      3  C   UNL     1       6.273   4.559  16.040  0.00  0.00    +0.000 A 
ATOM      4  N   UNL     1       5.089   4.144  16.553  0.00  0.00    +0.000 NA
ATOM      5  C   UNL     1       4.888   4.254  17.882  0.00  0.00    +0.000 A 
ATOM      6  C   UNL     1       5.866   4.755  18.739  0.00  0.00    +0.000 A 
ENDROOT
BRANCH   3   7
ATOM      7  C   UNL     1       6.450   4.380  14.598  0.00  0.00    +0.000 A 
ATOM      8  C   UNL     1       7.469   5.062  13.903  0.00  0.00    +0.000 A 
ATOM      9  C   UNL     1       7.644   4.898  12.534  0.00  0.00    +0.000 A 
ATOM     10  C   UNL     1       6.801   4.053  11.822  0.00  0.00    +0.000 A 
ATOM     11  C   UNL     1       5.787   3.361  12.485  0.00  0.00    +0.000 A 
ATOM     12  C   UNL     1       5.617   3.526  13.854  0.00  0.00    +0.000 A 
ENDBRANCH   3   7
BRANCH   5  13
ATOM     13  C   UNL     1       3.567   3.842  18.374  0.00  0.00    +0.000 A 
ATOM     14  C   UNL     1       2.428   3.916  17.554  0.00  0.00    +0.000 A 
ATOM     15  C   UNL     1       1.172   3.543  18.035  0.00  0.00    +0.000 A 
ATOM     16  C   UNL     1       1.033   3.095  19.345  0.00  0.00    +0.000 A 
ATOM     17  C   UNL     1       2.149   3.012  20.174  0.00  0.00    +0.000 A 
ATOM     18  C   UNL     1       3.401   3.382  19.693  0.00  0.00    +0.000 A 
ENDBRANCH   5  13
BRANCH   1  19
ATOM     19  C   UNL     1       8.176   5.710  19.135  0.00  0.00    +0.000 C 
BRANCH  19  20
ATOM     20  O   UNL     1       7.840   5.402  20.495  0.00  0.00    +0.000 OA
ATOM     21  H   UNL     1       7.351   4.567  20.509  0.00  0.00    +0.000 HD
ENDBRANCH  19  20
BRANCH  19  22
ATOM     22  C   UNL     1       8.365   7.238  18.975  0.00  0.00    +0.000 C 
BRANCH  22  23
ATOM     23  N   UNL     1       7.734   7.738  17.748  0.00  0.00    +0.000 NA
ATOM     24  H   UNL     1       8.152   7.260  16.946  0.00  0.00    +0.000 HD
BRANCH  23  26
ATOM     25  C   UNL     1       8.865   9.679  18.690  0.00  0.00    +0.000 C 
ATOM     26  C   UNL     1       7.893   9.183  17.634  0.00  0.00    +0.000 C 
ENDBRANCH  23  26
ENDBRANCH  22  23
ENDBRANCH  19  22
ENDBRANCH   1  19
TORSDOF 7
ENDMDL
MODEL 2
REMARK VINA RESULT:      -8.2      0.897      5.458
REMARK  Name = 
REMARK  8 active torsions:
REMARK  status: ('A' for Active; 'I' for Inactive)
REMARK    1  A    between atoms: C_1  and  C_2
REMARK    2  A    between atoms: C_2  and  N_3
REMARK    3  A    between atoms: N_3  and  C_4
REMARK    4  A    between atoms: C_4  and  C_5
REMARK    5  A    between atoms: C_5  and  O_6
REMARK    6  A    between atoms: C_5  and  C_7
REMARK    7  A    between atoms: C_9  and  C_10
REMARK    8  A    between atoms: C_17  and  C_18
REMARK                            x       y       z     vdW  Elec       q    Type
REMARK                         _______ _______ _______ _____ _____    ______ ____
ROOT
ATOM      1  C   UNL     1       6.895   5.419  17.776  0.00  0.00    +0.000 A 
ATOM      2  C   UNL     1       5.733   4.902  18.346  0.00  0.00    +0.000 A 
ATOM      3  C   UNL     1       4.788   4.267  17.541  0.00  0.00    +0.000 A 
ATOM      4  N   UNL     1       4.983   4.089  16.213  0.00  0.00    +0.000 NA
ATOM      5  C   UNL     1       6.122   4.554  15.660  0.00  0.00    +0.000 A 
ATOM      6  C   UNL     1       7.084   5.230  16.409  0.00  0.00    +0.000 A 
ENDROOT
BRANCH   3   7
ATOM      7  C   UNL     1       3.516   3.775  18.078  0.00  0.00    +0.000 A 
ATOM      8  C   UNL     1       3.092   2.453  17.838  0.00  0.00    +0.000 A 
ATOM      9  C   UNL     1       1.887   1.979  18.344  0.00  0.00    +0.000 A 
ATOM     10  C   UNL     1       1.072   2.816  19.097  0.00  0.00    +0.000 A 
ATOM     11  C   UNL     1       1.469   4.128  19.353  0.00  0.00    +0.000 A 
ATOM     12  C   UNL     1       2.676   4.598  18.848  0.00  0.00    +0.000 A 
ENDBRANCH   3   7
BRANCH   5  13
ATOM     13  C   UNL     1       6.308   4.283  14.229  0.00  0.00    +0.000 A 
ATOM     14  C   UNL     1       7.371   4.857  13.510  0.00  0.00    +0.000 A 
ATOM     15  C   UNL     1       7.529   4.612  12.145  0.00  0.00    +0.000 A 
ATOM     16  C   UNL     1       6.624   3.794  11.475  0.00  0.00    +0.000 A 
ATOM     17  C   UNL     1       5.564   3.214  12.169  0.00  0.00    +0.000 A 
ATOM     18  C   UNL     1       5.408   3.457  13.530  0.00  0.00    +0.000 A 
ENDBRANCH   5  13
BRANCH   1  19
ATOM     19  C   UNL     1       7.911   6.171  18.608  0.00  0.00    +0.000 C 
BRANCH  19  20
ATOM     20  O   UNL     1       7.584   6.024  19.997  0.00  0.00    +0.000 OA
ATOM     21  H   UNL     1       6.659   6.280  20.123  0.00  0.00    +0.000 HD
ENDBRANCH  19  20
BRANCH  19  22
ATOM     22  C   UNL     1       7.953   7.672  18.235  0.00  0.00    +0.000 C 
BRANCH  22  23
ATOM     23  N   UNL     1       8.841   8.429  19.124  0.00  0.00    +0.000 NA
ATOM     24  H   UNL     1       8.492   8.350  20.082  0.00  0.00    +0.000 HD
BRANCH  23  26
ATOM     25  C   UNL     1       9.518  10.659  19.833  0.00  0.00    +0.000 C 
ATOM     26  C   UNL     1       8.921   9.827  18.713  0.00  0.00    +0.000 C 
ENDBRANCH  23  26
ENDBRANCH  22  23
ENDBRANCH  19  22
ENDBRANCH   1  19
TORSDOF 7
ENDMDL
MODEL 3
REMARK VINA RESULT:      -8.1      0.587      5.374
REMARK  Name = 
REMARK  8 active torsions:
REMARK  status: ('A' for Active; 'I' for Inactive)
REMARK    1  A    between atoms: C_1  and  C_2
REMARK    2  A    between atoms: C_2  and  N_3
REMARK    3  A    between atoms: N_3  and  C_4
REMARK    4  A    between atoms: C_4  and  C_5
REMARK    5  A    between atoms: C_5  and  O_6
REMARK    6  A    between atoms: C_5  and  C_7
REMARK    7  A    between atoms: C_9  and  C_10
REMARK    8  A    between atoms: C_17  and  C_18
REMARK                            x       y       z     vdW  Elec       q    Type
REMARK                         _______ _______ _______ _____ _____    ______ ____
ROOT
ATOM      1  C   UNL     1       7.097   5.030  18.133  0.00  0.00    +0.000 A 
ATOM      2  C   UNL     1       5.875   4.549  18.597  0.00  0.00    +0.000 A 
ATOM      3  C   UNL     1       4.918   4.094  17.691  0.00  0.00    +0.000 A 
ATOM      4  N   UNL     1       5.157   4.057  16.358  0.00  0.00    +0.000 NA
ATOM      5  C   UNL     1       6.352   4.486  15.904  0.00  0.00    +0.000 A 
ATOM      6  C   UNL     1       7.331   4.987  16.761  0.00  0.00    +0.000 A 
ENDROOT
BRANCH   3   7
ATOM      7  C   UNL     1       3.590   3.651  18.121  0.00  0.00    +0.000 A 
ATOM      8  C   UNL     1       2.528   4.568  18.251  0.00  0.00    +0.000 A 
ATOM      9  C   UNL     1       1.265   4.156  18.660  0.00  0.00    +0.000 A 
ATOM     10  C   UNL     1       1.032   2.818  18.955  0.00  0.00    +0.000 A 
ATOM     11  C   UNL     1       2.064   1.888  18.831  0.00  0.00    +0.000 A 
ATOM     12  C   UNL     1       3.325   2.303  18.420  0.00  0.00    +0.000 A 
ENDBRANCH   3   7
BRANCH   5  13
ATOM     13  C   UNL     1       6.577   4.370  14.458  0.00  0.00    +0.000 A 
ATOM     14  C   UNL     1       7.543   5.156  13.805  0.00  0.00    +0.000 A 
ATOM     15  C   UNL     1       7.738   5.056  12.427  0.00  0.00    +0.000 A 
ATOM     16  C   UNL     1       6.967   4.172  11.677  0.00  0.00    +0.000 A 
ATOM     17  C   UNL     1       6.005   3.382  12.304  0.00  0.00    +0.000 A 
ATOM     18  C   UNL     1       5.814   3.482  13.679  0.00  0.00    +0.000 A 
ENDBRANCH   5  13
BRANCH   1  19
ATOM     19  C   UNL     1       8.133   5.593  19.084  0.00  0.00    +0.000 C 
BRANCH  19  20
ATOM     20  O   UNL     1       7.774   5.247  20.429  0.00  0.00    +0.000 OA
ATOM     21  H   UNL     1       8.537   4.827  20.852  0.00  0.00    +0.000 HD
ENDBRANCH  19  20
BRANCH  19  22
ATOM     22  C   UNL     1       8.251   7.129  18.952  0.00  0.00    +0.000 C 
BRANCH  22  23
ATOM     23  N   UNL     1       7.456   7.641  17.830  0.00  0.00    +0.000 NA
ATOM     24  H   UNL     1       7.531   6.986  17.048  0.00  0.00    +0.000 HD
BRANCH  23  26
ATOM     25  C   UNL     1       8.701   9.600  18.569  0.00  0.00    +0.000 C 
ATOM     26  C   UNL     1       7.906   8.973  17.438  0.00  0.00    +0.000 C 
ENDBRANCH  23  26
ENDBRANCH  22  23
ENDBRANCH  19  22
ENDBRANCH   1  19
TORSDOF 7
ENDMDL
MODEL 4
REMARK VINA RESULT:      -8.1      0.853      5.406
REMARK  Name = 
REMARK  8 active torsions:
REMARK  status: ('A' for Active; 'I' for Inactive)
REMARK    1  A    between atoms: C_1  and  C_2
REMARK    2  A    between atoms: C_2  and  N_3
REMARK    3  A    between atoms: N_3  and  C_4
REMARK    4  A    between atoms: C_4  and  C_5
REMARK    5  A    between atoms: C_5  and  O_6
REMARK    6  A    between atoms: C_5  and  C_7
REMARK    7  A    between atoms: C_9  and  C_10
REMARK    8  A    between atoms: C_17  and  C_18
REMARK                            x       y       z     vdW  Elec       q    Type
REMARK                         _______ _______ _______ _____ _____    ______ ____
ROOT
ATOM      1  C   UNL     1       6.931   5.515  17.803  0.00  0.00    +0.000 A 
ATOM      2  C   UNL     1       5.774   5.022  18.401  0.00  0.00    +0.000 A 
ATOM      3  C   UNL     1       4.804   4.391  17.624  0.00  0.00    +0.000 A 
ATOM      4  N   UNL     1       4.971   4.194  16.294  0.00  0.00    +0.000 NA
ATOM      5  C   UNL     1       6.106   4.635  15.714  0.00  0.00    +0.000 A 
ATOM      6  C   UNL     1       7.092   5.307  16.435  0.00  0.00    +0.000 A 
ENDROOT
BRANCH   3   7
ATOM      7  C   UNL     1       3.537   3.925  18.191  0.00  0.00    +0.000 A 
ATOM      8  C   UNL     1       2.975   4.553  19.321  0.00  0.00    +0.000 A 
ATOM      9  C   UNL     1       1.773   4.116  19.866  0.00  0.00    +0.000 A 
ATOM     10  C   UNL     1       1.105   3.037  19.300  0.00  0.00    +0.000 A 
ATOM     11  C   UNL     1       1.636   2.399  18.179  0.00  0.00    +0.000 A 
ATOM     12  C   UNL     1       2.836   2.840  17.635  0.00  0.00    +0.000 A 
ENDBRANCH   3   7
BRANCH   5  13
ATOM     13  C   UNL     1       6.259   4.344  14.283  0.00  0.00    +0.000 A 
ATOM     14  C   UNL     1       5.357   3.502  13.609  0.00  0.00    +0.000 A 
ATOM     15  C   UNL     1       5.520   3.213  12.254  0.00  0.00    +0.000 A 
ATOM     16  C   UNL     1       6.591   3.756  11.550  0.00  0.00    +0.000 A 
ATOM     17  C   UNL     1       7.496   4.594  12.197  0.00  0.00    +0.000 A 
ATOM     18  C   UNL     1       7.331   4.884  13.548  0.00  0.00    +0.000 A 
ENDBRANCH   5  13
BRANCH   1  19
ATOM     19  C   UNL     1       7.975   6.264  18.605  0.00  0.00    +0.000 C 
BRANCH  19  20
ATOM     20  O   UNL     1       7.679   6.128  20.002  0.00  0.00    +0.000 OA
ATOM     21  H   UNL     1       6.764   5.827  20.095  0.00  0.00    +0.000 HD
ENDBRANCH  19  20
BRANCH  19  22
ATOM     22  C   UNL     1       8.020   7.762  18.222  0.00  0.00    +0.000 C 
BRANCH  22  23
ATOM     23  N   UNL     1       8.841   8.538  19.159  0.00  0.00    +0.000 NA
ATOM     24  H   UNL     1       8.428   8.468  20.092  0.00  0.00    +0.000 HD
BRANCH  23  26
ATOM     25  C   UNL     1       9.775  10.714  19.729  0.00  0.00    +0.000 C 
ATOM     26  C   UNL     1       8.938   9.930  18.735  0.00  0.00    +0.000 C 
ENDBRANCH  23  26
ENDBRANCH  22  23
ENDBRANCH  19  22
ENDBRANCH   1  19
TORSDOF 7
ENDMDL
MODEL 5
REMARK VINA RESULT:      -8.0      0.793      1.570
REMARK  Name = 
REMARK  8 active torsions:
REMARK  status: ('A' for Active; 'I' for Inactive)
REMARK    1  A    between atoms: C_1  and  C_2
REMARK    2  A    between atoms: C_2  and  N_3
REMARK    3  A    between atoms: N_3  and  C_4
REMARK    4  A    between atoms: C_4  and  C_5
REMARK    5  A    between atoms: C_5  and  O_6
REMARK    6  A    between atoms: C_5  and  C_7
REMARK    7  A    between atoms: C_9  and  C_10
REMARK    8  A    between atoms: C_17  and  C_18
REMARK                            x       y       z     vdW  Elec       q    Type
REMARK                         _______ _______ _______ _____ _____    ______ ____
ROOT
ATOM      1  C   UNL     1       6.966   5.538  17.854  0.00  0.00    +0.000 A 
ATOM      2  C   UNL     1       7.097   5.360  16.478  0.00  0.00    +0.000 A 
ATOM      3  C   UNL     1       6.158   4.598  15.784  0.00  0.00    +0.000 A 
ATOM      4  N   UNL     1       5.081   4.055  16.400  0.00  0.00    +0.000 NA
ATOM      5  C   UNL     1       4.929   4.253  17.725  0.00  0.00    +0.000 A 
ATOM      6  C   UNL     1       5.855   4.974  18.476  0.00  0.00    +0.000 A 
ENDROOT
BRANCH   3   7
ATOM      7  C   UNL     1       6.292   4.318  14.352  0.00  0.00    +0.000 A 
ATOM      8  C   UNL     1       5.350   3.512  13.681  0.00  0.00    +0.000 A 
ATOM      9  C   UNL     1       5.471   3.241  12.323  0.00  0.00    +0.000 A 
ATOM     10  C   UNL     1       6.538   3.763  11.602  0.00  0.00    +0.000 A 
ATOM     11  C   UNL     1       7.482   4.567  12.240  0.00  0.00    +0.000 A 
ATOM     12  C   UNL     1       7.357   4.838  13.597  0.00  0.00    +0.000 A 
ENDBRANCH   3   7
BRANCH   5  13
ATOM     13  C   UNL     1       3.714   3.690  18.330  0.00  0.00    +0.000 A 
ATOM     14  C   UNL     1       3.406   3.908  19.684  0.00  0.00    +0.000 A 
ATOM     15  C   UNL     1       2.261   3.353  20.258  0.00  0.00    +0.000 A 
ATOM     16  C   UNL     1       1.409   2.566  19.489  0.00  0.00    +0.000 A 
ATOM     17  C   UNL     1       1.694   2.338  18.145  0.00  0.00    +0.000 A 
ATOM     18  C   UNL     1       2.835   2.894  17.573  0.00  0.00    +0.000 A 
ENDBRANCH   5  13
BRANCH   1  19
ATOM     19  C   UNL     1       8.001   6.304  18.650  0.00  0.00    +0.000 C 
BRANCH  19  20
ATOM     20  O   UNL     1       7.736   6.138  20.050  0.00  0.00    +0.000 OA
ATOM     21  H   UNL     1       8.529   6.389  20.545  0.00  0.00    +0.000 HD
ENDBRANCH  19  20
BRANCH  19  22
ATOM     22  C   UNL     1       7.996   7.809  18.290  0.00  0.00    +0.000 C 
BRANCH  22  23
ATOM     23  N   UNL     1       8.896   8.577  19.158  0.00  0.00    +0.000 NA
ATOM     24  H   UNL     1       8.564   8.506  20.122  0.00  0.00    +0.000 HD
BRANCH  23  26
ATOM     25  C   UNL     1       9.637  10.806  19.806  0.00  0.00    +0.000 C 
ATOM     26  C   UNL     1       8.963   9.972  18.732  0.00  0.00    +0.000 C 
ENDBRANCH  23  26
ENDBRANCH  22  23
ENDBRANCH  19  22
ENDBRANCH   1  19
TORSDOF 7
ENDMDL
MODEL 6
REMARK VINA RESULT:      -7.9      3.720      7.450
REMARK  Name = 
REMARK  8 active torsions:
REMARK  status: ('A' for Active; 'I' for Inactive)
REMARK    1  A    between atoms: C_1  and  C_2
REMARK    2  A    between atoms: C_2  and  N_3
REMARK    3  A    between atoms: N_3  and  C_4
REMARK    4  A    between atoms: C_4  and  C_5
REMARK    5  A    between atoms: C_5  and  O_6
REMARK    6  A    between atoms: C_5  and  C_7
REMARK    7  A    between atoms: C_9  and  C_10
REMARK    8  A    between atoms: C_17  and  C_18
REMARK                            x       y       z     vdW  Elec       q    Type
REMARK                         _______ _______ _______ _____ _____    ______ ____
ROOT
ATOM      1  C   UNL     1       2.736   4.541  20.515  0.00  0.00    +0.000 A 
ATOM      2  C   UNL     1       2.058   5.758  20.470  0.00  0.00    +0.000 A 
ATOM      3  C   UNL     1       2.457   6.742  19.567  0.00  0.00    +0.000 A 
ATOM      4  N   UNL     1       3.465   6.538  18.685  0.00  0.00    +0.000 NA
ATOM      5  C   UNL     1       4.102   5.349  18.698  0.00  0.00    +0.000 A 
ATOM      6  C   UNL     1       3.770   4.343  19.604  0.00  0.00    +0.000 A 
ENDROOT
BRANCH   3   7
ATOM      7  C   UNL     1       1.827   8.064  19.532  0.00  0.00    +0.000 A 
ATOM      8  C   UNL     1       1.220   8.607  20.682  0.00  0.00    +0.000 A 
ATOM      9  C   UNL     1       0.620   9.861  20.658  0.00  0.00    +0.000 A 
ATOM     10  C   UNL     1       0.606  10.602  19.482  0.00  0.00    +0.000 A 
ATOM     11  C   UNL     1       1.204  10.091  18.330  0.00  0.00    +0.000 A 
ATOM     12  C   UNL     1       1.805   8.838  18.359  0.00  0.00    +0.000 A 
ENDBRANCH   3   7
BRANCH   5  13
ATOM     13  C   UNL     1       5.147   5.162  17.683  0.00  0.00    +0.000 A 
ATOM     14  C   UNL     1       6.437   4.731  18.038  0.00  0.00    +0.000 A 
ATOM     15  C   UNL     1       7.432   4.575  17.071  0.00  0.00    +0.000 A 
ATOM     16  C   UNL     1       7.155   4.852  15.735  0.00  0.00    +0.000 A 
ATOM     17  C   UNL     1       5.882   5.278  15.362  0.00  0.00    +0.000 A 
ATOM     18  C   UNL     1       4.890   5.431  16.326  0.00  0.00    +0.000 A 
ENDBRANCH   5  13
BRANCH   1  19
ATOM     19  C   UNL     1       2.373   3.475  21.527  0.00  0.00    +0.000 C 
BRANCH  19  20
ATOM     20  O   UNL     1       3.396   2.470  21.539  0.00  0.00    +0.000 OA
ATOM     21  H   UNL     1       3.740   2.371  20.639  0.00  0.00    +0.000 HD
ENDBRANCH  19  20
BRANCH  19  22
ATOM     22  C   UNL     1       1.005   2.827  21.205  0.00  0.00    +0.000 C 
BRANCH  22  23
ATOM     23  N   UNL     1       0.598   3.078  19.818  0.00  0.00    +0.000 NA
ATOM     24  H   UNL     1      -0.396   3.319  19.806  0.00  0.00    +0.000 HD
BRANCH  23  26
ATOM     25  C   UNL     1       1.908   2.257  17.936  0.00  0.00    +0.000 C 
ATOM     26  C   UNL     1       0.861   1.913  18.980  0.00  0.00    +0.000 C 
ENDBRANCH  23  26
ENDBRANCH  22  23
ENDBRANCH  19  22
ENDBRANCH   1  19
TORSDOF 7
ENDMDL
MODEL 7
REMARK VINA RESULT:      -7.9      3.017      6.974
REMARK  Name = 
REMARK  8 active torsions:
REMARK  status: ('A' for Active; 'I' for Inactive)
REMARK    1  A    between atoms: C_1  and  C_2
REMARK    2  A    between atoms: C_2  and  N_3
REMARK    3  A    between atoms: N_3  and  C_4
REMARK    4  A    between atoms: C_4  and  C_5
REMARK    5  A    between atoms: C_5  and  O_6
REMARK    6  A    between atoms: C_5  and  C_7
REMARK    7  A    between atoms: C_9  and  C_10
REMARK    8  A    between atoms: C_17  and  C_18
REMARK                            x       y       z     vdW  Elec       q    Type
REMARK                         _______ _______ _______ _____ _____    ______ ____
ROOT
ATOM      1  C   UNL     1       4.059   3.901  19.272  0.00  0.00    +0.000 A 
ATOM      2  C   UNL     1       3.292   5.051  19.445  0.00  0.00    +0.000 A 
ATOM      3  C   UNL     1       3.364   6.082  18.508  0.00  0.00    +0.000 A 
ATOM      4  N   UNL     1       4.128   5.983  17.394  0.00  0.00    +0.000 NA
ATOM      5  C   UNL     1       4.845   4.857  17.201  0.00  0.00    +0.000 A 
ATOM      6  C   UNL     1       4.841   3.811  18.123  0.00  0.00    +0.000 A 
ENDROOT
BRANCH   3   7
ATOM      7  C   UNL     1       2.638   7.342  18.683  0.00  0.00    +0.000 A 
ATOM      8  C   UNL     1       1.989   7.641  19.898  0.00  0.00    +0.000 A 
ATOM      9  C   UNL     1       1.297   8.833  20.072  0.00  0.00    +0.000 A 
ATOM     10  C   UNL     1       1.231   9.756  19.035  0.00  0.00    +0.000 A 
ATOM     11  C   UNL     1       1.867   9.488  17.823  0.00  0.00    +0.000 A 
ATOM     12  C   UNL     1       2.560   8.295  17.653  0.00  0.00    +0.000 A 
ENDBRANCH   3   7
BRANCH   5  13
ATOM     13  C   UNL     1       5.610   4.781  15.950  0.00  0.00    +0.000 A 
ATOM     14  C   UNL     1       6.854   5.422  15.816  0.00  0.00    +0.000 A 
ATOM     15  C   UNL     1       7.566   5.362  14.617  0.00  0.00    +0.000 A 
ATOM     16  C   UNL     1       7.044   4.666  13.531  0.00  0.00    +0.000 A 
ATOM     17  C   UNL     1       5.814   4.022  13.643  0.00  0.00    +0.000 A 
ATOM     18  C   UNL     1       5.106   4.079  14.839  0.00  0.00    +0.000 A 
ENDBRANCH   5  13
BRANCH   1  19
ATOM     19  C   UNL     1       4.055   2.791  20.302  0.00  0.00    +0.000 C 
BRANCH  19  20
ATOM     20  O   UNL     1       5.020   1.798  19.926  0.00  0.00    +0.000 OA
ATOM     21  H   UNL     1       5.317   1.341  20.726  0.00  0.00    +0.000 HD
ENDBRANCH  19  20
BRANCH  19  22
ATOM     22  C   UNL     1       2.658   2.141  20.434  0.00  0.00    +0.000 C 
BRANCH  22  23
ATOM     23  N   UNL     1       2.168   1.639  19.145  0.00  0.00    +0.000 NA
ATOM     24  H   UNL     1       2.882   1.812  18.433  0.00  0.00    +0.000 HD
BRANCH  23  26
ATOM     25  C   UNL     1       0.456   3.196  19.904  0.00  0.00    +0.000 C 
ATOM     26  C   UNL     1       0.907   2.277  18.783  0.00  0.00    +0.000 C 
ENDBRANCH  23  26
ENDBRANCH  22  23
ENDBRANCH  19  22
ENDBRANCH   1  19
TORSDOF 7
ENDMDL
MODEL 8
REMARK VINA RESULT:      -7.9      3.730      6.015
REMARK  Name = 
REMARK  8 active torsions:
REMARK  status: ('A' for Active; 'I' for Inactive)
REMARK    1  A    between atoms: C_1  and  C_2
REMARK    2  A    between atoms: C_2  and  N_3
REMARK    3  A    between atoms: N_3  and  C_4
REMARK    4  A    between atoms: C_4  and  C_5
REMARK    5  A    between atoms: C_5  and  O_6
REMARK    6  A    between atoms: C_5  and  C_7
REMARK    7  A    between atoms: C_9  and  C_10
REMARK    8  A    between atoms: C_17  and  C_18
REMARK                            x       y       z     vdW  Elec       q    Type
REMARK                         _______ _______ _______ _____ _____    ______ ____
ROOT
ATOM      1  C   UNL     1       2.743   4.565  20.531  0.00  0.00    +0.000 A 
ATOM      2  C   UNL     1       3.753   4.361  19.592  0.00  0.00    +0.000 A 
ATOM      3  C   UNL     1       4.038   5.352  18.654  0.00  0.00    +0.000 A 
ATOM      4  N   UNL     1       3.391   6.542  18.651  0.00  0.00    +0.000 NA
ATOM      5  C   UNL     1       2.438   6.760  19.580  0.00  0.00    +0.000 A 
ATOM      6  C   UNL     1       2.085   5.791  20.518  0.00  0.00    +0.000 A 
ENDROOT
BRANCH   3   7
ATOM      7  C   UNL     1       5.036   5.157  17.599  0.00  0.00    +0.000 A 
ATOM      8  C   UNL     1       6.175   5.984  17.519  0.00  0.00    +0.000 A 
ATOM      9  C   UNL     1       7.126   5.806  16.521  0.00  0.00    +0.000 A 
ATOM     10  C   UNL     1       6.961   4.802  15.575  0.00  0.00    +0.000 A 
ATOM     11  C   UNL     1       5.846   3.966  15.633  0.00  0.00    +0.000 A 
ATOM     12  C   UNL     1       4.898   4.145  16.633  0.00  0.00    +0.000 A 
ENDBRANCH   3   7
BRANCH   5  13
ATOM     13  C   UNL     1       1.810   8.088  19.566  0.00  0.00    +0.000 A 
ATOM     14  C   UNL     1       1.183   8.609  20.711  0.00  0.00    +0.000 A 
ATOM     15  C   UNL     1       0.570   9.863  20.685  0.00  0.00    +0.000 A 
ATOM     16  C   UNL     1       0.570  10.614  19.514  0.00  0.00    +0.000 A 
ATOM     17  C   UNL     1       1.187  10.117  18.368  0.00  0.00    +0.000 A 
ATOM     18  C   UNL     1       1.800   8.868  18.395  0.00  0.00    +0.000 A 
ENDBRANCH   5  13
BRANCH   1  19
ATOM     19  C   UNL     1       2.362   3.486  21.522  0.00  0.00    +0.000 C 
BRANCH  19  20
ATOM     20  O   UNL     1       3.398   2.494  21.559  0.00  0.00    +0.000 OA
ATOM     21  H   UNL     1       3.003   1.630  21.371  0.00  0.00    +0.000 HD
ENDBRANCH  19  20
BRANCH  19  22
ATOM     22  C   UNL     1       1.014   2.822  21.152  0.00  0.00    +0.000 C 
BRANCH  22  23
ATOM     23  N   UNL     1       0.588   3.179  19.794  0.00  0.00    +0.000 NA
ATOM     24  H   UNL     1      -0.376   3.520  19.831  0.00  0.00    +0.000 HD
BRANCH  23  26
ATOM     25  C   UNL     1       1.922   2.195  18.009  0.00  0.00    +0.000 C 
ATOM     26  C   UNL     1       0.701   2.034  18.896  0.00  0.00    +0.000 C 
ENDBRANCH  23  26
ENDBRANCH  22  23
ENDBRANCH  19  22
ENDBRANCH   1  19
TORSDOF 7
ENDMDL
MODEL 9
REMARK VINA RESULT:      -7.9      3.777      6.059
REMARK  Name = 
REMARK  8 active torsions:
REMARK  status: ('A' for Active; 'I' for Inactive)
REMARK    1  A    between atoms: C_1  and  C_2
REMARK    2  A    between atoms: C_2  and  N_3
REMARK    3  A    between atoms: N_3  and  C_4
REMARK    4  A    between atoms: C_4  and  C_5
REMARK    5  A    between atoms: C_5  and  O_6
REMARK    6  A    between atoms: C_5  and  C_7
REMARK    7  A    between atoms: C_9  and  C_10
REMARK    8  A    between atoms: C_17  and  C_18
REMARK                            x       y       z     vdW  Elec       q    Type
REMARK                         _______ _______ _______ _____ _____    ______ ____
ROOT
ATOM      1  C   UNL     1       2.584   4.615  20.606  0.00  0.00    +0.000 A 
ATOM      2  C   UNL     1       3.665   4.408  19.753  0.00  0.00    +0.000 A 
ATOM      3  C   UNL     1       4.034   5.401  18.846  0.00  0.00    +0.000 A 
ATOM      4  N   UNL     1       3.399   6.597  18.798  0.00  0.00    +0.000 NA
ATOM      5  C   UNL     1       2.375   6.818  19.646  0.00  0.00    +0.000 A 
ATOM      6  C   UNL     1       1.938   5.847  20.547  0.00  0.00    +0.000 A 
ENDROOT
BRANCH   3   7
ATOM      7  C   UNL     1       5.114   5.204  17.876  0.00  0.00    +0.000 A 
ATOM      8  C   UNL     1       6.405   4.824  18.296  0.00  0.00    +0.000 A 
ATOM      9  C   UNL     1       7.434   4.635  17.382  0.00  0.00    +0.000 A 
ATOM     10  C   UNL     1       7.203   4.827  16.025  0.00  0.00    +0.000 A 
ATOM     11  C   UNL     1       5.934   5.199  15.581  0.00  0.00    +0.000 A 
ATOM     12  C   UNL     1       4.906   5.384  16.497  0.00  0.00    +0.000 A 
ENDBRANCH   3   7
BRANCH   5  13
ATOM     13  C   UNL     1       1.760   8.151  19.589  0.00  0.00    +0.000 A 
ATOM     14  C   UNL     1       1.802   8.923  18.415  0.00  0.00    +0.000 A 
ATOM     15  C   UNL     1       1.234  10.197  18.374  0.00  0.00    +0.000 A 
ATOM     16  C   UNL     1       0.620  10.723  19.507  0.00  0.00    +0.000 A 
ATOM     17  C   UNL     1       0.565   9.974  20.680  0.00  0.00    +0.000 A 
ATOM     18  C   UNL     1       1.130   8.702  20.720  0.00  0.00    +0.000 A 
ENDBRANCH   5  13
BRANCH   1  19
ATOM     19  C   UNL     1       2.114   3.534  21.557  0.00  0.00    +0.000 C 
BRANCH  19  20
ATOM     20  O   UNL     1       3.194   2.621  21.801  0.00  0.00    +0.000 OA
ATOM     21  H   UNL     1       3.370   2.600  22.753  0.00  0.00    +0.000 HD
ENDBRANCH  19  20
BRANCH  19  22
ATOM     22  C   UNL     1       0.896   2.767  20.991  0.00  0.00    +0.000 C 
BRANCH  22  23
ATOM     23  N   UNL     1       0.797   2.905  19.533  0.00  0.00    +0.000 NA
ATOM     24  H   UNL     1      -0.188   3.008  19.279  0.00  0.00    +0.000 HD
BRANCH  23  26
ATOM     25  C   UNL     1       2.281   2.225  17.724  0.00  0.00    +0.000 C 
ATOM     26  C   UNL     1       1.391   1.754  18.860  0.00  0.00    +0.000 C 
ENDBRANCH  23  26
ENDBRANCH  22  23
ENDBRANCH  19  22
ENDBRANCH   1  19
TORSDOF 7
ENDMDL
