MODEL 1
REMARK VINA RESULT:      -6.6      0.000      0.000
REMARK  Name = 
REMARK  4 active torsions:
REMARK  status: ('A' for Active; 'I' for Inactive)
REMARK    1  A    between atoms: C_2  and  C_21
REMARK    2  A    between atoms: N_3  and  C_4
REMARK    3  A    between atoms: C_4  and  C_5
REMARK    4  A    between atoms: C_13  and  C_15
REMARK                            x       y       z     vdW  Elec       q    Type
REMARK                         _______ _______ _______ _____ _____    ______ ____
ROOT
ATOM      1  C   UNL     1      -0.224  11.808  21.202  0.00  0.00    +0.000 C 
ATOM      2  C   UNL     1      -0.851  11.603  22.386  0.00  0.00    +0.000 C 
ATOM      3 CL   UNL     1      -0.593  10.100  23.264  0.00  0.00    +0.000 Cl
ENDROOT
BRANCH   1   4
ATOM      4  C   UNL     1      -0.389  13.126  20.447  0.00  0.00    +0.000 C 
ATOM      5  O   UNL     1      -1.441  13.327  19.835  0.00  0.00    +0.000 OA
ATOM      6  N   UNL     1       0.673  14.040  20.329  0.00  0.00    +0.000 N 
ATOM      7  C   UNL     1       0.416  15.223  19.496  0.00  0.00    +0.000 C 
ATOM      8  C   UNL     1       1.665  15.676  18.744  0.00  0.00    +0.000 C 
ATOM      9  C   UNL     1       2.821  15.927  19.701  0.00  0.00    +0.000 C 
ATOM     10  C   UNL     1       3.073  14.692  20.552  0.00  0.00    +0.000 C 
ATOM     11  C   UNL     1       1.806  14.195  21.247  0.00  0.00    +0.000 C 
ENDBRANCH   1   4
BRANCH   2  12
ATOM     12  C   UNL     1      -1.711  12.528  23.132  0.00  0.00    +0.000 A 
ATOM     13  C   UNL     1      -3.058  12.242  23.383  0.00  0.00    +0.000 A 
ATOM     14  C   UNL     1      -3.847  13.174  24.054  0.00  0.00    +0.000 A 
ATOM     15  C   UNL     1      -3.271  14.376  24.436  0.00  0.00    +0.000 A 
ATOM     16  N   UNL     1      -1.978  14.693  24.200  0.00  0.00    +0.000 NA
ATOM     17  C   UNL     1      -1.230  13.762  23.558  0.00  0.00    +0.000 A 
ENDBRANCH   2  12
BRANCH   1  20
ATOM     18  O   UNL     1      -0.923  10.027  19.219  0.00  0.00    +0.000 OA
ATOM     19  C   UNL     1       0.203   9.970  19.710  0.00  0.00    +0.000 C 
ATOM     20  N   UNL     1       0.620  10.807  20.730  0.00  0.00    +0.000 N 
ATOM     21  H   UNL     1       1.597  11.070  20.689  0.00  0.00    +0.000 HD
BRANCH  19  22
ATOM     22  C   UNL     1       1.191   8.980  19.186  0.00  0.00    +0.000 A 
ATOM     23  C   UNL     1       1.795   9.058  17.925  0.00  0.00    +0.000 A 
ATOM     24  C   UNL     1       2.745   8.105  17.541  0.00  0.00    +0.000 A 
ATOM     25  C   UNL     1       3.098   7.070  18.410  0.00  0.00    +0.000 A 
ATOM     26  C   UNL     1       2.499   6.985  19.663  0.00  0.00    +0.000 A 
ATOM     27  C   UNL     1       1.543   7.935  20.047  0.00  0.00    +0.000 A 
ENDBRANCH  19  22
ENDBRANCH   1  20
TORSDOF 4
ENDMDL
MODEL 2
REMARK VINA RESULT:      -6.5      4.049      9.167
REMARK  Name = 
REMARK  4 active torsions:
REMARK  status: ('A' for Active; 'I' for Inactive)
REMARK    1  A    between atoms: C_2  and  C_21
REMARK    2  A    between atoms: N_3  and  C_4
REMARK    3  A    between atoms: C_4  and  C_5
REMARK    4  A    between atoms: C_13  and  C_15
REMARK                            x       y       z     vdW  Elec       q    Type
REMARK                         _______ _______ _______ _____ _____    ______ ____
ROOT
ATOM      1  C   UNL     1       2.981   6.710  18.927  0.00  0.00    +0.000 C 
ATOM      2  C   UNL     1       2.524   5.526  19.403  0.00  0.00    +0.000 C 
ATOM      3 CL   UNL     1       1.349   5.504  20.714  0.00  0.00    +0.000 Cl
ENDROOT
BRANCH   1   4
ATOM      4  C   UNL     1       3.960   6.756  17.755  0.00  0.00    +0.000 C 
ATOM      5  O   UNL     1       3.584   7.258  16.693  0.00  0.00    +0.000 OA
ATOM      6  N   UNL     1       5.214   6.124  17.824  0.00  0.00    +0.000 N 
ATOM      7  C   UNL     1       6.021   6.157  16.596  0.00  0.00    +0.000 C 
ATOM      8  C   UNL     1       6.850   4.888  16.421  0.00  0.00    +0.000 C 
ATOM      9  C   UNL     1       7.726   4.631  17.639  0.00  0.00    +0.000 C 
ATOM     10  C   UNL     1       6.873   4.597  18.897  0.00  0.00    +0.000 C 
ATOM     11  C   UNL     1       5.989   5.836  19.035  0.00  0.00    +0.000 C 
ENDBRANCH   1   4
BRANCH   2  12
ATOM     12  C   UNL     1       2.822   4.174  18.917  0.00  0.00    +0.000 A 
ATOM     13  C   UNL     1       2.299   3.693  17.711  0.00  0.00    +0.000 A 
ATOM     14  C   UNL     1       2.571   2.385  17.315  0.00  0.00    +0.000 A 
ATOM     15  C   UNL     1       3.340   1.588  18.149  0.00  0.00    +0.000 A 
ATOM     16  N   UNL     1       3.850   2.012  19.327  0.00  0.00    +0.000 NA
ATOM     17  C   UNL     1       3.582   3.294  19.680  0.00  0.00    +0.000 A 
ENDBRANCH   2  12
BRANCH   1  20
ATOM     18  O   UNL     1       1.193   8.386  17.669  0.00  0.00    +0.000 OA
ATOM     19  C   UNL     1       1.565   8.650  18.811  0.00  0.00    +0.000 C 
ATOM     20  N   UNL     1       2.483   7.877  19.498  0.00  0.00    +0.000 N 
ATOM     21  H   UNL     1       2.325   7.818  20.496  0.00  0.00    +0.000 HD
BRANCH  19  22
ATOM     22  C   UNL     1       1.000   9.838  19.518  0.00  0.00    +0.000 A 
ATOM     23  C   UNL     1       0.879  11.113  18.950  0.00  0.00    +0.000 A 
ATOM     24  C   UNL     1       0.294  12.154  19.679  0.00  0.00    +0.000 A 
ATOM     25  C   UNL     1      -0.175  11.931  20.975  0.00  0.00    +0.000 A 
ATOM     26  C   UNL     1      -0.056  10.668  21.547  0.00  0.00    +0.000 A 
ATOM     27  C   UNL     1       0.536   9.626  20.821  0.00  0.00    +0.000 A 
ENDBRANCH  19  22
ENDBRANCH   1  20
TORSDOF 4
ENDMDL
MODEL 3
REMARK VINA RESULT:      -6.5      0.602      1.356
REMARK  Name = 
REMARK  4 active torsions:
REMARK  status: ('A' for Active; 'I' for Inactive)
REMARK    1  A    between atoms: C_2  and  C_21
REMARK    2  A    between atoms: N_3  and  C_4
REMARK    3  A    between atoms: C_4  and  C_5
REMARK    4  A    between atoms: C_13  and  C_15
REMARK                            x       y       z     vdW  Elec       q    Type
REMARK                         _______ _______ _______ _____ _____    ______ ____
ROOT
ATOM      1  C   UNL     1      -0.097  11.798  21.113  0.00  0.00    +0.000 C 
ATOM      2  C   UNL     1      -0.799  11.669  22.266  0.00  0.00    +0.000 C 
ATOM      3 CL   UNL     1      -0.645  10.201  23.225  0.00  0.00    +0.000 Cl
ENDROOT
BRANCH   1   4
ATOM      4  C   UNL     1      -0.173  13.083  20.292  0.00  0.00    +0.000 C 
ATOM      5  O   UNL     1      -1.178  13.286  19.605  0.00  0.00    +0.000 OA
ATOM      6  N   UNL     1       0.923  13.960  20.200  0.00  0.00    +0.000 N 
ATOM      7  C   UNL     1       0.756  15.109  19.301  0.00  0.00    +0.000 C 
ATOM      8  C   UNL     1       2.063  15.491  18.610  0.00  0.00    +0.000 C 
ATOM      9  C   UNL     1       3.165  15.753  19.627  0.00  0.00    +0.000 C 
ATOM     10  C   UNL     1       3.323  14.552  20.546  0.00  0.00    +0.000 C 
ATOM     11  C   UNL     1       2.000  14.125  21.181  0.00  0.00    +0.000 C 
ENDBRANCH   1   4
BRANCH   2  12
ATOM     12  C   UNL     1      -1.670  12.655  22.917  0.00  0.00    +0.000 A 
ATOM     13  C   UNL     1      -1.153  13.804  23.527  0.00  0.00    +0.000 A 
ATOM     14  C   UNL     1      -2.015  14.687  24.174  0.00  0.00    +0.000 A 
ATOM     15  C   UNL     1      -3.367  14.383  24.211  0.00  0.00    +0.000 A 
ATOM     16  N   UNL     1      -3.901  13.277  23.646  0.00  0.00    +0.000 NA
ATOM     17  C   UNL     1      -3.041  12.443  23.010  0.00  0.00    +0.000 A 
ENDBRANCH   2  12
BRANCH   1  20
ATOM     18  O   UNL     1      -0.711   9.987  19.130  0.00  0.00    +0.000 OA
ATOM     19  C   UNL     1       0.369   9.900  19.712  0.00  0.00    +0.000 C 
ATOM     20  N   UNL     1       0.739  10.750  20.739  0.00  0.00    +0.000 N 
ATOM     21  H   UNL     1       1.725  10.972  20.770  0.00  0.00    +0.000 HD
BRANCH  19  22
ATOM     22  C   UNL     1       1.352   8.855  19.297  0.00  0.00    +0.000 A 
ATOM     23  C   UNL     1       1.753   7.782  20.103  0.00  0.00    +0.000 A 
ATOM     24  C   UNL     1       2.648   6.828  19.609  0.00  0.00    +0.000 A 
ATOM     25  C   UNL     1       3.147   6.935  18.308  0.00  0.00    +0.000 A 
ATOM     26  C   UNL     1       2.755   8.000  17.503  0.00  0.00    +0.000 A 
ATOM     27  C   UNL     1       1.865   8.961  18.000  0.00  0.00    +0.000 A 
ENDBRANCH  19  22
ENDBRANCH   1  20
TORSDOF 4
ENDMDL
MODEL 4
REMARK VINA RESULT:      -6.5      4.692     10.202
REMARK  Name = 
REMARK  4 active torsions:
REMARK  status: ('A' for Active; 'I' for Inactive)
REMARK    1  A    between atoms: C_2  and  C_21
REMARK    2  A    between atoms: N_3  and  C_4
REMARK    3  A    between atoms: C_4  and  C_5
REMARK    4  A    between atoms: C_13  and  C_15
REMARK                            x       y       z     vdW  Elec       q    Type
REMARK                         _______ _______ _______ _____ _____    ______ ____
ROOT
ATOM      1  C   UNL     1       3.701   6.173  18.160  0.00  0.00    +0.000 C 
ATOM      2  C   UNL     1       4.787   6.581  17.459  0.00  0.00    +0.000 C 
ATOM      3 CL   UNL     1       5.411   8.212  17.682  0.00  0.00    +0.000 Cl
ENDROOT
BRANCH   1   4
ATOM      4  C   UNL     1       3.174   4.746  18.024  0.00  0.00    +0.000 C 
ATOM      5  O   UNL     1       3.024   4.278  16.892  0.00  0.00    +0.000 OA
ATOM      6  N   UNL     1       2.735   4.018  19.144  0.00  0.00    +0.000 N 
ATOM      7  C   UNL     1       2.159   2.695  18.868  0.00  0.00    +0.000 C 
ATOM      8  C   UNL     1       1.029   2.348  19.834  0.00  0.00    +0.000 C 
ATOM      9  C   UNL     1       1.494   2.447  21.280  0.00  0.00    +0.000 C 
ATOM     10  C   UNL     1       2.083   3.823  21.546  0.00  0.00    +0.000 C 
ATOM     11  C   UNL     1       3.165   4.199  20.534  0.00  0.00    +0.000 C 
ENDBRANCH   1   4
BRANCH   2  12
ATOM     12  C   UNL     1       5.620   5.802  16.535  0.00  0.00    +0.000 A 
ATOM     13  C   UNL     1       5.283   5.657  15.184  0.00  0.00    +0.000 A 
ATOM     14  C   UNL     1       6.079   4.867  14.357  0.00  0.00    +0.000 A 
ATOM     15  C   UNL     1       7.177   4.227  14.911  0.00  0.00    +0.000 A 
ATOM     16  N   UNL     1       7.525   4.332  16.213  0.00  0.00    +0.000 NA
ATOM     17  C   UNL     1       6.742   5.119  16.992  0.00  0.00    +0.000 A 
ENDBRANCH   2  12
BRANCH   1  20
ATOM     18  O   UNL     1       1.747   7.982  17.454  0.00  0.00    +0.000 OA
ATOM     19  C   UNL     1       2.127   7.932  18.622  0.00  0.00    +0.000 C 
ATOM     20  N   UNL     1       3.125   7.074  19.050  0.00  0.00    +0.000 N 
ATOM     21  H   UNL     1       2.998   6.712  19.987  0.00  0.00    +0.000 HD
BRANCH  19  22
ATOM     22  C   UNL     1       1.485   8.806  19.648  0.00  0.00    +0.000 A 
ATOM     23  C   UNL     1       0.939  10.068  19.382  0.00  0.00    +0.000 A 
ATOM     24  C   UNL     1       0.318  10.795  20.403  0.00  0.00    +0.000 A 
ATOM     25  C   UNL     1       0.235  10.269  21.694  0.00  0.00    +0.000 A 
ATOM     26  C   UNL     1       0.779   9.017  21.967  0.00  0.00    +0.000 A 
ATOM     27  C   UNL     1       1.408   8.291  20.947  0.00  0.00    +0.000 A 
ENDBRANCH  19  22
ENDBRANCH   1  20
TORSDOF 4
ENDMDL
MODEL 5
REMARK VINA RESULT:      -6.4      3.810      8.995
REMARK  Name = 
REMARK  4 active torsions:
REMARK  status: ('A' for Active; 'I' for Inactive)
REMARK    1  A    between atoms: C_2  and  C_21
REMARK    2  A    between atoms: N_3  and  C_4
REMARK    3  A    between atoms: C_4  and  C_5
REMARK    4  A    between atoms: C_13  and  C_15
REMARK                            x       y       z     vdW  Elec       q    Type
REMARK                         _______ _______ _______ _____ _____    ______ ____
ROOT
ATOM      1  C   UNL     1       2.795   6.966  18.953  0.00  0.00    +0.000 C 
ATOM      2  C   UNL     1       2.319   5.785  19.419  0.00  0.00    +0.000 C 
ATOM      3 CL   UNL     1       1.232   5.764  20.802  0.00  0.00    +0.000 Cl
ENDROOT
BRANCH   1   4
ATOM      4  C   UNL     1       3.697   7.014  17.722  0.00  0.00    +0.000 C 
ATOM      5  O   UNL     1       3.280   7.579  16.707  0.00  0.00    +0.000 OA
ATOM      6  N   UNL     1       4.919   6.319  17.681  0.00  0.00    +0.000 N 
ATOM      7  C   UNL     1       5.646   6.366  16.405  0.00  0.00    +0.000 C 
ATOM      8  C   UNL     1       6.395   5.066  16.124  0.00  0.00    +0.000 C 
ATOM      9  C   UNL     1       7.333   4.714  17.270  0.00  0.00    +0.000 C 
ATOM     10  C   UNL     1       6.562   4.669  18.581  0.00  0.00    +0.000 C 
ATOM     11  C   UNL     1       5.755   5.942  18.826  0.00  0.00    +0.000 C 
ENDBRANCH   1   4
BRANCH   2  12
ATOM     12  C   UNL     1       2.527   4.440  18.870  0.00  0.00    +0.000 A 
ATOM     13  C   UNL     1       3.300   3.483  19.538  0.00  0.00    +0.000 A 
ATOM     14  C   UNL     1       3.508   2.236  18.953  0.00  0.00    +0.000 A 
ATOM     15  C   UNL     1       2.954   1.989  17.706  0.00  0.00    +0.000 A 
ATOM     16  N   UNL     1       2.214   2.893  17.025  0.00  0.00    +0.000 NA
ATOM     17  C   UNL     1       2.015   4.093  17.624  0.00  0.00    +0.000 A 
ENDBRANCH   2  12
BRANCH   1  20
ATOM     18  O   UNL     1       0.911   8.695  17.929  0.00  0.00    +0.000 OA
ATOM     19  C   UNL     1       1.412   8.932  19.026  0.00  0.00    +0.000 C 
ATOM     20  N   UNL     1       2.386   8.131  19.595  0.00  0.00    +0.000 N 
ATOM     21  H   UNL     1       2.338   8.057  20.603  0.00  0.00    +0.000 HD
BRANCH  19  22
ATOM     22  C   UNL     1       0.952  10.116  19.810  0.00  0.00    +0.000 A 
ATOM     23  C   UNL     1       1.029  11.441  19.361  0.00  0.00    +0.000 A 
ATOM     24  C   UNL     1       0.530  12.481  20.152  0.00  0.00    +0.000 A 
ATOM     25  C   UNL     1      -0.052  12.209  21.392  0.00  0.00    +0.000 A 
ATOM     26  C   UNL     1      -0.129  10.895  21.845  0.00  0.00    +0.000 A 
ATOM     27  C   UNL     1       0.377   9.853  21.058  0.00  0.00    +0.000 A 
ENDBRANCH  19  22
ENDBRANCH   1  20
TORSDOF 4
ENDMDL
MODEL 6
REMARK VINA RESULT:      -6.4      3.956      9.153
REMARK  Name = 
REMARK  4 active torsions:
REMARK  status: ('A' for Active; 'I' for Inactive)
REMARK    1  A    between atoms: C_2  and  C_21
REMARK    2  A    between atoms: N_3  and  C_4
REMARK    3  A    between atoms: C_4  and  C_5
REMARK    4  A    between atoms: C_13  and  C_15
REMARK                            x       y       z     vdW  Elec       q    Type
REMARK                         _______ _______ _______ _____ _____    ______ ____
ROOT
ATOM      1  C   UNL     1       2.909   6.824  18.903  0.00  0.00    +0.000 C 
ATOM      2  C   UNL     1       2.397   5.661  19.375  0.00  0.00    +0.000 C 
ATOM      3 CL   UNL     1       1.228   5.691  20.691  0.00  0.00    +0.000 Cl
ENDROOT
BRANCH   1   4
ATOM      4  C   UNL     1       3.884   6.827  17.727  0.00  0.00    +0.000 C 
ATOM      5  O   UNL     1       3.512   7.313  16.655  0.00  0.00    +0.000 OA
ATOM      6  N   UNL     1       5.127   6.175  17.804  0.00  0.00    +0.000 N 
ATOM      7  C   UNL     1       5.930   6.168  16.573  0.00  0.00    +0.000 C 
ATOM      8  C   UNL     1       6.736   4.881  16.422  0.00  0.00    +0.000 C 
ATOM      9  C   UNL     1       7.612   4.635  17.642  0.00  0.00    +0.000 C 
ATOM     10  C   UNL     1       6.763   4.643  18.904  0.00  0.00    +0.000 C 
ATOM     11  C   UNL     1       5.902   5.900  19.018  0.00  0.00    +0.000 C 
ENDBRANCH   1   4
BRANCH   2  12
ATOM     12  C   UNL     1       2.625   4.298  18.881  0.00  0.00    +0.000 A 
ATOM     13  C   UNL     1       3.412   3.381  19.588  0.00  0.00    +0.000 A 
ATOM     14  C   UNL     1       3.640   2.114  19.055  0.00  0.00    +0.000 A 
ATOM     15  C   UNL     1       3.091   1.809  17.818  0.00  0.00    +0.000 A 
ATOM     16  N   UNL     1       2.338   2.672  17.101  0.00  0.00    +0.000 NA
ATOM     17  C   UNL     1       2.121   3.893  17.651  0.00  0.00    +0.000 A 
ENDBRANCH   2  12
BRANCH   1  20
ATOM     18  O   UNL     1       1.108   8.534  17.712  0.00  0.00    +0.000 OA
ATOM     19  C   UNL     1       1.543   8.801  18.830  0.00  0.00    +0.000 C 
ATOM     20  N   UNL     1       2.472   8.011  19.482  0.00  0.00    +0.000 N 
ATOM     21  H   UNL     1       2.361   7.968  20.487  0.00  0.00    +0.000 HD
BRANCH  19  22
ATOM     22  C   UNL     1       1.046  10.013  19.548  0.00  0.00    +0.000 A 
ATOM     23  C   UNL     1       0.451   9.991  20.816  0.00  0.00    +0.000 A 
ATOM     24  C   UNL     1       0.057  11.186  21.428  0.00  0.00    +0.000 A 
ATOM     25  C   UNL     1       0.256  12.409  20.782  0.00  0.00    +0.000 A 
ATOM     26  C   UNL     1       0.843  12.437  19.521  0.00  0.00    +0.000 A 
ATOM     27  C   UNL     1       1.231  11.240  18.904  0.00  0.00    +0.000 A 
ENDBRANCH  19  22
ENDBRANCH   1  20
TORSDOF 4
ENDMDL
MODEL 7
REMARK VINA RESULT:      -6.4      4.279      9.908
REMARK  Name = 
REMARK  4 active torsions:
REMARK  status: ('A' for Active; 'I' for Inactive)
REMARK    1  A    between atoms: C_2  and  C_21
REMARK    2  A    between atoms: N_3  and  C_4
REMARK    3  A    between atoms: C_4  and  C_5
REMARK    4  A    between atoms: C_13  and  C_15
REMARK                            x       y       z     vdW  Elec       q    Type
REMARK                         _______ _______ _______ _____ _____    ______ ____
ROOT
ATOM      1  C   UNL     1       2.987   6.489  18.182  0.00  0.00    +0.000 C 
ATOM      2  C   UNL     1       4.151   6.631  17.503  0.00  0.00    +0.000 C 
ATOM      3 CL   UNL     1       5.066   8.129  17.639  0.00  0.00    +0.000 Cl
ENDROOT
BRANCH   1   4
ATOM      4  C   UNL     1       2.202   5.179  18.122  0.00  0.00    +0.000 C 
ATOM      5  O   UNL     1       1.542   4.934  17.109  0.00  0.00    +0.000 OA
ATOM      6  N   UNL     1       2.113   4.328  19.237  0.00  0.00    +0.000 N 
ATOM      7  C   UNL     1       1.250   3.150  19.082  0.00  0.00    +0.000 C 
ATOM      8  C   UNL     1       0.544   2.780  20.384  0.00  0.00    +0.000 C 
ATOM      9  C   UNL     1       1.546   2.574  21.512  0.00  0.00    +0.000 C 
ATOM     10  C   UNL     1       2.428   3.804  21.658  0.00  0.00    +0.000 C 
ATOM     11  C   UNL     1       3.077   4.216  20.337  0.00  0.00    +0.000 C 
ENDBRANCH   1   4
BRANCH   2  12
ATOM     12  C   UNL     1       4.849   5.641  16.674  0.00  0.00    +0.000 A 
ATOM     13  C   UNL     1       5.248   5.928  15.363  0.00  0.00    +0.000 A 
ATOM     14  C   UNL     1       5.864   4.939  14.600  0.00  0.00    +0.000 A 
ATOM     15  C   UNL     1       6.044   3.685  15.162  0.00  0.00    +0.000 A 
ATOM     16  N   UNL     1       5.660   3.367  16.419  0.00  0.00    +0.000 NA
ATOM     17  C   UNL     1       5.076   4.353  17.144  0.00  0.00    +0.000 A 
ENDBRANCH   2  12
BRANCH   1  20
ATOM     18  O   UNL     1       1.504   8.613  17.245  0.00  0.00    +0.000 OA
ATOM     19  C   UNL     1       1.797   8.563  18.437  0.00  0.00    +0.000 C 
ATOM     20  N   UNL     1       2.564   7.548  18.980  0.00  0.00    +0.000 N 
ATOM     21  H   UNL     1       2.311   7.283  19.923  0.00  0.00    +0.000 HD
BRANCH  19  22
ATOM     22  C   UNL     1       1.298   9.619  19.368  0.00  0.00    +0.000 A 
ATOM     23  C   UNL     1       1.215  10.980  19.049  0.00  0.00    +0.000 A 
ATOM     24  C   UNL     1       0.691  11.889  19.974  0.00  0.00    +0.000 A 
ATOM     25  C   UNL     1       0.244  11.447  21.222  0.00  0.00    +0.000 A 
ATOM     26  C   UNL     1       0.326  10.097  21.547  0.00  0.00    +0.000 A 
ATOM     27  C   UNL     1       0.857   9.186  20.624  0.00  0.00    +0.000 A 
ENDBRANCH  19  22
ENDBRANCH   1  20
TORSDOF 4
ENDMDL
MODEL 8
REMARK VINA RESULT:      -6.3      2.952      6.343
REMARK  Name = 
REMARK  4 active torsions:
REMARK  status: ('A' for Active; 'I' for Inactive)
REMARK    1  A    between atoms: C_2  and  C_21
REMARK    2  A    between atoms: N_3  and  C_4
REMARK    3  A    between atoms: C_4  and  C_5
REMARK    4  A    between atoms: C_13  and  C_15
REMARK                            x       y       z     vdW  Elec       q    Type
REMARK                         _______ _______ _______ _____ _____    ______ ____
ROOT
ATOM      1  C   UNL     1      -1.854  14.444  20.483  0.00  0.00    +0.000 C 
ATOM      2  C   UNL     1      -2.864  14.836  21.298  0.00  0.00    +0.000 C 
ATOM      3 CL   UNL     1      -3.569  16.437  21.109  0.00  0.00    +0.000 Cl
ENDROOT
BRANCH   1   4
ATOM      4  C   UNL     1      -1.263  13.040  20.592  0.00  0.00    +0.000 C 
ATOM      5  O   UNL     1      -0.443  12.813  21.486  0.00  0.00    +0.000 OA
ATOM      6  N   UNL     1      -1.529  12.055  19.623  0.00  0.00    +0.000 N 
ATOM      7  C   UNL     1      -0.822  10.778  19.790  0.00  0.00    +0.000 C 
ATOM      8  C   UNL     1      -0.466  10.142  18.449  0.00  0.00    +0.000 C 
ATOM      9  C   UNL     1      -1.702   9.968  17.578  0.00  0.00    +0.000 C 
ATOM     10  C   UNL     1      -2.418  11.300  17.416  0.00  0.00    +0.000 C 
ATOM     11  C   UNL     1      -2.710  11.971  18.758  0.00  0.00    +0.000 C 
ENDBRANCH   1   4
BRANCH   2  12
ATOM     12  C   UNL     1      -3.553  14.057  22.333  0.00  0.00    +0.000 A 
ATOM     13  C   UNL     1      -4.759  13.393  22.075  0.00  0.00    +0.000 A 
ATOM     14  C   UNL     1      -5.400  12.706  23.104  0.00  0.00    +0.000 A 
ATOM     15  C   UNL     1      -4.828  12.721  24.366  0.00  0.00    +0.000 A 
ATOM     16  N   UNL     1      -3.673  13.361  24.657  0.00  0.00    +0.000 NA
ATOM     17  C   UNL     1      -3.063  14.009  23.634  0.00  0.00    +0.000 A 
ENDBRANCH   2  12
BRANCH   1  20
ATOM     18  O   UNL     1       0.390  16.019  20.744  0.00  0.00    +0.000 OA
ATOM     19  C   UNL     1      -0.264  16.072  19.705  0.00  0.00    +0.000 C 
ATOM     20  N   UNL     1      -1.420  15.337  19.508  0.00  0.00    +0.000 N 
ATOM     21  H   UNL     1      -1.563  15.018  18.558  0.00  0.00    +0.000 HD
BRANCH  19  22
ATOM     22  C   UNL     1       0.197  16.940  18.581  0.00  0.00    +0.000 A 
ATOM     23  C   UNL     1       1.518  16.999  18.119  0.00  0.00    +0.000 A 
ATOM     24  C   UNL     1       1.845  17.813  17.029  0.00  0.00    +0.000 A 
ATOM     25  C   UNL     1       0.859  18.569  16.391  0.00  0.00    +0.000 A 
ATOM     26  C   UNL     1      -0.455  18.517  16.848  0.00  0.00    +0.000 A 
ATOM     27  C   UNL     1      -0.783  17.709  17.944  0.00  0.00    +0.000 A 
ENDBRANCH  19  22
ENDBRANCH   1  20
TORSDOF 4
ENDMDL
MODEL 9
REMARK VINA RESULT:      -6.3      4.222      7.856
REMARK  Name = 
REMARK  4 active torsions:
REMARK  status: ('A' for Active; 'I' for Inactive)
REMARK    1  A    between atoms: C_2  and  C_21
REMARK    2  A    between atoms: N_3  and  C_4
REMARK    3  A    between atoms: C_4  and  C_5
REMARK    4  A    between atoms: C_13  and  C_15
REMARK                            x       y       z     vdW  Elec       q    Type
REMARK                         _______ _______ _______ _____ _____    ______ ____
ROOT
ATOM      1  C   UNL     1       2.459   7.046  18.945  0.00  0.00    +0.000 C 
ATOM      2  C   UNL     1       2.131   8.360  19.012  0.00  0.00    +0.000 C 
ATOM      3 CL   UNL     1       2.770   9.484  17.818  0.00  0.00    +0.000 Cl
ENDROOT
BRANCH   1   4
ATOM      4  C   UNL     1       1.874   6.043  19.937  0.00  0.00    +0.000 C 
ATOM      5  O   UNL     1       1.709   6.398  21.107  0.00  0.00    +0.000 OA
ATOM      6  N   UNL     1       1.652   4.702  19.577  0.00  0.00    +0.000 N 
ATOM      7  C   UNL     1       1.178   3.816  20.649  0.00  0.00    +0.000 C 
ATOM      8  C   UNL     1       1.727   2.399  20.506  0.00  0.00    +0.000 C 
ATOM      9  C   UNL     1       1.398   1.819  19.137  0.00  0.00    +0.000 C 
ATOM     10  C   UNL     1       1.898   2.748  18.042  0.00  0.00    +0.000 C 
ATOM     11  C   UNL     1       1.407   4.183  18.227  0.00  0.00    +0.000 C 
ENDBRANCH   1   4
BRANCH   2  12
ATOM     12  C   UNL     1       1.209   9.021  19.942  0.00  0.00    +0.000 A 
ATOM     13  C   UNL     1       0.001   9.581  19.509  0.00  0.00    +0.000 A 
ATOM     14  C   UNL     1      -0.819  10.241  20.422  0.00  0.00    +0.000 A 
ATOM     15  C   UNL     1      -0.397  10.341  21.738  0.00  0.00    +0.000 A 
ATOM     16  N   UNL     1       0.769   9.826  22.191  0.00  0.00    +0.000 NA
ATOM     17  C   UNL     1       1.540   9.176  21.284  0.00  0.00    +0.000 A 
ENDBRANCH   2  12
BRANCH   1  20
ATOM     18  O   UNL     1       4.903   5.837  19.340  0.00  0.00    +0.000 OA
ATOM     19  C   UNL     1       4.494   6.009  18.193  0.00  0.00    +0.000 C 
ATOM     20  N   UNL     1       3.294   6.636  17.910  0.00  0.00    +0.000 N 
ATOM     21  H   UNL     1       2.806   6.272  17.101  0.00  0.00    +0.000 HD
BRANCH  19  22
ATOM     22  C   UNL     1       5.297   5.508  17.037  0.00  0.00    +0.000 A 
ATOM     23  C   UNL     1       6.616   5.893  16.766  0.00  0.00    +0.000 A 
ATOM     24  C   UNL     1       7.302   5.335  15.682  0.00  0.00    +0.000 A 
ATOM     25  C   UNL     1       6.680   4.388  14.864  0.00  0.00    +0.000 A 
ATOM     26  C   UNL     1       5.368   4.004  15.127  0.00  0.00    +0.000 A 
ATOM     27  C   UNL     1       4.677   4.568  16.207  0.00  0.00    +0.000 A 
ENDBRANCH  19  22
ENDBRANCH   1  20
TORSDOF 4
ENDMDL
