MODEL 1
REMARK VINA RESULT:      -7.6      0.000      0.000
REMARK  Name = 
REMARK  6 active torsions:
REMARK  status: ('A' for Active; 'I' for Inactive)
REMARK    1  A    between atoms: C_1  and  C_2
REMARK    2  A    between atoms: C_7  and  C_8
REMARK    3  A    between atoms: C_12  and  C_13
REMARK    4  A    between atoms: C_13  and  S_14
REMARK    5  A    between atoms: S_14  and  C_16
REMARK    6  A    between atoms: C_16  and  C_17
REMARK                            x       y       z     vdW  Elec       q    Type
REMARK                         _______ _______ _______ _____ _____    ______ ____
ROOT
ATOM      1  C   UNL     1       4.016   6.343  17.790  0.00  0.00    +0.000 A 
ATOM      2  C   UNL     1       3.475   7.598  17.429  0.00  0.00    +0.000 A 
ATOM      3  C   UNL     1       2.520   8.248  18.211  0.00  0.00    +0.000 A 
ATOM      4  C   UNL     1       2.019   7.641  19.360  0.00  0.00    +0.000 A 
ATOM      5  C   UNL     1       2.493   6.383  19.738  0.00  0.00    +0.000 A 
ATOM      6  C   UNL     1       3.517   5.783  18.980  0.00  0.00    +0.000 A 
ENDROOT
BRANCH   1  13
ATOM      7  C   UNL     1       6.969   7.358  17.509  0.00  0.00    +0.000 C 
ATOM      8  C   UNL     1       6.408   6.141  16.814  0.00  0.00    +0.000 A 
ATOM      9  C   UNL     1       7.309   5.448  15.968  0.00  0.00    +0.000 A 
ATOM     10  C   UNL     1       6.937   4.288  15.304  0.00  0.00    +0.000 A 
ATOM     11  C   UNL     1       5.647   3.801  15.461  0.00  0.00    +0.000 A 
ATOM     12  C   UNL     1       4.736   4.492  16.262  0.00  0.00    +0.000 A 
ATOM     13  C   UNL     1       5.073   5.676  16.962  0.00  0.00    +0.000 A 
ENDBRANCH   1  13
BRANCH   5  14
ATOM     14  C   UNL     1       1.861   5.611  20.876  0.00  0.00    +0.000 C 
BRANCH  14  15
ATOM     15  S   UNL     1       2.366   3.855  20.804  0.00  0.00    +0.000 S 
ATOM     16  O   UNL     1       2.177   3.214  22.231  0.00  0.00    +0.000 OA
BRANCH  15  17
ATOM     17  C   UNL     1       0.984   3.261  19.786  0.00  0.00    +0.000 C 
BRANCH  17  18
ATOM     18  C   UNL     1       1.419   2.961  18.364  0.00  0.00    +0.000 C 
ATOM     19  N   UNL     1       2.043   1.770  18.135  0.00  0.00    +0.000 N 
ATOM     20  O   UNL     1       1.161   3.714  17.430  0.00  0.00    +0.000 OA
ATOM     21  H   UNL     1       2.308   1.144  18.895  0.00  0.00    +0.000 HD
ATOM     22  H   UNL     1       2.374   1.560  17.203  0.00  0.00    +0.000 HD
ENDBRANCH  17  18
ENDBRANCH  15  17
ENDBRANCH  14  15
ENDBRANCH   5  14
TORSDOF 5
ENDMDL
MODEL 2
REMARK VINA RESULT:      -7.4      3.156      5.765
REMARK  Name = 
REMARK  6 active torsions:
REMARK  status: ('A' for Active; 'I' for Inactive)
REMARK    1  A    between atoms: C_1  and  C_2
REMARK    2  A    between atoms: C_7  and  C_8
REMARK    3  A    between atoms: C_12  and  C_13
REMARK    4  A    between atoms: C_13  and  S_14
REMARK    5  A    between atoms: S_14  and  C_16
REMARK    6  A    between atoms: C_16  and  C_17
REMARK                            x       y       z     vdW  Elec       q    Type
REMARK                         _______ _______ _______ _____ _____    ______ ____
ROOT
ATOM      1  C   UNL     1       2.882   5.679  18.714  0.00  0.00    +0.000 A 
ATOM      2  C   UNL     1       2.304   6.956  18.892  0.00  0.00    +0.000 A 
ATOM      3  C   UNL     1       2.675   8.054  18.116  0.00  0.00    +0.000 A 
ATOM      4  C   UNL     1       3.686   7.935  17.166  0.00  0.00    +0.000 A 
ATOM      5  C   UNL     1       4.316   6.702  16.978  0.00  0.00    +0.000 A 
ATOM      6  C   UNL     1       3.867   5.589  17.714  0.00  0.00    +0.000 A 
ENDROOT
BRANCH   1  13
ATOM      7  C   UNL     1       2.120   2.878  17.527  0.00  0.00    +0.000 C 
ATOM      8  C   UNL     1       2.078   3.231  18.995  0.00  0.00    +0.000 A 
ATOM      9  C   UNL     1       1.637   2.201  19.861  0.00  0.00    +0.000 A 
ATOM     10  C   UNL     1       1.592   2.376  21.237  0.00  0.00    +0.000 A 
ATOM     11  C   UNL     1       1.975   3.595  21.777  0.00  0.00    +0.000 A 
ATOM     12  C   UNL     1       2.377   4.634  20.935  0.00  0.00    +0.000 A 
ATOM     13  C   UNL     1       2.443   4.498  19.527  0.00  0.00    +0.000 A 
ENDBRANCH   1  13
BRANCH   5  14
ATOM     14  C   UNL     1       5.529   6.564  16.085  0.00  0.00    +0.000 C 
BRANCH  14  15
ATOM     15  S   UNL     1       6.623   5.237  16.708  0.00  0.00    +0.000 S 
ATOM     16  O   UNL     1       7.715   4.926  15.616  0.00  0.00    +0.000 OA
BRANCH  15  17
ATOM     17  C   UNL     1       7.449   6.209  18.001  0.00  0.00    +0.000 C 
BRANCH  17  18
ATOM     18  C   UNL     1       7.352   5.539  19.359  0.00  0.00    +0.000 C 
ATOM     19  N   UNL     1       8.496   5.441  20.094  0.00  0.00    +0.000 N 
ATOM     20  O   UNL     1       6.280   5.163  19.826  0.00  0.00    +0.000 OA
ATOM     21  H   UNL     1       9.405   5.705  19.717  0.00  0.00    +0.000 HD
ATOM     22  H   UNL     1       8.466   4.968  20.988  0.00  0.00    +0.000 HD
ENDBRANCH  17  18
ENDBRANCH  15  17
ENDBRANCH  14  15
ENDBRANCH   5  14
TORSDOF 5
ENDMDL
MODEL 3
REMARK VINA RESULT:      -7.3      4.028      6.478
REMARK  Name = 
REMARK  6 active torsions:
REMARK  status: ('A' for Active; 'I' for Inactive)
REMARK    1  A    between atoms: C_1  and  C_2
REMARK    2  A    between atoms: C_7  and  C_8
REMARK    3  A    between atoms: C_12  and  C_13
REMARK    4  A    between atoms: C_13  and  S_14
REMARK    5  A    between atoms: S_14  and  C_16
REMARK    6  A    between atoms: C_16  and  C_17
REMARK                            x       y       z     vdW  Elec       q    Type
REMARK                         _______ _______ _______ _____ _____    ______ ____
ROOT
ATOM      1  C   UNL     1       3.775   4.804  17.786  0.00  0.00    +0.000 A 
ATOM      2  C   UNL     1       4.031   6.193  17.852  0.00  0.00    +0.000 A 
ATOM      3  C   UNL     1       4.843   6.842  16.922  0.00  0.00    +0.000 A 
ATOM      4  C   UNL     1       5.486   6.119  15.920  0.00  0.00    +0.000 A 
ATOM      5  C   UNL     1       5.297   4.738  15.837  0.00  0.00    +0.000 A 
ATOM      6  C   UNL     1       4.406   4.116  16.734  0.00  0.00    +0.000 A 
ENDROOT
BRANCH   1  13
ATOM      7  C   UNL     1       3.530   1.699  18.141  0.00  0.00    +0.000 C 
ATOM      8  C   UNL     1       2.735   2.719  18.920  0.00  0.00    +0.000 A 
ATOM      9  C   UNL     1       1.809   2.193  19.854  0.00  0.00    +0.000 A 
ATOM     10  C   UNL     1       1.047   3.019  20.668  0.00  0.00    +0.000 A 
ATOM     11  C   UNL     1       1.184   4.395  20.556  0.00  0.00    +0.000 A 
ATOM     12  C   UNL     1       2.065   4.931  19.614  0.00  0.00    +0.000 A 
ATOM     13  C   UNL     1       2.866   4.127  18.767  0.00  0.00    +0.000 A 
ENDBRANCH   1  13
BRANCH   5  14
ATOM     14  C   UNL     1       6.101   3.887  14.879  0.00  0.00    +0.000 C 
BRANCH  14  15
ATOM     15  S   UNL     1       6.676   4.899  13.469  0.00  0.00    +0.000 S 
ATOM     16  O   UNL     1       8.078   5.521  13.829  0.00  0.00    +0.000 OA
BRANCH  15  17
ATOM     17  C   UNL     1       7.001   3.529  12.321  0.00  0.00    +0.000 C 
BRANCH  17  18
ATOM     18  C   UNL     1       5.718   2.859  11.864  0.00  0.00    +0.000 C 
ATOM     19  N   UNL     1       5.772   1.528  11.573  0.00  0.00    +0.000 N 
ATOM     20  O   UNL     1       4.647   3.459  11.826  0.00  0.00    +0.000 OA
ATOM     21  H   UNL     1       6.653   1.015  11.554  0.00  0.00    +0.000 HD
ATOM     22  H   UNL     1       4.940   1.065  11.234  0.00  0.00    +0.000 HD
ENDBRANCH  17  18
ENDBRANCH  15  17
ENDBRANCH  14  15
ENDBRANCH   5  14
TORSDOF 5
ENDMDL
MODEL 4
REMARK VINA RESULT:      -7.2      3.429      5.870
REMARK  Name = 
REMARK  6 active torsions:
REMARK  status: ('A' for Active; 'I' for Inactive)
REMARK    1  A    between atoms: C_1  and  C_2
REMARK    2  A    between atoms: C_7  and  C_8
REMARK    3  A    between atoms: C_12  and  C_13
REMARK    4  A    between atoms: C_13  and  S_14
REMARK    5  A    between atoms: S_14  and  C_16
REMARK    6  A    between atoms: C_16  and  C_17
REMARK                            x       y       z     vdW  Elec       q    Type
REMARK                         _______ _______ _______ _____ _____    ______ ____
ROOT
ATOM      1  C   UNL     1       2.568   6.261  18.454  0.00  0.00    +0.000 A 
ATOM      2  C   UNL     1       1.699   5.294  17.900  0.00  0.00    +0.000 A 
ATOM      3  C   UNL     1       2.094   3.973  17.693  0.00  0.00    +0.000 A 
ATOM      4  C   UNL     1       3.398   3.575  17.976  0.00  0.00    +0.000 A 
ATOM      5  C   UNL     1       4.307   4.503  18.489  0.00  0.00    +0.000 A 
ATOM      6  C   UNL     1       3.863   5.810  18.768  0.00  0.00    +0.000 A 
ENDROOT
BRANCH   1  13
ATOM      7  C   UNL     1       1.328   7.274  21.150  0.00  0.00    +0.000 C 
ATOM      8  C   UNL     1       1.535   8.130  19.923  0.00  0.00    +0.000 A 
ATOM      9  C   UNL     1       1.106   9.475  20.034  0.00  0.00    +0.000 A 
ATOM     10  C   UNL     1       1.278  10.382  18.997  0.00  0.00    +0.000 A 
ATOM     11  C   UNL     1       1.872   9.957  17.818  0.00  0.00    +0.000 A 
ATOM     12  C   UNL     1       2.267   8.625  17.678  0.00  0.00    +0.000 A 
ATOM     13  C   UNL     1       2.116   7.668  18.710  0.00  0.00    +0.000 A 
ENDBRANCH   1  13
BRANCH   5  14
ATOM     14  C   UNL     1       5.773   4.166  18.651  0.00  0.00    +0.000 C 
BRANCH  14  15
ATOM     15  S   UNL     1       6.754   4.968  17.332  0.00  0.00    +0.000 S 
ATOM     16  O   UNL     1       8.152   4.248  17.231  0.00  0.00    +0.000 OA
BRANCH  15  17
ATOM     17  C   UNL     1       5.769   4.380  15.924  0.00  0.00    +0.000 C 
BRANCH  17  18
ATOM     18  C   UNL     1       6.542   4.464  14.621  0.00  0.00    +0.000 C 
ATOM     19  N   UNL     1       7.562   5.367  14.552  0.00  0.00    +0.000 N 
ATOM     20  O   UNL     1       6.322   3.704  13.682  0.00  0.00    +0.000 OA
ATOM     21  H   UNL     1       7.740   6.038  15.297  0.00  0.00    +0.000 HD
ATOM     22  H   UNL     1       8.071   5.467  13.684  0.00  0.00    +0.000 HD
ENDBRANCH  17  18
ENDBRANCH  15  17
ENDBRANCH  14  15
ENDBRANCH   5  14
TORSDOF 5
ENDMDL
MODEL 5
REMARK VINA RESULT:      -7.2      1.133      1.496
REMARK  Name = 
REMARK  6 active torsions:
REMARK  status: ('A' for Active; 'I' for Inactive)
REMARK    1  A    between atoms: C_1  and  C_2
REMARK    2  A    between atoms: C_7  and  C_8
REMARK    3  A    between atoms: C_12  and  C_13
REMARK    4  A    between atoms: C_13  and  S_14
REMARK    5  A    between atoms: S_14  and  C_16
REMARK    6  A    between atoms: C_16  and  C_17
REMARK                            x       y       z     vdW  Elec       q    Type
REMARK                         _______ _______ _______ _____ _____    ______ ____
ROOT
ATOM      1  C   UNL     1       4.172   6.189  17.628  0.00  0.00    +0.000 A 
ATOM      2  C   UNL     1       3.544   7.433  17.397  0.00  0.00    +0.000 A 
ATOM      3  C   UNL     1       2.618   7.974  18.289  0.00  0.00    +0.000 A 
ATOM      4  C   UNL     1       2.232   7.263  19.422  0.00  0.00    +0.000 A 
ATOM      5  C   UNL     1       2.795   6.009  19.675  0.00  0.00    +0.000 A 
ATOM      6  C   UNL     1       3.790   5.521  18.806  0.00  0.00    +0.000 A 
ENDROOT
BRANCH   1  13
ATOM      7  C   UNL     1       7.220   6.920  17.681  0.00  0.00    +0.000 C 
ATOM      8  C   UNL     1       6.578   5.981  16.688  0.00  0.00    +0.000 A 
ATOM      9  C   UNL     1       7.447   5.429  15.715  0.00  0.00    +0.000 A 
ATOM     10  C   UNL     1       6.996   4.517  14.770  0.00  0.00    +0.000 A 
ATOM     11  C   UNL     1       5.659   4.147  14.770  0.00  0.00    +0.000 A 
ATOM     12  C   UNL     1       4.781   4.710  15.698  0.00  0.00    +0.000 A 
ATOM     13  C   UNL     1       5.198   5.639  16.682  0.00  0.00    +0.000 A 
ENDBRANCH   1  13
BRANCH   5  14
ATOM     14  C   UNL     1       2.287   5.127  20.794  0.00  0.00    +0.000 C 
BRANCH  14  15
ATOM     15  S   UNL     1       1.083   3.914  20.143  0.00  0.00    +0.000 S 
ATOM     16  O   UNL     1       1.088   3.987  18.570  0.00  0.00    +0.000 OA
BRANCH  15  17
ATOM     17  C   UNL     1       2.004   2.414  20.592  0.00  0.00    +0.000 C 
BRANCH  17  18
ATOM     18  C   UNL     1       3.034   2.048  19.539  0.00  0.00    +0.000 C 
ATOM     19  N   UNL     1       2.573   1.571  18.348  0.00  0.00    +0.000 N 
ATOM     20  O   UNL     1       4.235   2.239  19.708  0.00  0.00    +0.000 OA
ATOM     21  H   UNL     1       1.587   1.363  18.195  0.00  0.00    +0.000 HD
ATOM     22  H   UNL     1       3.238   1.288  17.642  0.00  0.00    +0.000 HD
ENDBRANCH  17  18
ENDBRANCH  15  17
ENDBRANCH  14  15
ENDBRANCH   5  14
TORSDOF 5
ENDMDL
MODEL 6
REMARK VINA RESULT:      -7.1      2.959      5.620
REMARK  Name = 
REMARK  6 active torsions:
REMARK  status: ('A' for Active; 'I' for Inactive)
REMARK    1  A    between atoms: C_1  and  C_2
REMARK    2  A    between atoms: C_7  and  C_8
REMARK    3  A    between atoms: C_12  and  C_13
REMARK    4  A    between atoms: C_13  and  S_14
REMARK    5  A    between atoms: S_14  and  C_16
REMARK    6  A    between atoms: C_16  and  C_17
REMARK                            x       y       z     vdW  Elec       q    Type
REMARK                         _______ _______ _______ _____ _____    ______ ____
ROOT
ATOM      1  C   UNL     1       2.451   6.307  18.546  0.00  0.00    +0.000 A 
ATOM      2  C   UNL     1       1.636   5.407  17.822  0.00  0.00    +0.000 A 
ATOM      3  C   UNL     1       1.984   4.068  17.645  0.00  0.00    +0.000 A 
ATOM      4  C   UNL     1       3.194   3.584  18.135  0.00  0.00    +0.000 A 
ATOM      5  C   UNL     1       4.053   4.444  18.825  0.00  0.00    +0.000 A 
ATOM      6  C   UNL     1       3.643   5.770  19.063  0.00  0.00    +0.000 A 
ENDROOT
BRANCH   1  13
ATOM      7  C   UNL     1       1.188   7.419  21.192  0.00  0.00    +0.000 C 
ATOM      8  C   UNL     1       1.453   8.241  19.953  0.00  0.00    +0.000 A 
ATOM      9  C   UNL     1       1.070   9.603  20.027  0.00  0.00    +0.000 A 
ATOM     10  C   UNL     1       1.297  10.481  18.977  0.00  0.00    +0.000 A 
ATOM     11  C   UNL     1       1.901  10.011  17.820  0.00  0.00    +0.000 A 
ATOM     12  C   UNL     1       2.252   8.663  17.716  0.00  0.00    +0.000 A 
ATOM     13  C   UNL     1       2.044   7.733  18.763  0.00  0.00    +0.000 A 
ENDBRANCH   1  13
BRANCH   5  14
ATOM     14  C   UNL     1       5.447   4.013  19.225  0.00  0.00    +0.000 C 
BRANCH  14  15
ATOM     15  S   UNL     1       6.629   5.384  18.969  0.00  0.00    +0.000 S 
ATOM     16  O   UNL     1       7.605   5.450  20.204  0.00  0.00    +0.000 OA
BRANCH  15  17
ATOM     17  C   UNL     1       7.569   4.625  17.611  0.00  0.00    +0.000 C 
BRANCH  17  18
ATOM     18  C   UNL     1       6.854   4.771  16.280  0.00  0.00    +0.000 C 
ATOM     19  N   UNL     1       6.262   3.659  15.760  0.00  0.00    +0.000 N 
ATOM     20  O   UNL     1       6.738   5.857  15.718  0.00  0.00    +0.000 OA
ATOM     21  H   UNL     1       6.377   2.738  16.181  0.00  0.00    +0.000 HD
ATOM     22  H   UNL     1       5.809   3.720  14.858  0.00  0.00    +0.000 HD
ENDBRANCH  17  18
ENDBRANCH  15  17
ENDBRANCH  14  15
ENDBRANCH   5  14
TORSDOF 5
ENDMDL
MODEL 7
REMARK VINA RESULT:      -7.0      3.967      6.478
REMARK  Name = 
REMARK  6 active torsions:
REMARK  status: ('A' for Active; 'I' for Inactive)
REMARK    1  A    between atoms: C_1  and  C_2
REMARK    2  A    between atoms: C_7  and  C_8
REMARK    3  A    between atoms: C_12  and  C_13
REMARK    4  A    between atoms: C_13  and  S_14
REMARK    5  A    between atoms: S_14  and  C_16
REMARK    6  A    between atoms: C_16  and  C_17
REMARK                            x       y       z     vdW  Elec       q    Type
REMARK                         _______ _______ _______ _____ _____    ______ ____
ROOT
ATOM      1  C   UNL     1       4.860   4.466  18.549  0.00  0.00    +0.000 A 
ATOM      2  C   UNL     1       6.006   5.096  19.083  0.00  0.00    +0.000 A 
ATOM      3  C   UNL     1       7.153   5.320  18.321  0.00  0.00    +0.000 A 
ATOM      4  C   UNL     1       7.225   4.867  17.006  0.00  0.00    +0.000 A 
ATOM      5  C   UNL     1       6.132   4.202  16.445  0.00  0.00    +0.000 A 
ATOM      6  C   UNL     1       4.955   4.062  17.205  0.00  0.00    +0.000 A 
ENDROOT
BRANCH   1  13
ATOM      7  C   UNL     1       2.658   6.651  19.003  0.00  0.00    +0.000 C 
ATOM      8  C   UNL     1       2.626   5.262  19.594  0.00  0.00    +0.000 A 
ATOM      9  C   UNL     1       1.514   4.973  20.423  0.00  0.00    +0.000 A 
ATOM     10  C   UNL     1       1.337   3.720  20.994  0.00  0.00    +0.000 A 
ATOM     11  C   UNL     1       2.280   2.730  20.758  0.00  0.00    +0.000 A 
ATOM     12  C   UNL     1       3.401   3.008  19.973  0.00  0.00    +0.000 A 
ATOM     13  C   UNL     1       3.619   4.270  19.368  0.00  0.00    +0.000 A 
ENDBRANCH   1  13
BRANCH   5  14
ATOM     14  C   UNL     1       6.222   3.544  15.086  0.00  0.00    +0.000 C 
BRANCH  14  15
ATOM     15  S   UNL     1       6.503   4.805  13.791  0.00  0.00    +0.000 S 
ATOM     16  O   UNL     1       7.849   5.562  14.104  0.00  0.00    +0.000 OA
BRANCH  15  17
ATOM     17  C   UNL     1       6.861   3.659  12.428  0.00  0.00    +0.000 C 
BRANCH  17  18
ATOM     18  C   UNL     1       5.612   2.942  11.951  0.00  0.00    +0.000 C 
ATOM     19  N   UNL     1       4.449   3.654  11.928  0.00  0.00    +0.000 N 
ATOM     20  O   UNL     1       5.642   1.791  11.526  0.00  0.00    +0.000 OA
ATOM     21  H   UNL     1       4.384   4.595  12.313  0.00  0.00    +0.000 HD
ATOM     22  H   UNL     1       3.595   3.191  11.647  0.00  0.00    +0.000 HD
ENDBRANCH  17  18
ENDBRANCH  15  17
ENDBRANCH  14  15
ENDBRANCH   5  14
TORSDOF 5
ENDMDL
MODEL 8
REMARK VINA RESULT:      -7.0      3.026      5.794
REMARK  Name = 
REMARK  6 active torsions:
REMARK  status: ('A' for Active; 'I' for Inactive)
REMARK    1  A    between atoms: C_1  and  C_2
REMARK    2  A    between atoms: C_7  and  C_8
REMARK    3  A    between atoms: C_12  and  C_13
REMARK    4  A    between atoms: C_13  and  S_14
REMARK    5  A    between atoms: S_14  and  C_16
REMARK    6  A    between atoms: C_16  and  C_17
REMARK                            x       y       z     vdW  Elec       q    Type
REMARK                         _______ _______ _______ _____ _____    ______ ____
ROOT
ATOM      1  C   UNL     1       2.093   5.834  20.152  0.00  0.00    +0.000 A 
ATOM      2  C   UNL     1       1.189   4.876  20.664  0.00  0.00    +0.000 A 
ATOM      3  C   UNL     1       1.526   3.528  20.786  0.00  0.00    +0.000 A 
ATOM      4  C   UNL     1       2.764   3.069  20.345  0.00  0.00    +0.000 A 
ATOM      5  C   UNL     1       3.678   3.970  19.794  0.00  0.00    +0.000 A 
ATOM      6  C   UNL     1       3.349   5.339  19.758  0.00  0.00    +0.000 A 
ENDROOT
BRANCH   1  13
ATOM      7  C   UNL     1       2.624   7.659  17.659  0.00  0.00    +0.000 C 
ATOM      8  C   UNL     1       1.987   8.125  18.946  0.00  0.00    +0.000 A 
ATOM      9  C   UNL     1       1.637   9.497  18.996  0.00  0.00    +0.000 A 
ATOM     10  C   UNL     1       1.004  10.047  20.102  0.00  0.00    +0.000 A 
ATOM     11  C   UNL     1       0.718   9.237  21.191  0.00  0.00    +0.000 A 
ATOM     12  C   UNL     1       1.089   7.891  21.173  0.00  0.00    +0.000 A 
ATOM     13  C   UNL     1       1.732   7.287  20.065  0.00  0.00    +0.000 A 
ENDBRANCH   1  13
BRANCH   5  14
ATOM     14  C   UNL     1       4.961   3.496  19.147  0.00  0.00    +0.000 C 
BRANCH  14  15
ATOM     15  S   UNL     1       5.868   4.914  18.433  0.00  0.00    +0.000 S 
ATOM     16  O   UNL     1       7.409   4.583  18.434  0.00  0.00    +0.000 OA
BRANCH  15  17
ATOM     17  C   UNL     1       5.300   4.712  16.720  0.00  0.00    +0.000 C 
BRANCH  17  18
ATOM     18  C   UNL     1       5.923   5.740  15.793  0.00  0.00    +0.000 C 
ATOM     19  N   UNL     1       7.241   5.586  15.480  0.00  0.00    +0.000 N 
ATOM     20  O   UNL     1       5.263   6.637  15.276  0.00  0.00    +0.000 OA
ATOM     21  H   UNL     1       7.823   4.878  15.925  0.00  0.00    +0.000 HD
ATOM     22  H   UNL     1       7.690   6.276  14.892  0.00  0.00    +0.000 HD
ENDBRANCH  17  18
ENDBRANCH  15  17
ENDBRANCH  14  15
ENDBRANCH   5  14
TORSDOF 5
ENDMDL
MODEL 9
REMARK VINA RESULT:      -7.0      3.071      5.799
REMARK  Name = 
REMARK  6 active torsions:
REMARK  status: ('A' for Active; 'I' for Inactive)
REMARK    1  A    between atoms: C_1  and  C_2
REMARK    2  A    between atoms: C_7  and  C_8
REMARK    3  A    between atoms: C_12  and  C_13
REMARK    4  A    between atoms: C_13  and  S_14
REMARK    5  A    between atoms: S_14  and  C_16
REMARK    6  A    between atoms: C_16  and  C_17
REMARK                            x       y       z     vdW  Elec       q    Type
REMARK                         _______ _______ _______ _____ _____    ______ ____
ROOT
ATOM      1  C   UNL     1       2.342   6.422  19.742  0.00  0.00    +0.000 A 
ATOM      2  C   UNL     1       1.577   5.602  20.602  0.00  0.00    +0.000 A 
ATOM      3  C   UNL     1       1.964   4.302  20.927  0.00  0.00    +0.000 A 
ATOM      4  C   UNL     1       3.105   3.743  20.357  0.00  0.00    +0.000 A 
ATOM      5  C   UNL     1       3.874   4.500  19.469  0.00  0.00    +0.000 A 
ATOM      6  C   UNL     1       3.510   5.837  19.221  0.00  0.00    +0.000 A 
ENDROOT
BRANCH   1  13
ATOM      7  C   UNL     1       1.032   8.390  21.801  0.00  0.00    +0.000 C 
ATOM      8  C   UNL     1       1.323   8.724  20.358  0.00  0.00    +0.000 A 
ATOM      9  C   UNL     1       0.943  10.023  19.939  0.00  0.00    +0.000 A 
ATOM     10  C   UNL     1       1.194  10.475  18.651  0.00  0.00    +0.000 A 
ATOM     11  C   UNL     1       1.819   9.630  17.746  0.00  0.00    +0.000 A 
ATOM     12  C   UNL     1       2.167   8.334  18.131  0.00  0.00    +0.000 A 
ATOM     13  C   UNL     1       1.935   7.832  19.435  0.00  0.00    +0.000 A 
ENDBRANCH   1  13
BRANCH   5  14
ATOM     14  C   UNL     1       5.019   3.885  18.696  0.00  0.00    +0.000 C 
BRANCH  14  15
ATOM     15  S   UNL     1       6.291   5.149  18.340  0.00  0.00    +0.000 S 
ATOM     16  O   UNL     1       7.700   4.447  18.276  0.00  0.00    +0.000 OA
BRANCH  15  17
ATOM     17  C   UNL     1       5.806   5.486  16.622  0.00  0.00    +0.000 C 
BRANCH  17  18
ATOM     18  C   UNL     1       6.677   4.735  15.632  0.00  0.00    +0.000 C 
ATOM     19  N   UNL     1       6.415   3.410  15.444  0.00  0.00    +0.000 N 
ATOM     20  O   UNL     1       7.537   5.298  14.962  0.00  0.00    +0.000 OA
ATOM     21  H   UNL     1       5.737   2.907  16.015  0.00  0.00    +0.000 HD
ATOM     22  H   UNL     1       7.002   2.878  14.816  0.00  0.00    +0.000 HD
ENDBRANCH  17  18
ENDBRANCH  15  17
ENDBRANCH  14  15
ENDBRANCH   5  14
TORSDOF 5
ENDMDL
