MODEL 1
REMARK VINA RESULT:      -7.4      0.000      0.000
REMARK  Name = 
REMARK  9 active torsions:
REMARK  status: ('A' for Active; 'I' for Inactive)
REMARK    1  A    between atoms: C_1  and  C_2
REMARK    2  A    between atoms: C_2  and  O_3
REMARK    3  A    between atoms: O_3  and  C_4
REMARK    4  A    between atoms: C_7  and  N_8
REMARK    5  A    between atoms: C_9  and  S_10
REMARK    6  A    between atoms: S_10  and  C_11
REMARK    7  A    between atoms: C_11  and  C_12
REMARK    8  A    between atoms: C_14  and  C_15
REMARK    9  A    between atoms: C_24  and  C_25
REMARK                            x       y       z     vdW  Elec       q    Type
REMARK                         _______ _______ _______ _____ _____    ______ ____
ROOT
ATOM      1  N   UNL     1       4.082   5.979  18.288  0.00  0.00    +0.000 N 
ATOM      2  C   UNL     1       5.357   6.179  17.761  0.00  0.00    +0.000 A 
ATOM      3  N   UNL     1       5.974   5.031  17.612  0.00  0.00    +0.000 NA
ATOM      4  N   UNL     1       5.126   4.043  18.035  0.00  0.00    +0.000 NA
ATOM      5  C   UNL     1       3.997   4.587  18.465  0.00  0.00    +0.000 A 
ENDROOT
BRANCH   1   9
ATOM      6  C   UNL     1       1.282   9.026  19.195  0.00  0.00    +0.000 A 
ATOM      7  C   UNL     1       1.633   8.080  20.155  0.00  0.00    +0.000 A 
ATOM      8  C   UNL     1       2.501   7.034  19.839  0.00  0.00    +0.000 A 
ATOM      9  C   UNL     1       3.079   6.959  18.567  0.00  0.00    +0.000 A 
ATOM     10  C   UNL     1       2.695   7.891  17.594  0.00  0.00    +0.000 A 
ATOM     11  C   UNL     1       1.777   8.901  17.901  0.00  0.00    +0.000 A 
BRANCH   6  12
ATOM     12  O   UNL     1       0.454  10.016  19.640  0.00  0.00    +0.000 OA
BRANCH  12  14
ATOM     13  C   UNL     1      -1.556  10.339  18.419  0.00  0.00    +0.000 C 
ATOM     14  C   UNL     1      -0.144  10.846  18.645  0.00  0.00    +0.000 C 
ENDBRANCH  12  14
ENDBRANCH   6  12
ENDBRANCH   1   9
BRANCH   5  15
ATOM     15  C   UNL     1       2.883   3.791  19.026  0.00  0.00    +0.000 A 
ATOM     16  C   UNL     1       2.738   3.504  20.388  0.00  0.00    +0.000 A 
ATOM     17  C   UNL     1       1.576   2.885  20.828  0.00  0.00    +0.000 A 
ATOM     18  N   UNL     1       0.596   2.461  20.006  0.00  0.00    +0.000 NA
ATOM     19  C   UNL     1       0.794   2.654  18.685  0.00  0.00    +0.000 A 
ATOM     20  C   UNL     1       1.899   3.303  18.158  0.00  0.00    +0.000 A 
ENDBRANCH   5  15
BRANCH   2  21
ATOM     21  S   UNL     1       6.008   7.712  17.262  0.00  0.00    +0.000 S 
BRANCH  21  22
ATOM     22  C   UNL     1       7.767   7.592  17.675  0.00  0.00    +0.000 C 
BRANCH  22  23
ATOM     23  C   UNL     1       8.343   8.896  18.071  0.00  0.00    +0.000 A 
ATOM     24  N   UNL     1       8.300  10.066  17.467  0.00  0.00    +0.000 NA
ATOM     25  C   UNL     1       9.000  10.871  18.338  0.00  0.00    +0.000 A 
ATOM     26  N   UNL     1       9.443  10.237  19.435  0.00  0.00    +0.000 NA
ATOM     27  O   UNL     1       8.999   8.931  19.265  0.00  0.00    +0.000 OA
BRANCH  25  28
ATOM     28  C   UNL     1       9.242  12.333  18.113  0.00  0.00    +0.000 A 
ATOM     29  C   UNL     1      10.494  12.888  17.942  0.00  0.00    +0.000 A 
ATOM     30  C   UNL     1      10.444  14.304  17.769  0.00  0.00    +0.000 A 
ATOM     31  C   UNL     1       9.151  14.779  17.819  0.00  0.00    +0.000 A 
ATOM     32  S   UNL     1       8.013  13.515  18.043  0.00  0.00    +0.000 S 
ENDBRANCH  25  28
ENDBRANCH  22  23
ENDBRANCH  21  22
ENDBRANCH   2  21
TORSDOF 8
ENDMDL
MODEL 2
REMARK VINA RESULT:      -7.4      1.244      1.380
REMARK  Name = 
REMARK  9 active torsions:
REMARK  status: ('A' for Active; 'I' for Inactive)
REMARK    1  A    between atoms: C_1  and  C_2
REMARK    2  A    between atoms: C_2  and  O_3
REMARK    3  A    between atoms: O_3  and  C_4
REMARK    4  A    between atoms: C_7  and  N_8
REMARK    5  A    between atoms: C_9  and  S_10
REMARK    6  A    between atoms: S_10  and  C_11
REMARK    7  A    between atoms: C_11  and  C_12
REMARK    8  A    between atoms: C_14  and  C_15
REMARK    9  A    between atoms: C_24  and  C_25
REMARK                            x       y       z     vdW  Elec       q    Type
REMARK                         _______ _______ _______ _____ _____    ______ ____
ROOT
ATOM      1  N   UNL     1       4.347   5.667  18.580  0.00  0.00    +0.000 N 
ATOM      2  C   UNL     1       5.644   5.735  18.072  0.00  0.00    +0.000 A 
ATOM      3  N   UNL     1       6.229   4.564  18.156  0.00  0.00    +0.000 NA
ATOM      4  N   UNL     1       5.338   3.692  18.721  0.00  0.00    +0.000 NA
ATOM      5  C   UNL     1       4.214   4.333  19.004  0.00  0.00    +0.000 A 
ENDROOT
BRANCH   1   9
ATOM      6  C   UNL     1       1.609   8.889  18.843  0.00  0.00    +0.000 A 
ATOM      7  C   UNL     1       1.790   8.025  19.920  0.00  0.00    +0.000 A 
ATOM      8  C   UNL     1       2.638   6.921  19.814  0.00  0.00    +0.000 A 
ATOM      9  C   UNL     1       3.367   6.706  18.638  0.00  0.00    +0.000 A 
ATOM     10  C   UNL     1       3.154   7.556  17.546  0.00  0.00    +0.000 A 
ATOM     11  C   UNL     1       2.256   8.625  17.640  0.00  0.00    +0.000 A 
BRANCH   6  12
ATOM     12  O   UNL     1       0.782   9.946  19.088  0.00  0.00    +0.000 OA
BRANCH  12  14
ATOM     13  C   UNL     1       0.176  12.241  19.023  0.00  0.00    +0.000 C 
ATOM     14  C   UNL     1       1.295  11.244  18.786  0.00  0.00    +0.000 C 
ENDBRANCH  12  14
ENDBRANCH   6  12
ENDBRANCH   1   9
BRANCH   5  15
ATOM     15  C   UNL     1       3.058   3.681  19.659  0.00  0.00    +0.000 A 
ATOM     16  C   UNL     1       3.004   3.381  21.025  0.00  0.00    +0.000 A 
ATOM     17  C   UNL     1       1.815   2.913  21.567  0.00  0.00    +0.000 A 
ATOM     18  N   UNL     1       0.713   2.649  20.838  0.00  0.00    +0.000 NA
ATOM     19  C   UNL     1       0.810   2.848  19.508  0.00  0.00    +0.000 A 
ATOM     20  C   UNL     1       1.939   3.355  18.885  0.00  0.00    +0.000 A 
ENDBRANCH   5  15
BRANCH   2  21
ATOM     21  S   UNL     1       6.357   7.134  17.326  0.00  0.00    +0.000 S 
BRANCH  21  22
ATOM     22  C   UNL     1       7.911   7.362  18.228  0.00  0.00    +0.000 C 
BRANCH  22  23
ATOM     23  C   UNL     1       8.318   8.784  18.299  0.00  0.00    +0.000 A 
ATOM     24  N   UNL     1       9.264   9.365  19.006  0.00  0.00    +0.000 NA
ATOM     25  C   UNL     1       9.151  10.682  18.621  0.00  0.00    +0.000 A 
ATOM     26  N   UNL     1       8.191  10.906  17.710  0.00  0.00    +0.000 NA
ATOM     27  O   UNL     1       7.646   9.647  17.487  0.00  0.00    +0.000 OA
BRANCH  25  28
ATOM     28  C   UNL     1      10.022  11.783  19.145  0.00  0.00    +0.000 A 
ATOM     29  C   UNL     1      11.384  11.664  19.332  0.00  0.00    +0.000 A 
ATOM     30  C   UNL     1      11.968  12.853  19.863  0.00  0.00    +0.000 A 
ATOM     31  C   UNL     1      11.025  13.837  20.068  0.00  0.00    +0.000 A 
ATOM     32  S   UNL     1       9.457  13.331  19.591  0.00  0.00    +0.000 S 
ENDBRANCH  25  28
ENDBRANCH  22  23
ENDBRANCH  21  22
ENDBRANCH   2  21
TORSDOF 8
ENDMDL
MODEL 3
REMARK VINA RESULT:      -7.3      0.715      1.182
REMARK  Name = 
REMARK  9 active torsions:
REMARK  status: ('A' for Active; 'I' for Inactive)
REMARK    1  A    between atoms: C_1  and  C_2
REMARK    2  A    between atoms: C_2  and  O_3
REMARK    3  A    between atoms: O_3  and  C_4
REMARK    4  A    between atoms: C_7  and  N_8
REMARK    5  A    between atoms: C_9  and  S_10
REMARK    6  A    between atoms: S_10  and  C_11
REMARK    7  A    between atoms: C_11  and  C_12
REMARK    8  A    between atoms: C_14  and  C_15
REMARK    9  A    between atoms: C_24  and  C_25
REMARK                            x       y       z     vdW  Elec       q    Type
REMARK                         _______ _______ _______ _____ _____    ______ ____
ROOT
ATOM      1  N   UNL     1       3.982   6.090  18.246  0.00  0.00    +0.000 N 
ATOM      2  C   UNL     1       5.279   6.256  17.765  0.00  0.00    +0.000 A 
ATOM      3  N   UNL     1       5.870   5.092  17.633  0.00  0.00    +0.000 NA
ATOM      4  N   UNL     1       4.982   4.127  18.023  0.00  0.00    +0.000 NA
ATOM      5  C   UNL     1       3.853   4.700  18.416  0.00  0.00    +0.000 A 
ENDROOT
BRANCH   1   9
ATOM      6  C   UNL     1       1.234   9.210  19.059  0.00  0.00    +0.000 A 
ATOM      7  C   UNL     1       1.545   8.269  20.038  0.00  0.00    +0.000 A 
ATOM      8  C   UNL     1       2.395   7.199  19.752  0.00  0.00    +0.000 A 
ATOM      9  C   UNL     1       2.996   7.095  18.493  0.00  0.00    +0.000 A 
ATOM     10  C   UNL     1       2.652   8.023  17.501  0.00  0.00    +0.000 A 
ATOM     11  C   UNL     1       1.752   9.058  17.776  0.00  0.00    +0.000 A 
BRANCH   6  12
ATOM     12  O   UNL     1       0.421  10.224  19.475  0.00  0.00    +0.000 OA
BRANCH  12  14
ATOM     13  C   UNL     1       1.361  12.232  20.323  0.00  0.00    +0.000 C 
ATOM     14  C   UNL     1       0.783  10.878  20.690  0.00  0.00    +0.000 C 
ENDBRANCH  12  14
ENDBRANCH   6  12
ENDBRANCH   1   9
BRANCH   5  15
ATOM     15  C   UNL     1       2.700   3.933  18.935  0.00  0.00    +0.000 A 
ATOM     16  C   UNL     1       1.622   3.515  18.146  0.00  0.00    +0.000 A 
ATOM     17  C   UNL     1       0.670   2.668  18.697  0.00  0.00    +0.000 A 
ATOM     18  N   UNL     1       0.670   2.279  19.987  0.00  0.00    +0.000 NA
ATOM     19  C   UNL     1       1.659   2.769  20.762  0.00  0.00    +0.000 A 
ATOM     20  C   UNL     1       2.677   3.582  20.291  0.00  0.00    +0.000 A 
ENDBRANCH   5  15
BRANCH   2  21
ATOM     21  S   UNL     1       5.988   7.772  17.293  0.00  0.00    +0.000 S 
BRANCH  21  22
ATOM     22  C   UNL     1       7.740   7.578  17.703  0.00  0.00    +0.000 C 
BRANCH  22  23
ATOM     23  C   UNL     1       8.372   8.857  18.098  0.00  0.00    +0.000 A 
ATOM     24  N   UNL     1       8.428  10.011  17.466  0.00  0.00    +0.000 NA
ATOM     25  C   UNL     1       9.129  10.797  18.354  0.00  0.00    +0.000 A 
ATOM     26  N   UNL     1       9.478  10.168  19.486  0.00  0.00    +0.000 NA
ATOM     27  O   UNL     1       8.967   8.885  19.323  0.00  0.00    +0.000 OA
BRANCH  25  28
ATOM     28  C   UNL     1       9.467  12.236  18.108  0.00  0.00    +0.000 A 
ATOM     29  C   UNL     1      10.624  12.660  17.485  0.00  0.00    +0.000 A 
ATOM     30  C   UNL     1      10.709  14.081  17.399  0.00  0.00    +0.000 A 
ATOM     31  C   UNL     1       9.612  14.693  17.967  0.00  0.00    +0.000 A 
ATOM     32  S   UNL     1       8.482  13.552  18.568  0.00  0.00    +0.000 S 
ENDBRANCH  25  28
ENDBRANCH  22  23
ENDBRANCH  21  22
ENDBRANCH   2  21
TORSDOF 8
ENDMDL
MODEL 4
REMARK VINA RESULT:      -7.3      4.001     10.212
REMARK  Name = 
REMARK  9 active torsions:
REMARK  status: ('A' for Active; 'I' for Inactive)
REMARK    1  A    between atoms: C_1  and  C_2
REMARK    2  A    between atoms: C_2  and  O_3
REMARK    3  A    between atoms: O_3  and  C_4
REMARK    4  A    between atoms: C_7  and  N_8
REMARK    5  A    between atoms: C_9  and  S_10
REMARK    6  A    between atoms: S_10  and  C_11
REMARK    7  A    between atoms: C_11  and  C_12
REMARK    8  A    between atoms: C_14  and  C_15
REMARK    9  A    between atoms: C_24  and  C_25
REMARK                            x       y       z     vdW  Elec       q    Type
REMARK                         _______ _______ _______ _____ _____    ______ ____
ROOT
ATOM      1  N   UNL     1       9.917  13.241  19.083  0.00  0.00    +0.000 N 
ATOM      2  C   UNL     1      10.202  11.897  19.317  0.00  0.00    +0.000 A 
ATOM      3  N   UNL     1      11.499  11.711  19.389  0.00  0.00    +0.000 NA
ATOM      4  N   UNL     1      12.105  12.924  19.205  0.00  0.00    +0.000 NA
ATOM      5  C   UNL     1      11.181  13.851  18.997  0.00  0.00    +0.000 A 
ENDROOT
BRANCH   1   9
ATOM      6  C   UNL     1       6.021  14.882  18.814  0.00  0.00    +0.000 A 
ATOM      7  C   UNL     1       6.626  14.311  17.697  0.00  0.00    +0.000 A 
ATOM      8  C   UNL     1       7.936  13.833  17.763  0.00  0.00    +0.000 A 
ATOM      9  C   UNL     1       8.636  13.866  18.975  0.00  0.00    +0.000 A 
ATOM     10  C   UNL     1       8.037  14.474  20.085  0.00  0.00    +0.000 A 
ATOM     11  C   UNL     1       6.746  15.006  19.995  0.00  0.00    +0.000 A 
BRANCH   6  12
ATOM     12  O   UNL     1       4.728  15.278  18.627  0.00  0.00    +0.000 OA
BRANCH  12  14
ATOM     13  C   UNL     1       3.033  14.022  19.717  0.00  0.00    +0.000 C 
ATOM     14  C   UNL     1       3.885  15.276  19.779  0.00  0.00    +0.000 C 
ENDBRANCH  12  14
ENDBRANCH   6  12
ENDBRANCH   1   9
BRANCH   5  15
ATOM     15  C   UNL     1      11.509  15.268  18.725  0.00  0.00    +0.000 A 
ATOM     16  C   UNL     1      11.891  16.183  19.712  0.00  0.00    +0.000 A 
ATOM     17  C   UNL     1      12.328  17.445  19.331  0.00  0.00    +0.000 A 
ATOM     18  N   UNL     1      12.333  17.882  18.056  0.00  0.00    +0.000 NA
ATOM     19  C   UNL     1      11.868  17.024  17.125  0.00  0.00    +0.000 A 
ATOM     20  C   UNL     1      11.455  15.732  17.405  0.00  0.00    +0.000 A 
ENDBRANCH   5  15
BRANCH   2  21
ATOM     21  S   UNL     1       9.019  10.653  19.591  0.00  0.00    +0.000 S 
BRANCH  21  22
ATOM     22  C   UNL     1       8.652  10.030  17.931  0.00  0.00    +0.000 C 
BRANCH  22  23
ATOM     23  C   UNL     1       8.125   8.647  17.951  0.00  0.00    +0.000 A 
ATOM     24  N   UNL     1       7.256   8.054  17.159  0.00  0.00    +0.000 NA
ATOM     25  C   UNL     1       7.202   6.782  17.684  0.00  0.00    +0.000 A 
ATOM     26  N   UNL     1       8.007   6.590  18.740  0.00  0.00    +0.000 NA
ATOM     27  O   UNL     1       8.628   7.822  18.912  0.00  0.00    +0.000 OA
BRANCH  25  28
ATOM     28  C   UNL     1       6.342   5.687  17.131  0.00  0.00    +0.000 A 
ATOM     29  C   UNL     1       6.833   4.591  16.450  0.00  0.00    +0.000 A 
ATOM     30  C   UNL     1       5.800   3.712  16.011  0.00  0.00    +0.000 A 
ATOM     31  C   UNL     1       4.551   4.173  16.369  0.00  0.00    +0.000 A 
ATOM     32  S   UNL     1       4.640   5.640  17.253  0.00  0.00    +0.000 S 
ENDBRANCH  25  28
ENDBRANCH  22  23
ENDBRANCH  21  22
ENDBRANCH   2  21
TORSDOF 8
ENDMDL
MODEL 5
REMARK VINA RESULT:      -7.3      5.018      7.975
REMARK  Name = 
REMARK  9 active torsions:
REMARK  status: ('A' for Active; 'I' for Inactive)
REMARK    1  A    between atoms: C_1  and  C_2
REMARK    2  A    between atoms: C_2  and  O_3
REMARK    3  A    between atoms: O_3  and  C_4
REMARK    4  A    between atoms: C_7  and  N_8
REMARK    5  A    between atoms: C_9  and  S_10
REMARK    6  A    between atoms: S_10  and  C_11
REMARK    7  A    between atoms: C_11  and  C_12
REMARK    8  A    between atoms: C_14  and  C_15
REMARK    9  A    between atoms: C_24  and  C_25
REMARK                            x       y       z     vdW  Elec       q    Type
REMARK                         _______ _______ _______ _____ _____    ______ ____
ROOT
ATOM      1  N   UNL     1       0.024  10.145  20.623  0.00  0.00    +0.000 N 
ATOM      2  C   UNL     1       1.024   9.179  20.721  0.00  0.00    +0.000 A 
ATOM      3  N   UNL     1       1.443   9.080  21.961  0.00  0.00    +0.000 NA
ATOM      4  N   UNL     1       0.735   9.976  22.714  0.00  0.00    +0.000 NA
ATOM      5  C   UNL     1      -0.104  10.641  21.933  0.00  0.00    +0.000 A 
ENDROOT
BRANCH   1   9
ATOM      6  C   UNL     1      -2.349  11.369  17.335  0.00  0.00    +0.000 A 
ATOM      7  C   UNL     1      -2.488  10.091  17.870  0.00  0.00    +0.000 A 
ATOM      8  C   UNL     1      -1.660   9.659  18.907  0.00  0.00    +0.000 A 
ATOM      9  C   UNL     1      -0.718  10.532  19.465  0.00  0.00    +0.000 A 
ATOM     10  C   UNL     1      -0.557  11.804  18.899  0.00  0.00    +0.000 A 
ATOM     11  C   UNL     1      -1.350  12.207  17.820  0.00  0.00    +0.000 A 
BRANCH   6  12
ATOM     12  O   UNL     1      -3.242  11.679  16.350  0.00  0.00    +0.000 OA
BRANCH  12  14
ATOM     13  C   UNL     1      -5.367  12.113  17.314  0.00  0.00    +0.000 C 
ATOM     14  C   UNL     1      -4.555  11.137  16.482  0.00  0.00    +0.000 C 
ENDBRANCH  12  14
ENDBRANCH   6  12
ENDBRANCH   1   9
BRANCH   5  15
ATOM     15  C   UNL     1      -0.992  11.714  22.434  0.00  0.00    +0.000 A 
ATOM     16  C   UNL     1      -0.723  13.079  22.291  0.00  0.00    +0.000 A 
ATOM     17  C   UNL     1      -1.694  14.002  22.656  0.00  0.00    +0.000 A 
ATOM     18  N   UNL     1      -2.869  13.666  23.225  0.00  0.00    +0.000 NA
ATOM     19  C   UNL     1      -3.074  12.352  23.449  0.00  0.00    +0.000 A 
ATOM     20  C   UNL     1      -2.184  11.358  23.077  0.00  0.00    +0.000 A 
ENDBRANCH   5  15
BRANCH   2  21
ATOM     21  S   UNL     1       1.567   8.162  19.420  0.00  0.00    +0.000 S 
BRANCH  21  22
ATOM     22  C   UNL     1       2.222   6.697  20.259  0.00  0.00    +0.000 C 
BRANCH  22  23
ATOM     23  C   UNL     1       3.052   5.859  19.364  0.00  0.00    +0.000 A 
ATOM     24  N   UNL     1       3.774   6.190  18.313  0.00  0.00    +0.000 NA
ATOM     25  C   UNL     1       4.312   4.980  17.935  0.00  0.00    +0.000 A 
ATOM     26  N   UNL     1       3.955   3.952  18.720  0.00  0.00    +0.000 NA
ATOM     27  O   UNL     1       3.128   4.535  19.674  0.00  0.00    +0.000 OA
BRANCH  25  28
ATOM     28  C   UNL     1       5.234   4.805  16.766  0.00  0.00    +0.000 A 
ATOM     29  C   UNL     1       4.910   4.090  15.631  0.00  0.00    +0.000 A 
ATOM     30  C   UNL     1       5.974   4.060  14.682  0.00  0.00    +0.000 A 
ATOM     31  C   UNL     1       7.079   4.752  15.132  0.00  0.00    +0.000 A 
ATOM     32  S   UNL     1       6.810   5.452  16.674  0.00  0.00    +0.000 S 
ENDBRANCH  25  28
ENDBRANCH  22  23
ENDBRANCH  21  22
ENDBRANCH   2  21
TORSDOF 8
ENDMDL
MODEL 6
REMARK VINA RESULT:      -7.3      4.745      7.172
REMARK  Name = 
REMARK  9 active torsions:
REMARK  status: ('A' for Active; 'I' for Inactive)
REMARK    1  A    between atoms: C_1  and  C_2
REMARK    2  A    between atoms: C_2  and  O_3
REMARK    3  A    between atoms: O_3  and  C_4
REMARK    4  A    between atoms: C_7  and  N_8
REMARK    5  A    between atoms: C_9  and  S_10
REMARK    6  A    between atoms: S_10  and  C_11
REMARK    7  A    between atoms: C_11  and  C_12
REMARK    8  A    between atoms: C_14  and  C_15
REMARK    9  A    between atoms: C_24  and  C_25
REMARK                            x       y       z     vdW  Elec       q    Type
REMARK                         _______ _______ _______ _____ _____    ______ ____
ROOT
ATOM      1  N   UNL     1      -0.297  10.309  20.802  0.00  0.00    +0.000 N 
ATOM      2  C   UNL     1      -0.595  10.821  22.063  0.00  0.00    +0.000 A 
ATOM      3  N   UNL     1       0.208  10.308  22.965  0.00  0.00    +0.000 NA
ATOM      4  N   UNL     1       1.057   9.446  22.327  0.00  0.00    +0.000 NA
ATOM      5  C   UNL     1       0.760   9.412  21.036  0.00  0.00    +0.000 A 
ENDROOT
BRANCH   1   9
ATOM      6  C   UNL     1      -2.293  11.356  17.215  0.00  0.00    +0.000 A 
ATOM      7  C   UNL     1      -2.493  10.107  17.796  0.00  0.00    +0.000 A 
ATOM      8  C   UNL     1      -1.784   9.731  18.939  0.00  0.00    +0.000 A 
ATOM      9  C   UNL     1      -0.907  10.634  19.551  0.00  0.00    +0.000 A 
ATOM     10  C   UNL     1      -0.682  11.875  18.942  0.00  0.00    +0.000 A 
ATOM     11  C   UNL     1      -1.350  12.221  17.762  0.00  0.00    +0.000 A 
BRANCH   6  12
ATOM     12  O   UNL     1      -3.071  11.613  16.124  0.00  0.00    +0.000 OA
BRANCH  12  14
ATOM     13  C   UNL     1      -3.359  10.143  14.283  0.00  0.00    +0.000 C 
ATOM     14  C   UNL     1      -3.884  10.540  15.649  0.00  0.00    +0.000 C 
ENDBRANCH  12  14
ENDBRANCH   6  12
ENDBRANCH   1   9
BRANCH   5  15
ATOM     15  C   UNL     1       1.471   8.545  20.069  0.00  0.00    +0.000 A 
ATOM     16  C   UNL     1       1.817   8.943  18.773  0.00  0.00    +0.000 A 
ATOM     17  C   UNL     1       2.619   8.112  18.003  0.00  0.00    +0.000 A 
ATOM     18  N   UNL     1       3.026   6.889  18.397  0.00  0.00    +0.000 NA
ATOM     19  C   UNL     1       2.602   6.476  19.609  0.00  0.00    +0.000 A 
ATOM     20  C   UNL     1       1.839   7.254  20.465  0.00  0.00    +0.000 A 
ENDBRANCH   5  15
BRANCH   2  21
ATOM     21  S   UNL     1      -1.783  12.047  22.394  0.00  0.00    +0.000 S 
BRANCH  21  22
ATOM     22  C   UNL     1      -0.799  13.472  22.924  0.00  0.00    +0.000 C 
BRANCH  22  23
ATOM     23  C   UNL     1       0.006  14.042  21.821  0.00  0.00    +0.000 A 
ATOM     24  N   UNL     1       1.285  13.902  21.538  0.00  0.00    +0.000 NA
ATOM     25  C   UNL     1       1.417  14.658  20.395  0.00  0.00    +0.000 A 
ATOM     26  N   UNL     1       0.275  15.227  19.979  0.00  0.00    +0.000 NA
ATOM     27  O   UNL     1      -0.663  14.811  20.917  0.00  0.00    +0.000 OA
BRANCH  25  28
ATOM     28  C   UNL     1       2.707  14.829  19.651  0.00  0.00    +0.000 A 
ATOM     29  C   UNL     1       2.795  14.939  18.278  0.00  0.00    +0.000 A 
ATOM     30  C   UNL     1       4.142  15.070  17.826  0.00  0.00    +0.000 A 
ATOM     31  C   UNL     1       5.036  15.049  18.874  0.00  0.00    +0.000 A 
ATOM     32  S   UNL     1       4.244  14.903  20.388  0.00  0.00    +0.000 S 
ENDBRANCH  25  28
ENDBRANCH  22  23
ENDBRANCH  21  22
ENDBRANCH   2  21
TORSDOF 8
ENDMDL
MODEL 7
REMARK VINA RESULT:      -7.2      1.287      1.664
REMARK  Name = 
REMARK  9 active torsions:
REMARK  status: ('A' for Active; 'I' for Inactive)
REMARK    1  A    between atoms: C_1  and  C_2
REMARK    2  A    between atoms: C_2  and  O_3
REMARK    3  A    between atoms: O_3  and  C_4
REMARK    4  A    between atoms: C_7  and  N_8
REMARK    5  A    between atoms: C_9  and  S_10
REMARK    6  A    between atoms: S_10  and  C_11
REMARK    7  A    between atoms: C_11  and  C_12
REMARK    8  A    between atoms: C_14  and  C_15
REMARK    9  A    between atoms: C_24  and  C_25
REMARK                            x       y       z     vdW  Elec       q    Type
REMARK                         _______ _______ _______ _____ _____    ______ ____
ROOT
ATOM      1  N   UNL     1       4.184   5.740  18.326  0.00  0.00    +0.000 N 
ATOM      2  C   UNL     1       5.471   5.767  17.790  0.00  0.00    +0.000 A 
ATOM      3  N   UNL     1       5.982   4.559  17.770  0.00  0.00    +0.000 NA
ATOM      4  N   UNL     1       5.050   3.703  18.290  0.00  0.00    +0.000 NA
ATOM      5  C   UNL     1       3.975   4.388  18.651  0.00  0.00    +0.000 A 
ENDROOT
BRANCH   1   9
ATOM      6  C   UNL     1       1.664   9.096  18.904  0.00  0.00    +0.000 A 
ATOM      7  C   UNL     1       1.821   8.148  19.912  0.00  0.00    +0.000 A 
ATOM      8  C   UNL     1       2.594   7.005  19.700  0.00  0.00    +0.000 A 
ATOM      9  C   UNL     1       3.274   6.830  18.489  0.00  0.00    +0.000 A 
ATOM     10  C   UNL     1       3.083   7.768  17.466  0.00  0.00    +0.000 A 
ATOM     11  C   UNL     1       2.258   8.879  17.664  0.00  0.00    +0.000 A 
BRANCH   6  12
ATOM     12  O   UNL     1       0.913  10.181  19.249  0.00  0.00    +0.000 OA
BRANCH  12  14
ATOM     13  C   UNL     1      -1.291  10.294  18.374  0.00  0.00    +0.000 C 
ATOM     14  C   UNL     1      -0.452   9.936  19.586  0.00  0.00    +0.000 C 
ENDBRANCH  12  14
ENDBRANCH   6  12
ENDBRANCH   1   9
BRANCH   5  15
ATOM     15  C   UNL     1       2.795   3.760  19.285  0.00  0.00    +0.000 A 
ATOM     16  C   UNL     1       1.644   3.382  18.586  0.00  0.00    +0.000 A 
ATOM     17  C   UNL     1       0.659   2.659  19.247  0.00  0.00    +0.000 A 
ATOM     18  N   UNL     1       0.704   2.362  20.561  0.00  0.00    +0.000 NA
ATOM     19  C   UNL     1       1.772   2.820  21.245  0.00  0.00    +0.000 A 
ATOM     20  C   UNL     1       2.824   3.508  20.662  0.00  0.00    +0.000 A 
ENDBRANCH   5  15
BRANCH   2  21
ATOM     21  S   UNL     1       6.256   7.173  17.134  0.00  0.00    +0.000 S 
BRANCH  21  22
ATOM     22  C   UNL     1       7.776   7.315  18.106  0.00  0.00    +0.000 C 
BRANCH  22  23
ATOM     23  C   UNL     1       8.238   8.716  18.230  0.00  0.00    +0.000 A 
ATOM     24  N   UNL     1       9.152   9.246  19.016  0.00  0.00    +0.000 NA
ATOM     25  C   UNL     1       9.125  10.572  18.643  0.00  0.00    +0.000 A 
ATOM     26  N   UNL     1       8.249  10.848  17.665  0.00  0.00    +0.000 NA
ATOM     27  O   UNL     1       7.668   9.618  17.382  0.00  0.00    +0.000 OA
BRANCH  25  28
ATOM     28  C   UNL     1      10.001  11.627  19.248  0.00  0.00    +0.000 A 
ATOM     29  C   UNL     1       9.717  12.277  20.432  0.00  0.00    +0.000 A 
ATOM     30  C   UNL     1      10.702  13.252  20.770  0.00  0.00    +0.000 A 
ATOM     31  C   UNL     1      11.703  13.314  19.824  0.00  0.00    +0.000 A 
ATOM     32  S   UNL     1      11.461  12.180  18.560  0.00  0.00    +0.000 S 
ENDBRANCH  25  28
ENDBRANCH  22  23
ENDBRANCH  21  22
ENDBRANCH   2  21
TORSDOF 8
ENDMDL
MODEL 8
REMARK VINA RESULT:      -7.2      5.164      9.500
REMARK  Name = 
REMARK  9 active torsions:
REMARK  status: ('A' for Active; 'I' for Inactive)
REMARK    1  A    between atoms: C_1  and  C_2
REMARK    2  A    between atoms: C_2  and  O_3
REMARK    3  A    between atoms: O_3  and  C_4
REMARK    4  A    between atoms: C_7  and  N_8
REMARK    5  A    between atoms: C_9  and  S_10
REMARK    6  A    between atoms: S_10  and  C_11
REMARK    7  A    between atoms: C_11  and  C_12
REMARK    8  A    between atoms: C_14  and  C_15
REMARK    9  A    between atoms: C_24  and  C_25
REMARK                            x       y       z     vdW  Elec       q    Type
REMARK                         _______ _______ _______ _____ _____    ______ ____
ROOT
ATOM      1  N   UNL     1      -0.766  12.336  20.225  0.00  0.00    +0.000 N 
ATOM      2  C   UNL     1       0.005  11.351  20.839  0.00  0.00    +0.000 A 
ATOM      3  N   UNL     1       1.068  11.884  21.394  0.00  0.00    +0.000 NA
ATOM      4  N   UNL     1       1.029  13.231  21.162  0.00  0.00    +0.000 NA
ATOM      5  C   UNL     1      -0.046  13.524  20.445  0.00  0.00    +0.000 A 
ENDROOT
BRANCH   1   9
ATOM      6  C   UNL     1      -4.478  11.663  18.298  0.00  0.00    +0.000 A 
ATOM      7  C   UNL     1      -3.284  11.310  17.675  0.00  0.00    +0.000 A 
ATOM      8  C   UNL     1      -2.056  11.594  18.275  0.00  0.00    +0.000 A 
ATOM      9  C   UNL     1      -2.013  12.183  19.544  0.00  0.00    +0.000 A 
ATOM     10  C   UNL     1      -3.216  12.569  20.151  0.00  0.00    +0.000 A 
ATOM     11  C   UNL     1      -4.440  12.336  19.515  0.00  0.00    +0.000 A 
BRANCH   6  12
ATOM     12  O   UNL     1      -5.607  11.299  17.624  0.00  0.00    +0.000 OA
BRANCH  12  14
ATOM     13  C   UNL     1      -6.886   9.867  19.020  0.00  0.00    +0.000 C 
ATOM     14  C   UNL     1      -6.815  11.241  18.381  0.00  0.00    +0.000 C 
ENDBRANCH  12  14
ENDBRANCH   6  12
ENDBRANCH   1   9
BRANCH   5  15
ATOM     15  C   UNL     1      -0.363  14.896  19.991  0.00  0.00    +0.000 A 
ATOM     16  C   UNL     1       0.167  15.476  18.834  0.00  0.00    +0.000 A 
ATOM     17  C   UNL     1      -0.315  16.709  18.414  0.00  0.00    +0.000 A 
ATOM     18  N   UNL     1      -1.217  17.434  19.104  0.00  0.00    +0.000 NA
ATOM     19  C   UNL     1      -1.646  16.908  20.270  0.00  0.00    +0.000 A 
ATOM     20  C   UNL     1      -1.257  15.666  20.745  0.00  0.00    +0.000 A 
ENDBRANCH   5  15
BRANCH   2  21
ATOM     21  S   UNL     1      -0.424   9.670  20.960  0.00  0.00    +0.000 S 
BRANCH  21  22
ATOM     22  C   UNL     1       1.147   8.846  21.322  0.00  0.00    +0.000 C 
BRANCH  22  23
ATOM     23  C   UNL     1       1.724   8.184  20.130  0.00  0.00    +0.000 A 
ATOM     24  N   UNL     1       2.247   6.983  19.992  0.00  0.00    +0.000 NA
ATOM     25  C   UNL     1       2.580   6.961  18.656  0.00  0.00    +0.000 A 
ATOM     26  N   UNL     1       2.266   8.086  17.994  0.00  0.00    +0.000 NA
ATOM     27  O   UNL     1       1.689   8.893  18.968  0.00  0.00    +0.000 OA
BRANCH  25  28
ATOM     28  C   UNL     1       3.219   5.790  17.974  0.00  0.00    +0.000 A 
ATOM     29  C   UNL     1       4.415   5.857  17.287  0.00  0.00    +0.000 A 
ATOM     30  C   UNL     1       4.786   4.605  16.713  0.00  0.00    +0.000 A 
ATOM     31  C   UNL     1       3.853   3.625  16.979  0.00  0.00    +0.000 A 
ATOM     32  S   UNL     1       2.561   4.216  17.939  0.00  0.00    +0.000 S 
ENDBRANCH  25  28
ENDBRANCH  22  23
ENDBRANCH  21  22
ENDBRANCH   2  21
TORSDOF 8
ENDMDL
MODEL 9
REMARK VINA RESULT:      -7.2      1.236      1.851
REMARK  Name = 
REMARK  9 active torsions:
REMARK  status: ('A' for Active; 'I' for Inactive)
REMARK    1  A    between atoms: C_1  and  C_2
REMARK    2  A    between atoms: C_2  and  O_3
REMARK    3  A    between atoms: O_3  and  C_4
REMARK    4  A    between atoms: C_7  and  N_8
REMARK    5  A    between atoms: C_9  and  S_10
REMARK    6  A    between atoms: S_10  and  C_11
REMARK    7  A    between atoms: C_11  and  C_12
REMARK    8  A    between atoms: C_14  and  C_15
REMARK    9  A    between atoms: C_24  and  C_25
REMARK                            x       y       z     vdW  Elec       q    Type
REMARK                         _______ _______ _______ _____ _____    ______ ____
ROOT
ATOM      1  N   UNL     1       4.271   5.734  18.428  0.00  0.00    +0.000 N 
ATOM      2  C   UNL     1       5.540   5.724  17.851  0.00  0.00    +0.000 A 
ATOM      3  N   UNL     1       6.023   4.504  17.829  0.00  0.00    +0.000 NA
ATOM      4  N   UNL     1       5.089   3.676  18.390  0.00  0.00    +0.000 NA
ATOM      5  C   UNL     1       4.042   4.391  18.776  0.00  0.00    +0.000 A 
ENDROOT
BRANCH   1   9
ATOM      6  C   UNL     1       1.489   8.898  18.867  0.00  0.00    +0.000 A 
ATOM      7  C   UNL     1       2.205   8.745  17.682  0.00  0.00    +0.000 A 
ATOM      8  C   UNL     1       3.173   7.747  17.559  0.00  0.00    +0.000 A 
ATOM      9  C   UNL     1       3.392   6.846  18.607  0.00  0.00    +0.000 A 
ATOM     10  C   UNL     1       2.696   7.026  19.809  0.00  0.00    +0.000 A 
ATOM     11  C   UNL     1       1.771   8.066  19.947  0.00  0.00    +0.000 A 
BRANCH   6  12
ATOM     12  O   UNL     1       0.549   9.887  18.847  0.00  0.00    +0.000 OA
BRANCH  12  14
ATOM     13  C   UNL     1       0.964  11.444  20.591  0.00  0.00    +0.000 C 
ATOM     14  C   UNL     1       1.011  11.215  19.092  0.00  0.00    +0.000 C 
ENDBRANCH  12  14
ENDBRANCH   6  12
ENDBRANCH   1   9
BRANCH   5  15
ATOM     15  C   UNL     1       2.869   3.798  19.456  0.00  0.00    +0.000 A 
ATOM     16  C   UNL     1       1.708   3.388  18.792  0.00  0.00    +0.000 A 
ATOM     17  C   UNL     1       0.731   2.701  19.501  0.00  0.00    +0.000 A 
ATOM     18  N   UNL     1       0.792   2.470  20.827  0.00  0.00    +0.000 NA
ATOM     19  C   UNL     1       1.870   2.958  21.474  0.00  0.00    +0.000 A 
ATOM     20  C   UNL     1       2.915   3.614  20.843  0.00  0.00    +0.000 A 
ENDBRANCH   5  15
BRANCH   2  21
ATOM     21  S   UNL     1       6.335   7.104  17.152  0.00  0.00    +0.000 S 
BRANCH  21  22
ATOM     22  C   UNL     1       7.820   7.309  18.167  0.00  0.00    +0.000 C 
BRANCH  22  23
ATOM     23  C   UNL     1       8.251   8.722  18.256  0.00  0.00    +0.000 A 
ATOM     24  N   UNL     1       9.224   9.275  18.950  0.00  0.00    +0.000 NA
ATOM     25  C   UNL     1       9.122  10.601  18.594  0.00  0.00    +0.000 A 
ATOM     26  N   UNL     1       8.144  10.858  17.712  0.00  0.00    +0.000 NA
ATOM     27  O   UNL     1       7.573   9.612  17.479  0.00  0.00    +0.000 OA
BRANCH  25  28
ATOM     28  C   UNL     1      10.023  11.678  19.117  0.00  0.00    +0.000 A 
ATOM     29  C   UNL     1      11.379  11.518  19.317  0.00  0.00    +0.000 A 
ATOM     30  C   UNL     1      11.996  12.691  19.844  0.00  0.00    +0.000 A 
ATOM     31  C   UNL     1      11.084  13.707  20.032  0.00  0.00    +0.000 A 
ATOM     32  S   UNL     1       9.505  13.247  19.546  0.00  0.00    +0.000 S 
ENDBRANCH  25  28
ENDBRANCH  22  23
ENDBRANCH  21  22
ENDBRANCH   2  21
TORSDOF 8
ENDMDL
