MODEL 1
REMARK VINA RESULT:      -6.9      0.000      0.000
REMARK  Name = 
REMARK  9 active torsions:
REMARK  status: ('A' for Active; 'I' for Inactive)
REMARK    1  A    between atoms: O_1  and  C_2
REMARK    2  A    between atoms: C_2  and  C_3
REMARK    3  A    between atoms: C_3  and  O_4
REMARK    4  A    between atoms: C_6  and  N_7
REMARK    5  A    between atoms: N_7  and  C_8
REMARK    6  A    between atoms: C_8  and  C_9
REMARK    7  A    between atoms: C_16  and  O_17
REMARK    8  A    between atoms: C_18  and  O_19
REMARK    9  A    between atoms: C_20  and  O_21
REMARK                            x       y       z     vdW  Elec       q    Type
REMARK                         _______ _______ _______ _____ _____    ______ ____
ROOT
ATOM      1  C   UNL     1       2.083   4.070  18.627  0.00  0.00    +0.000 C 
ATOM      2  C   UNL     1       3.554   4.055  18.158  0.00  0.00    +0.000 C 
ATOM      3  C   UNL     1       4.561   3.686  19.265  0.00  0.00    +0.000 C 
ATOM      4  C   UNL     1       4.178   2.318  19.874  0.00  0.00    +0.000 C 
ATOM      5  C   UNL     1       2.742   2.292  20.424  0.00  0.00    +0.000 C 
ATOM      6  C   UNL     1       1.692   2.773  19.396  0.00  0.00    +0.000 C 
ENDROOT
BRANCH   1   7
ATOM      7  O   UNL     1       1.260   4.152  17.440  0.00  0.00    +0.000 OA
ATOM      8  H   UNL     1       1.584   4.876  16.877  0.00  0.00    +0.000 HD
ENDBRANCH   1   7
BRANCH   3   9
ATOM      9  N   UNL     1       5.910   3.633  18.642  0.00  0.00    +0.000 NA
ATOM     10  H   UNL     1       6.122   2.666  18.389  0.00  0.00    +0.000 HD
BRANCH   9  11
ATOM     11  C   UNL     1       5.988   4.434  17.415  0.00  0.00    +0.000 C 
BRANCH  11  12
ATOM     12  C   UNL     1       6.695   5.741  17.678  0.00  0.00    +0.000 A 
ATOM     13  C   UNL     1       7.692   5.832  18.659  0.00  0.00    +0.000 A 
ATOM     14  C   UNL     1       8.345   7.044  18.893  0.00  0.00    +0.000 A 
ATOM     15  C   UNL     1       7.998   8.172  18.151  0.00  0.00    +0.000 A 
ATOM     16 BR   UNL     1       8.885   9.811  18.466  0.00  0.00    +0.000 Br
ATOM     17  C   UNL     1       7.003   8.101  17.180  0.00  0.00    +0.000 A 
ATOM     18  C   UNL     1       6.352   6.888  16.949  0.00  0.00    +0.000 A 
ENDBRANCH  11  12
ENDBRANCH   9  11
ENDBRANCH   3   9
BRANCH   4  19
ATOM     19  O   UNL     1       4.353   1.321  18.855  0.00  0.00    +0.000 OA
ATOM     20  H   UNL     1       5.269   1.454  18.533  0.00  0.00    +0.000 HD
ENDBRANCH   4  19
BRANCH   5  21
ATOM     21  O   UNL     1       2.677   3.028  21.652  0.00  0.00    +0.000 OA
ATOM     22  H   UNL     1       3.027   3.929  21.488  0.00  0.00    +0.000 HD
ENDBRANCH   5  21
BRANCH   6  23
ATOM     23  O   UNL     1       1.420   1.698  18.478  0.00  0.00    +0.000 OA
ATOM     24  H   UNL     1       0.965   2.075  17.704  0.00  0.00    +0.000 HD
ENDBRANCH   6  23
BRANCH   1  25
ATOM     25  C   UNL     1       1.759   5.343  19.452  0.00  0.00    +0.000 C 
BRANCH  25  26
ATOM     26  O   UNL     1       1.065   5.078  20.661  0.00  0.00    +0.000 OA
ATOM     27  H   UNL     1       0.226   5.578  20.611  0.00  0.00    +0.000 HD
ENDBRANCH  25  26
ENDBRANCH   1  25
TORSDOF 9
ENDMDL
MODEL 2
REMARK VINA RESULT:      -6.9      3.407      4.676
REMARK  Name = 
REMARK  9 active torsions:
REMARK  status: ('A' for Active; 'I' for Inactive)
REMARK    1  A    between atoms: O_1  and  C_2
REMARK    2  A    between atoms: C_2  and  C_3
REMARK    3  A    between atoms: C_3  and  O_4
REMARK    4  A    between atoms: C_6  and  N_7
REMARK    5  A    between atoms: N_7  and  C_8
REMARK    6  A    between atoms: C_8  and  C_9
REMARK    7  A    between atoms: C_16  and  O_17
REMARK    8  A    between atoms: C_18  and  O_19
REMARK    9  A    between atoms: C_20  and  O_21
REMARK                            x       y       z     vdW  Elec       q    Type
REMARK                         _______ _______ _______ _____ _____    ______ ____
ROOT
ATOM      1  C   UNL     1       1.665   3.259  20.157  0.00  0.00    +0.000 C 
ATOM      2  C   UNL     1       1.697   4.501  19.241  0.00  0.00    +0.000 C 
ATOM      3  C   UNL     1       3.036   4.705  18.507  0.00  0.00    +0.000 C 
ATOM      4  C   UNL     1       3.379   3.432  17.698  0.00  0.00    +0.000 C 
ATOM      5  C   UNL     1       3.432   2.167  18.572  0.00  0.00    +0.000 C 
ATOM      6  C   UNL     1       2.161   1.973  19.431  0.00  0.00    +0.000 C 
ENDROOT
BRANCH   1   7
ATOM      7  O   UNL     1       0.286   3.052  20.543  0.00  0.00    +0.000 OA
ATOM      8  H   UNL     1      -0.225   3.854  20.343  0.00  0.00    +0.000 HD
ENDBRANCH   1   7
BRANCH   3   9
ATOM      9  N   UNL     1       2.881   5.880  17.610  0.00  0.00    +0.000 NA
ATOM     10  H   UNL     1       1.885   6.071  17.481  0.00  0.00    +0.000 HD
BRANCH   9  11
ATOM     11  C   UNL     1       3.491   7.091  18.170  0.00  0.00    +0.000 C 
BRANCH  11  12
ATOM     12  C   UNL     1       2.425   8.059  18.626  0.00  0.00    +0.000 A 
ATOM     13  C   UNL     1       1.963   8.044  19.949  0.00  0.00    +0.000 A 
ATOM     14  C   UNL     1       0.979   8.946  20.364  0.00  0.00    +0.000 A 
ATOM     15  C   UNL     1       0.451   9.861  19.454  0.00  0.00    +0.000 A 
ATOM     16 BR   UNL     1      -0.877  11.082  20.018  0.00  0.00    +0.000 Br
ATOM     17  C   UNL     1       0.893   9.881  18.134  0.00  0.00    +0.000 A 
ATOM     18  C   UNL     1       1.874   8.978  17.722  0.00  0.00    +0.000 A 
ENDBRANCH  11  12
ENDBRANCH   9  11
ENDBRANCH   3   9
BRANCH   4  19
ATOM     19  O   UNL     1       2.396   3.295  16.660  0.00  0.00    +0.000 OA
ATOM     20  H   UNL     1       1.544   3.204  17.136  0.00  0.00    +0.000 HD
ENDBRANCH   4  19
BRANCH   5  21
ATOM     21  O   UNL     1       4.627   2.170  19.362  0.00  0.00    +0.000 OA
ATOM     22  H   UNL     1       5.316   2.669  18.874  0.00  0.00    +0.000 HD
ENDBRANCH   5  21
BRANCH   6  23
ATOM     23  O   UNL     1       1.123   1.423  18.599  0.00  0.00    +0.000 OA
ATOM     24  H   UNL     1       1.546   1.037  17.811  0.00  0.00    +0.000 HD
ENDBRANCH   6  23
BRANCH   1  25
ATOM     25  C   UNL     1       2.439   3.504  21.478  0.00  0.00    +0.000 C 
BRANCH  25  26
ATOM     26  O   UNL     1       3.002   2.327  22.037  0.00  0.00    +0.000 OA
ATOM     27  H   UNL     1       2.315   1.944  22.618  0.00  0.00    +0.000 HD
ENDBRANCH  25  26
ENDBRANCH   1  25
TORSDOF 9
ENDMDL
MODEL 3
REMARK VINA RESULT:      -6.9      3.444      4.809
REMARK  Name = 
REMARK  9 active torsions:
REMARK  status: ('A' for Active; 'I' for Inactive)
REMARK    1  A    between atoms: O_1  and  C_2
REMARK    2  A    between atoms: C_2  and  C_3
REMARK    3  A    between atoms: C_3  and  O_4
REMARK    4  A    between atoms: C_6  and  N_7
REMARK    5  A    between atoms: N_7  and  C_8
REMARK    6  A    between atoms: C_8  and  C_9
REMARK    7  A    between atoms: C_16  and  O_17
REMARK    8  A    between atoms: C_18  and  O_19
REMARK    9  A    between atoms: C_20  and  O_21
REMARK                            x       y       z     vdW  Elec       q    Type
REMARK                         _______ _______ _______ _____ _____    ______ ____
ROOT
ATOM      1  C   UNL     1       1.666   3.259  20.113  0.00  0.00    +0.000 C 
ATOM      2  C   UNL     1       1.629   4.499  19.194  0.00  0.00    +0.000 C 
ATOM      3  C   UNL     1       2.977   4.824  18.523  0.00  0.00    +0.000 C 
ATOM      4  C   UNL     1       3.471   3.588  17.736  0.00  0.00    +0.000 C 
ATOM      5  C   UNL     1       3.597   2.333  18.616  0.00  0.00    +0.000 C 
ATOM      6  C   UNL     1       2.310   2.024  19.415  0.00  0.00    +0.000 C 
ENDROOT
BRANCH   1   7
ATOM      7  O   UNL     1       0.296   2.928  20.434  0.00  0.00    +0.000 OA
ATOM      8  H   UNL     1      -0.081   3.631  20.991  0.00  0.00    +0.000 HD
ENDBRANCH   1   7
BRANCH   3   9
ATOM      9  N   UNL     1       2.759   5.981  17.615  0.00  0.00    +0.000 NA
ATOM     10  H   UNL     1       1.756   6.168  17.551  0.00  0.00    +0.000 HD
BRANCH   9  11
ATOM     11  C   UNL     1       3.401   7.204  18.110  0.00  0.00    +0.000 C 
BRANCH  11  12
ATOM     12  C   UNL     1       2.366   8.174  18.629  0.00  0.00    +0.000 A 
ATOM     13  C   UNL     1       1.871   9.199  17.812  0.00  0.00    +0.000 A 
ATOM     14  C   UNL     1       0.910  10.089  18.298  0.00  0.00    +0.000 A 
ATOM     15  C   UNL     1       0.446   9.959  19.607  0.00  0.00    +0.000 A 
ATOM     16 BR   UNL     1      -0.856  11.162  20.263  0.00  0.00    +0.000 Br
ATOM     17  C   UNL     1       0.937   8.952  20.434  0.00  0.00    +0.000 A 
ATOM     18  C   UNL     1       1.897   8.065  19.946  0.00  0.00    +0.000 A 
ENDBRANCH  11  12
ENDBRANCH   9  11
ENDBRANCH   3   9
BRANCH   4  19
ATOM     19  O   UNL     1       2.554   3.364  16.654  0.00  0.00    +0.000 OA
ATOM     20  H   UNL     1       2.651   2.412  16.439  0.00  0.00    +0.000 HD
ENDBRANCH   4  19
BRANCH   5  21
ATOM     21  O   UNL     1       4.749   2.443  19.461  0.00  0.00    +0.000 OA
ATOM     22  H   UNL     1       4.755   3.342  19.854  0.00  0.00    +0.000 HD
ENDBRANCH   5  21
BRANCH   6  23
ATOM     23  O   UNL     1       1.366   1.383  18.538  0.00  0.00    +0.000 OA
ATOM     24  H   UNL     1       1.869   0.838  17.907  0.00  0.00    +0.000 HD
ENDBRANCH   6  23
BRANCH   1  25
ATOM     25  C   UNL     1       2.353   3.572  21.468  0.00  0.00    +0.000 C 
BRANCH  25  26
ATOM     26  O   UNL     1       2.937   2.438  22.087  0.00  0.00    +0.000 OA
ATOM     27  H   UNL     1       3.626   2.114  21.473  0.00  0.00    +0.000 HD
ENDBRANCH  25  26
ENDBRANCH   1  25
TORSDOF 9
ENDMDL
MODEL 4
REMARK VINA RESULT:      -6.9      3.603      5.850
REMARK  Name = 
REMARK  9 active torsions:
REMARK  status: ('A' for Active; 'I' for Inactive)
REMARK    1  A    between atoms: O_1  and  C_2
REMARK    2  A    between atoms: C_2  and  C_3
REMARK    3  A    between atoms: C_3  and  O_4
REMARK    4  A    between atoms: C_6  and  N_7
REMARK    5  A    between atoms: N_7  and  C_8
REMARK    6  A    between atoms: C_8  and  C_9
REMARK    7  A    between atoms: C_16  and  O_17
REMARK    8  A    between atoms: C_18  and  O_19
REMARK    9  A    between atoms: C_20  and  O_21
REMARK                            x       y       z     vdW  Elec       q    Type
REMARK                         _______ _______ _______ _____ _____    ______ ____
ROOT
ATOM      1  C   UNL     1       5.858   5.776  15.829  0.00  0.00    +0.000 C 
ATOM      2  C   UNL     1       4.674   5.118  16.570  0.00  0.00    +0.000 C 
ATOM      3  C   UNL     1       5.086   3.978  17.522  0.00  0.00    +0.000 C 
ATOM      4  C   UNL     1       6.128   4.505  18.537  0.00  0.00    +0.000 C 
ATOM      5  C   UNL     1       7.366   5.111  17.856  0.00  0.00    +0.000 C 
ATOM      6  C   UNL     1       7.013   6.178  16.795  0.00  0.00    +0.000 C 
ENDROOT
BRANCH   1   7
ATOM      7  O   UNL     1       5.353   6.980  15.208  0.00  0.00    +0.000 OA
ATOM      8  H   UNL     1       5.876   7.171  14.411  0.00  0.00    +0.000 HD
ENDBRANCH   1   7
BRANCH   3   9
ATOM      9  N   UNL     1       3.857   3.509  18.216  0.00  0.00    +0.000 NA
ATOM     10  H   UNL     1       3.952   3.688  19.218  0.00  0.00    +0.000 HD
BRANCH   9  11
ATOM     11  C   UNL     1       2.656   4.216  17.757  0.00  0.00    +0.000 C 
BRANCH  11  12
ATOM     12  C   UNL     1       2.302   5.333  18.710  0.00  0.00    +0.000 A 
ATOM     13  C   UNL     1       2.406   6.673  18.314  0.00  0.00    +0.000 A 
ATOM     14  C   UNL     1       2.073   7.700  19.200  0.00  0.00    +0.000 A 
ATOM     15  C   UNL     1       1.638   7.389  20.488  0.00  0.00    +0.000 A 
ATOM     16 BR   UNL     1       1.184   8.780  21.685  0.00  0.00    +0.000 Br
ATOM     17  C   UNL     1       1.539   6.062  20.900  0.00  0.00    +0.000 A 
ATOM     18  C   UNL     1       1.874   5.039  20.012  0.00  0.00    +0.000 A 
ENDBRANCH  11  12
ENDBRANCH   9  11
ENDBRANCH   3   9
BRANCH   4  19
ATOM     19  O   UNL     1       5.475   5.477  19.368  0.00  0.00    +0.000 OA
ATOM     20  H   UNL     1       4.724   5.803  18.828  0.00  0.00    +0.000 HD
ENDBRANCH   4  19
BRANCH   5  21
ATOM     21  O   UNL     1       8.190   4.067  17.323  0.00  0.00    +0.000 OA
ATOM     22  H   UNL     1       8.575   3.568  18.074  0.00  0.00    +0.000 HD
ENDBRANCH   5  21
BRANCH   6  23
ATOM     23  O   UNL     1       6.708   7.414  17.467  0.00  0.00    +0.000 OA
ATOM     24  H   UNL     1       6.803   7.263  18.425  0.00  0.00    +0.000 HD
ENDBRANCH   6  23
BRANCH   1  25
ATOM     25  C   UNL     1       6.370   4.885  14.666  0.00  0.00    +0.000 C 
BRANCH  25  26
ATOM     26  O   UNL     1       7.708   5.161  14.283  0.00  0.00    +0.000 OA
ATOM     27  H   UNL     1       7.978   4.433  13.688  0.00  0.00    +0.000 HD
ENDBRANCH  25  26
ENDBRANCH   1  25
TORSDOF 9
ENDMDL
MODEL 5
REMARK VINA RESULT:      -6.9      3.604      5.794
REMARK  Name = 
REMARK  9 active torsions:
REMARK  status: ('A' for Active; 'I' for Inactive)
REMARK    1  A    between atoms: O_1  and  C_2
REMARK    2  A    between atoms: C_2  and  C_3
REMARK    3  A    between atoms: C_3  and  O_4
REMARK    4  A    between atoms: C_6  and  N_7
REMARK    5  A    between atoms: N_7  and  C_8
REMARK    6  A    between atoms: C_8  and  C_9
REMARK    7  A    between atoms: C_16  and  O_17
REMARK    8  A    between atoms: C_18  and  O_19
REMARK    9  A    between atoms: C_20  and  O_21
REMARK                            x       y       z     vdW  Elec       q    Type
REMARK                         _______ _______ _______ _____ _____    ______ ____
ROOT
ATOM      1  C   UNL     1       5.859   5.779  15.827  0.00  0.00    +0.000 C 
ATOM      2  C   UNL     1       4.680   5.125  16.578  0.00  0.00    +0.000 C 
ATOM      3  C   UNL     1       5.097   3.991  17.534  0.00  0.00    +0.000 C 
ATOM      4  C   UNL     1       6.146   4.523  18.539  0.00  0.00    +0.000 C 
ATOM      5  C   UNL     1       7.380   5.125  17.848  0.00  0.00    +0.000 C 
ATOM      6  C   UNL     1       7.020   6.186  16.783  0.00  0.00    +0.000 C 
ENDROOT
BRANCH   1   7
ATOM      7  O   UNL     1       5.351   6.980  15.202  0.00  0.00    +0.000 OA
ATOM      8  H   UNL     1       5.985   7.705  15.340  0.00  0.00    +0.000 HD
ENDBRANCH   1   7
BRANCH   3   9
ATOM      9  N   UNL     1       3.873   3.525  18.238  0.00  0.00    +0.000 NA
ATOM     10  H   UNL     1       3.972   3.712  19.238  0.00  0.00    +0.000 HD
BRANCH   9  11
ATOM     11  C   UNL     1       2.668   4.227  17.780  0.00  0.00    +0.000 C 
BRANCH  11  12
ATOM     12  C   UNL     1       2.303   5.335  18.739  0.00  0.00    +0.000 A 
ATOM     13  C   UNL     1       1.838   5.043  20.028  0.00  0.00    +0.000 A 
ATOM     14  C   UNL     1       1.506   6.074  20.910  0.00  0.00    +0.000 A 
ATOM     15  C   UNL     1       1.634   7.402  20.502  0.00  0.00    +0.000 A 
ATOM     16 BR   UNL     1       1.189   8.796  21.699  0.00  0.00    +0.000 Br
ATOM     17  C   UNL     1       2.086   7.707  19.221  0.00  0.00    +0.000 A 
ATOM     18  C   UNL     1       2.415   6.675  18.342  0.00  0.00    +0.000 A 
ENDBRANCH  11  12
ENDBRANCH   9  11
ENDBRANCH   3   9
BRANCH   4  19
ATOM     19  O   UNL     1       5.498   5.499  19.370  0.00  0.00    +0.000 OA
ATOM     20  H   UNL     1       4.581   5.549  19.026  0.00  0.00    +0.000 HD
ENDBRANCH   4  19
BRANCH   5  21
ATOM     21  O   UNL     1       8.200   4.077  17.316  0.00  0.00    +0.000 OA
ATOM     22  H   UNL     1       8.649   3.630  18.064  0.00  0.00    +0.000 HD
ENDBRANCH   5  21
BRANCH   6  23
ATOM     23  O   UNL     1       6.720   7.425  17.451  0.00  0.00    +0.000 OA
ATOM     24  H   UNL     1       6.377   8.047  16.784  0.00  0.00    +0.000 HD
ENDBRANCH   6  23
BRANCH   1  25
ATOM     25  C   UNL     1       6.364   4.882  14.666  0.00  0.00    +0.000 C 
BRANCH  25  26
ATOM     26  O   UNL     1       7.713   5.126  14.301  0.00  0.00    +0.000 OA
ATOM     27  H   UNL     1       7.946   4.445  13.640  0.00  0.00    +0.000 HD
ENDBRANCH  25  26
ENDBRANCH   1  25
TORSDOF 9
ENDMDL
MODEL 6
REMARK VINA RESULT:      -6.8      0.392      1.126
REMARK  Name = 
REMARK  9 active torsions:
REMARK  status: ('A' for Active; 'I' for Inactive)
REMARK    1  A    between atoms: O_1  and  C_2
REMARK    2  A    between atoms: C_2  and  C_3
REMARK    3  A    between atoms: C_3  and  O_4
REMARK    4  A    between atoms: C_6  and  N_7
REMARK    5  A    between atoms: N_7  and  C_8
REMARK    6  A    between atoms: C_8  and  C_9
REMARK    7  A    between atoms: C_16  and  O_17
REMARK    8  A    between atoms: C_18  and  O_19
REMARK    9  A    between atoms: C_20  and  O_21
REMARK                            x       y       z     vdW  Elec       q    Type
REMARK                         _______ _______ _______ _____ _____    ______ ____
ROOT
ATOM      1  C   UNL     1       2.051   4.141  18.616  0.00  0.00    +0.000 C 
ATOM      2  C   UNL     1       3.525   4.090  18.162  0.00  0.00    +0.000 C 
ATOM      3  C   UNL     1       4.516   3.735  19.287  0.00  0.00    +0.000 C 
ATOM      4  C   UNL     1       4.106   2.389  19.929  0.00  0.00    +0.000 C 
ATOM      5  C   UNL     1       2.664   2.400  20.466  0.00  0.00    +0.000 C 
ATOM      6  C   UNL     1       1.632   2.871  19.416  0.00  0.00    +0.000 C 
ENDROOT
BRANCH   1   7
ATOM      7  O   UNL     1       1.240   4.205  17.421  0.00  0.00    +0.000 OA
ATOM      8  H   UNL     1       0.438   3.670  17.549  0.00  0.00    +0.000 HD
ENDBRANCH   1   7
BRANCH   3   9
ATOM      9  N   UNL     1       5.870   3.644  18.679  0.00  0.00    +0.000 NA
ATOM     10  H   UNL     1       6.067   2.667  18.449  0.00  0.00    +0.000 HD
BRANCH   9  11
ATOM     11  C   UNL     1       5.973   4.416  17.436  0.00  0.00    +0.000 C 
BRANCH  11  12
ATOM     12  C   UNL     1       6.680   5.727  17.683  0.00  0.00    +0.000 A 
ATOM     13  C   UNL     1       6.347   6.871  16.946  0.00  0.00    +0.000 A 
ATOM     14  C   UNL     1       7.004   8.081  17.184  0.00  0.00    +0.000 A 
ATOM     15  C   UNL     1       8.000   8.148  18.158  0.00  0.00    +0.000 A 
ATOM     16 BR   UNL     1       8.884   9.787  18.482  0.00  0.00    +0.000 Br
ATOM     17  C   UNL     1       8.348   7.018  18.892  0.00  0.00    +0.000 A 
ATOM     18  C   UNL     1       7.692   5.810  18.651  0.00  0.00    +0.000 A 
ENDBRANCH  11  12
ENDBRANCH   9  11
ENDBRANCH   3   9
BRANCH   4  19
ATOM     19  O   UNL     1       4.274   1.363  18.938  0.00  0.00    +0.000 OA
ATOM     20  H   UNL     1       4.927   1.732  18.307  0.00  0.00    +0.000 HD
ENDBRANCH   4  19
BRANCH   5  21
ATOM     21  O   UNL     1       2.600   3.169  21.674  0.00  0.00    +0.000 OA
ATOM     22  H   UNL     1       1.762   3.677  21.669  0.00  0.00    +0.000 HD
ENDBRANCH   5  21
BRANCH   6  23
ATOM     23  O   UNL     1       1.351   1.776  18.524  0.00  0.00    +0.000 OA
ATOM     24  H   UNL     1       1.374   0.954  19.046  0.00  0.00    +0.000 HD
ENDBRANCH   6  23
BRANCH   1  25
ATOM     25  C   UNL     1       1.741   5.440  19.405  0.00  0.00    +0.000 C 
BRANCH  25  26
ATOM     26  O   UNL     1       2.681   5.725  20.429  0.00  0.00    +0.000 OA
ATOM     27  H   UNL     1       2.333   5.310  21.243  0.00  0.00    +0.000 HD
ENDBRANCH  25  26
ENDBRANCH   1  25
TORSDOF 9
ENDMDL
MODEL 7
REMARK VINA RESULT:      -6.8      3.572      5.330
REMARK  Name = 
REMARK  9 active torsions:
REMARK  status: ('A' for Active; 'I' for Inactive)
REMARK    1  A    between atoms: O_1  and  C_2
REMARK    2  A    between atoms: C_2  and  C_3
REMARK    3  A    between atoms: C_3  and  O_4
REMARK    4  A    between atoms: C_6  and  N_7
REMARK    5  A    between atoms: N_7  and  C_8
REMARK    6  A    between atoms: C_8  and  C_9
REMARK    7  A    between atoms: C_16  and  O_17
REMARK    8  A    between atoms: C_18  and  O_19
REMARK    9  A    between atoms: C_20  and  O_21
REMARK                            x       y       z     vdW  Elec       q    Type
REMARK                         _______ _______ _______ _____ _____    ______ ____
ROOT
ATOM      1  C   UNL     1       3.681   2.545  19.657  0.00  0.00    +0.000 C 
ATOM      2  C   UNL     1       4.028   4.041  19.506  0.00  0.00    +0.000 C 
ATOM      3  C   UNL     1       2.806   4.946  19.257  0.00  0.00    +0.000 C 
ATOM      4  C   UNL     1       1.777   4.746  20.394  0.00  0.00    +0.000 C 
ATOM      5  C   UNL     1       1.338   3.280  20.548  0.00  0.00    +0.000 C 
ATOM      6  C   UNL     1       2.528   2.303  20.678  0.00  0.00    +0.000 C 
ENDROOT
BRANCH   1   7
ATOM      7  O   UNL     1       4.866   1.883  20.155  0.00  0.00    +0.000 OA
ATOM      8  H   UNL     1       4.654   1.435  20.993  0.00  0.00    +0.000 HD
ENDBRANCH   1   7
BRANCH   3   9
ATOM      9  N   UNL     1       3.290   6.352  19.218  0.00  0.00    +0.000 NA
ATOM     10  H   UNL     1       4.295   6.352  19.031  0.00  0.00    +0.000 HD
BRANCH   9  11
ATOM     11  C   UNL     1       2.646   7.132  18.155  0.00  0.00    +0.000 C 
BRANCH  11  12
ATOM     12  C   UNL     1       1.857   8.277  18.743  0.00  0.00    +0.000 A 
ATOM     13  C   UNL     1       1.384   9.314  17.928  0.00  0.00    +0.000 A 
ATOM     14  C   UNL     1       0.651  10.368  18.479  0.00  0.00    +0.000 A 
ATOM     15  C   UNL     1       0.394  10.391  19.849  0.00  0.00    +0.000 A 
ATOM     16 BR   UNL     1      -0.601  11.815  20.593  0.00  0.00    +0.000 Br
ATOM     17  C   UNL     1       0.867   9.373  20.674  0.00  0.00    +0.000 A 
ATOM     18  C   UNL     1       1.600   8.322  20.120  0.00  0.00    +0.000 A 
ENDBRANCH  11  12
ENDBRANCH   9  11
ENDBRANCH   3   9
BRANCH   4  19
ATOM     19  O   UNL     1       2.368   5.233  21.609  0.00  0.00    +0.000 OA
ATOM     20  H   UNL     1       1.955   4.697  22.318  0.00  0.00    +0.000 HD
ENDBRANCH   4  19
BRANCH   5  21
ATOM     21  O   UNL     1       0.453   2.921  19.479  0.00  0.00    +0.000 OA
ATOM     22  H   UNL     1       0.772   3.355  18.660  0.00  0.00    +0.000 HD
ENDBRANCH   5  21
BRANCH   6  23
ATOM     23  O   UNL     1       3.023   2.356  22.028  0.00  0.00    +0.000 OA
ATOM     24  H   UNL     1       3.995   2.292  21.992  0.00  0.00    +0.000 HD
ENDBRANCH   6  23
BRANCH   1  25
ATOM     25  C   UNL     1       3.377   1.887  18.285  0.00  0.00    +0.000 C 
BRANCH  25  26
ATOM     26  O   UNL     1       4.063   0.664  18.074  0.00  0.00    +0.000 OA
ATOM     27  H   UNL     1       4.872   0.704  18.622  0.00  0.00    +0.000 HD
ENDBRANCH  25  26
ENDBRANCH   1  25
TORSDOF 9
ENDMDL
MODEL 8
REMARK VINA RESULT:      -6.8      3.990      5.981
REMARK  Name = 
REMARK  9 active torsions:
REMARK  status: ('A' for Active; 'I' for Inactive)
REMARK    1  A    between atoms: O_1  and  C_2
REMARK    2  A    between atoms: C_2  and  C_3
REMARK    3  A    between atoms: C_3  and  O_4
REMARK    4  A    between atoms: C_6  and  N_7
REMARK    5  A    between atoms: N_7  and  C_8
REMARK    6  A    between atoms: C_8  and  C_9
REMARK    7  A    between atoms: C_16  and  O_17
REMARK    8  A    between atoms: C_18  and  O_19
REMARK    9  A    between atoms: C_20  and  O_21
REMARK                            x       y       z     vdW  Elec       q    Type
REMARK                         _______ _______ _______ _____ _____    ______ ____
ROOT
ATOM      1  C   UNL     1       4.885   4.058  18.423  0.00  0.00    +0.000 C 
ATOM      2  C   UNL     1       4.338   5.237  19.255  0.00  0.00    +0.000 C 
ATOM      3  C   UNL     1       2.800   5.339  19.264  0.00  0.00    +0.000 C 
ATOM      4  C   UNL     1       2.198   4.004  19.763  0.00  0.00    +0.000 C 
ATOM      5  C   UNL     1       2.652   2.797  18.926  0.00  0.00    +0.000 C 
ATOM      6  C   UNL     1       4.188   2.709  18.775  0.00  0.00    +0.000 C 
ENDROOT
BRANCH   1   7
ATOM      7  O   UNL     1       6.290   3.932  18.738  0.00  0.00    +0.000 OA
ATOM      8  H   UNL     1       6.775   3.668  17.938  0.00  0.00    +0.000 HD
ENDBRANCH   1   7
BRANCH   3   9
ATOM      9  N   UNL     1       2.431   6.461  20.167  0.00  0.00    +0.000 NA
ATOM     10  H   UNL     1       3.212   6.650  20.799  0.00  0.00    +0.000 HD
BRANCH   9  11
ATOM     11  C   UNL     1       2.154   7.699  19.430  0.00  0.00    +0.000 C 
BRANCH  11  12
ATOM     12  C   UNL     1       1.305   8.631  20.261  0.00  0.00    +0.000 A 
ATOM     13  C   UNL     1       0.637   9.712  19.669  0.00  0.00    +0.000 A 
ATOM     14  C   UNL     1      -0.149  10.568  20.445  0.00  0.00    +0.000 A 
ATOM     15  C   UNL     1      -0.266  10.347  21.817  0.00  0.00    +0.000 A 
ATOM     16 BR   UNL     1      -1.334  11.502  22.864  0.00  0.00    +0.000 Br
ATOM     17  C   UNL     1       0.399   9.283  22.421  0.00  0.00    +0.000 A 
ATOM     18  C   UNL     1       1.185   8.431  21.643  0.00  0.00    +0.000 A 
ENDBRANCH  11  12
ENDBRANCH   9  11
ENDBRANCH   3   9
BRANCH   4  19
ATOM     19  O   UNL     1       2.574   3.843  21.139  0.00  0.00    +0.000 OA
ATOM     20  H   UNL     1       2.727   2.880  21.244  0.00  0.00    +0.000 HD
ENDBRANCH   4  19
BRANCH   5  21
ATOM     21  O   UNL     1       1.981   2.801  17.660  0.00  0.00    +0.000 OA
ATOM     22  H   UNL     1       1.613   3.697  17.511  0.00  0.00    +0.000 HD
ENDBRANCH   5  21
BRANCH   6  23
ATOM     23  O   UNL     1       4.738   2.151  19.983  0.00  0.00    +0.000 OA
ATOM     24  H   UNL     1       4.259   1.325  20.174  0.00  0.00    +0.000 HD
ENDBRANCH   6  23
BRANCH   1  25
ATOM     25  C   UNL     1       4.820   4.354  16.902  0.00  0.00    +0.000 C 
BRANCH  25  26
ATOM     26  O   UNL     1       5.688   3.544  16.125  0.00  0.00    +0.000 OA
ATOM     27  H   UNL     1       6.545   4.014  16.092  0.00  0.00    +0.000 HD
ENDBRANCH  25  26
ENDBRANCH   1  25
TORSDOF 9
ENDMDL
MODEL 9
REMARK VINA RESULT:      -6.7      4.100      6.084
REMARK  Name = 
REMARK  9 active torsions:
REMARK  status: ('A' for Active; 'I' for Inactive)
REMARK    1  A    between atoms: O_1  and  C_2
REMARK    2  A    between atoms: C_2  and  C_3
REMARK    3  A    between atoms: C_3  and  O_4
REMARK    4  A    between atoms: C_6  and  N_7
REMARK    5  A    between atoms: N_7  and  C_8
REMARK    6  A    between atoms: C_8  and  C_9
REMARK    7  A    between atoms: C_16  and  O_17
REMARK    8  A    between atoms: C_18  and  O_19
REMARK    9  A    between atoms: C_20  and  O_21
REMARK                            x       y       z     vdW  Elec       q    Type
REMARK                         _______ _______ _______ _____ _____    ______ ____
ROOT
ATOM      1  C   UNL     1       7.120   6.220  18.026  0.00  0.00    +0.000 C 
ATOM      2  C   UNL     1       5.637   6.074  18.427  0.00  0.00    +0.000 C 
ATOM      3  C   UNL     1       4.692   5.793  17.243  0.00  0.00    +0.000 C 
ATOM      4  C   UNL     1       5.171   4.530  16.490  0.00  0.00    +0.000 C 
ATOM      5  C   UNL     1       6.625   4.644  16.002  0.00  0.00    +0.000 C 
ATOM      6  C   UNL     1       7.609   5.048  17.124  0.00  0.00    +0.000 C 
ENDROOT
BRANCH   1   7
ATOM      7  O   UNL     1       7.894   6.198  19.248  0.00  0.00    +0.000 OA
ATOM      8  H   UNL     1       8.769   6.587  19.078  0.00  0.00    +0.000 HD
ENDBRANCH   1   7
BRANCH   3   9
ATOM      9  N   UNL     1       3.326   5.597  17.797  0.00  0.00    +0.000 NA
ATOM     10  H   UNL     1       3.123   4.595  17.834  0.00  0.00    +0.000 HD
BRANCH   9  11
ATOM     11  C   UNL     1       3.199   6.120  19.162  0.00  0.00    +0.000 C 
BRANCH  11  12
ATOM     12  C   UNL     1       2.372   7.383  19.170  0.00  0.00    +0.000 A 
ATOM     13  C   UNL     1       1.758   7.829  20.348  0.00  0.00    +0.000 A 
ATOM     14  C   UNL     1       0.997   9.001  20.348  0.00  0.00    +0.000 A 
ATOM     15  C   UNL     1       0.843   9.727  19.167  0.00  0.00    +0.000 A 
ATOM     16 BR   UNL     1      -0.183  11.314  19.170  0.00  0.00    +0.000 Br
ATOM     17  C   UNL     1       1.439   9.291  17.987  0.00  0.00    +0.000 A 
ATOM     18  C   UNL     1       2.198   8.119  17.990  0.00  0.00    +0.000 A 
ENDBRANCH  11  12
ENDBRANCH   9  11
ENDBRANCH   3   9
BRANCH   4  19
ATOM     19  O   UNL     1       5.015   3.409  17.373  0.00  0.00    +0.000 OA
ATOM     20  H   UNL     1       5.580   3.621  18.146  0.00  0.00    +0.000 HD
ENDBRANCH   4  19
BRANCH   5  21
ATOM     21  O   UNL     1       6.694   5.527  14.875  0.00  0.00    +0.000 OA
ATOM     22  H   UNL     1       7.343   5.160  14.238  0.00  0.00    +0.000 HD
ENDBRANCH   5  21
BRANCH   6  23
ATOM     23  O   UNL     1       7.907   3.884  17.916  0.00  0.00    +0.000 OA
ATOM     24  H   UNL     1       8.388   4.180  18.710  0.00  0.00    +0.000 HD
ENDBRANCH   6  23
BRANCH   1  25
ATOM     25  C   UNL     1       7.403   7.599  17.374  0.00  0.00    +0.000 C 
BRANCH  25  26
ATOM     26  O   UNL     1       8.227   8.444  18.160  0.00  0.00    +0.000 OA
ATOM     27  H   UNL     1       7.690   9.233  18.372  0.00  0.00    +0.000 HD
ENDBRANCH  25  26
ENDBRANCH   1  25
TORSDOF 9
ENDMDL
