MODEL 1
REMARK VINA RESULT:      -8.5      0.000      0.000
REMARK  Name = 
REMARK  11 active torsions:
REMARK  status: ('A' for Active; 'I' for Inactive)
REMARK    1  A    between atoms: C_1  and  C_2
REMARK    2  A    between atoms: C_5  and  C_6
REMARK    3  A    between atoms: C_8  and  C_9
REMARK    4  A    between atoms: C_9  and  O_10
REMARK    5  A    between atoms: O_10  and  C_11
REMARK    6  A    between atoms: C_13  and  N_14
REMARK    7  A    between atoms: N_14  and  C_15
REMARK    8  A    between atoms: C_15  and  C_16
REMARK    9  A    between atoms: C_18  and  C_19
REMARK   10  A    between atoms: C_20  and  C_21
REMARK   11  A    between atoms: N_25  and  C_26
REMARK                            x       y       z     vdW  Elec       q    Type
REMARK                         _______ _______ _______ _____ _____    ______ ____
ROOT
ATOM      1  C   UNL     1       2.570   5.111  18.965  0.00  0.00    +0.000 A 
ATOM      2  C   UNL     1       3.822   4.901  18.254  0.00  0.00    +0.000 A 
ATOM      3  C   UNL     1       4.655   3.951  18.722  0.00  0.00    +0.000 A 
ATOM      4  C   UNL     1       4.167   3.093  19.867  0.00  0.00    +0.000 A 
ATOM      5  O   UNL     1       4.874   2.158  20.271  0.00  0.00    +0.000 OA
ATOM      6  N   UNL     1       2.912   3.395  20.400  0.00  0.00    +0.000 N 
ATOM      7  C   UNL     1       2.363   2.590  21.483  0.00  0.00    +0.000 C 
ATOM      8  N   UNL     1       2.113   4.443  19.964  0.00  0.00    +0.000 NA
ENDROOT
BRANCH   3   9
ATOM      9  N   UNL     1       5.917   3.825  18.173  0.00  0.00    +0.000 N 
ATOM     10  H   UNL     1       6.092   2.914  17.724  0.00  0.00    +0.000 HD
BRANCH   9  11
ATOM     11  C   UNL     1       6.620   4.903  17.471  0.00  0.00    +0.000 C 
BRANCH  11  12
ATOM     12  C   UNL     1       6.671   4.741  15.967  0.00  0.00    +0.000 A 
ATOM     13  N   UNL     1       7.493   5.397  15.174  0.00  0.00    +0.000 NA
ATOM     14  C   UNL     1       7.324   4.986  13.863  0.00  0.00    +0.000 A 
ATOM     15  C   UNL     1       8.189   5.594  12.819  0.00  0.00    +0.000 C 
ATOM     16  C   UNL     1       6.351   4.015  13.678  0.00  0.00    +0.000 A 
ATOM     17  C   UNL     1       5.906   3.331  12.434  0.00  0.00    +0.000 C 
ATOM     18  S   UNL     1       5.632   3.620  15.183  0.00  0.00    +0.000 S 
ENDBRANCH  11  12
ENDBRANCH   9  11
ENDBRANCH   3   9
BRANCH   1  19
ATOM     19  O   UNL     1       1.956   6.182  18.399  0.00  0.00    +0.000 OA
BRANCH  19  20
ATOM     20  C   UNL     1       2.782   7.312  18.101  0.00  0.00    +0.000 C 
BRANCH  20  23
ATOM     21  C   UNL     1       1.140   9.295  17.610  0.00  0.00    +0.000 C 
ATOM     22  C   UNL     1       2.473   9.892  18.011  0.00  0.00    +0.000 C 
ATOM     23  C   UNL     1       2.071   8.555  18.564  0.00  0.00    +0.000 C 
BRANCH  21  28
ATOM     24  C   UNL     1      -3.655  12.089  19.220  0.00  0.00    +0.000 C 
ATOM     25  C   UNL     1      -2.427  11.305  18.892  0.00  0.00    +0.000 A 
ATOM     26  C   UNL     1      -1.291  11.350  19.685  0.00  0.00    +0.000 A 
ATOM     27  C   UNL     1      -0.151  10.653  19.299  0.00  0.00    +0.000 A 
ATOM     28  C   UNL     1      -0.131   9.941  18.107  0.00  0.00    +0.000 A 
ATOM     29  N   UNL     1      -1.261   9.827  17.352  0.00  0.00    +0.000 NA
ATOM     30  C   UNL     1      -2.367  10.506  17.751  0.00  0.00    +0.000 A 
ENDBRANCH  21  28
ENDBRANCH  20  23
ENDBRANCH  19  20
ENDBRANCH   1  19
TORSDOF 7
ENDMDL
MODEL 2
REMARK VINA RESULT:      -8.1      1.915      2.432
REMARK  Name = 
REMARK  11 active torsions:
REMARK  status: ('A' for Active; 'I' for Inactive)
REMARK    1  A    between atoms: C_1  and  C_2
REMARK    2  A    between atoms: C_5  and  C_6
REMARK    3  A    between atoms: C_8  and  C_9
REMARK    4  A    between atoms: C_9  and  O_10
REMARK    5  A    between atoms: O_10  and  C_11
REMARK    6  A    between atoms: C_13  and  N_14
REMARK    7  A    between atoms: N_14  and  C_15
REMARK    8  A    between atoms: C_15  and  C_16
REMARK    9  A    between atoms: C_18  and  C_19
REMARK   10  A    between atoms: C_20  and  C_21
REMARK   11  A    between atoms: N_25  and  C_26
REMARK                            x       y       z     vdW  Elec       q    Type
REMARK                         _______ _______ _______ _____ _____    ______ ____
ROOT
ATOM      1  C   UNL     1       3.321   5.693  19.805  0.00  0.00    +0.000 A 
ATOM      2  C   UNL     1       4.471   5.419  18.957  0.00  0.00    +0.000 A 
ATOM      3  C   UNL     1       5.001   4.181  19.004  0.00  0.00    +0.000 A 
ATOM      4  C   UNL     1       4.281   3.141  19.833  0.00  0.00    +0.000 A 
ATOM      5  O   UNL     1       4.695   1.972  19.836  0.00  0.00    +0.000 OA
ATOM      6  N   UNL     1       3.156   3.561  20.545  0.00  0.00    +0.000 N 
ATOM      7  C   UNL     1       2.393   2.608  21.338  0.00  0.00    +0.000 C 
ATOM      8  N   UNL     1       2.686   4.868  20.557  0.00  0.00    +0.000 NA
ENDROOT
BRANCH   3   9
ATOM      9  N   UNL     1       6.183   3.922  18.335  0.00  0.00    +0.000 N 
ATOM     10  H   UNL     1       6.211   3.004  17.868  0.00  0.00    +0.000 HD
BRANCH   9  11
ATOM     11  C   UNL     1       6.933   4.926  17.574  0.00  0.00    +0.000 C 
BRANCH  11  12
ATOM     12  C   UNL     1       6.849   4.762  16.071  0.00  0.00    +0.000 A 
ATOM     13  N   UNL     1       7.620   5.391  15.209  0.00  0.00    +0.000 NA
ATOM     14  C   UNL     1       7.325   4.986  13.918  0.00  0.00    +0.000 A 
ATOM     15  C   UNL     1       8.116   5.566  12.802  0.00  0.00    +0.000 C 
ATOM     16  C   UNL     1       6.308   4.047  13.820  0.00  0.00    +0.000 A 
ATOM     17  C   UNL     1       5.735   3.379  12.621  0.00  0.00    +0.000 C 
ATOM     18  S   UNL     1       5.709   3.676  15.384  0.00  0.00    +0.000 S 
ENDBRANCH  11  12
ENDBRANCH   9  11
ENDBRANCH   3   9
BRANCH   1  19
ATOM     19  O   UNL     1       3.037   7.016  19.687  0.00  0.00    +0.000 OA
BRANCH  19  20
ATOM     20  C   UNL     1       1.839   7.357  18.983  0.00  0.00    +0.000 C 
BRANCH  20  23
ATOM     21  C   UNL     1       0.986   9.835  18.979  0.00  0.00    +0.000 C 
ATOM     22  C   UNL     1       0.932   9.330  17.552  0.00  0.00    +0.000 C 
ATOM     23  C   UNL     1       1.965   8.774  18.491  0.00  0.00    +0.000 C 
BRANCH  21  28
ATOM     24  C   UNL     1       2.300  15.384  19.916  0.00  0.00    +0.000 C 
ATOM     25  C   UNL     1       2.067  13.930  19.665  0.00  0.00    +0.000 A 
ATOM     26  C   UNL     1       2.371  13.334  18.452  0.00  0.00    +0.000 A 
ATOM     27  C   UNL     1       2.073  11.991  18.247  0.00  0.00    +0.000 A 
ATOM     28  C   UNL     1       1.438  11.252  19.237  0.00  0.00    +0.000 A 
ATOM     29  N   UNL     1       1.198  11.803  20.462  0.00  0.00    +0.000 NA
ATOM     30  C   UNL     1       1.506  13.112  20.646  0.00  0.00    +0.000 A 
ENDBRANCH  21  28
ENDBRANCH  20  23
ENDBRANCH  19  20
ENDBRANCH   1  19
TORSDOF 7
ENDMDL
MODEL 3
REMARK VINA RESULT:      -8.1      1.726      2.131
REMARK  Name = 
REMARK  11 active torsions:
REMARK  status: ('A' for Active; 'I' for Inactive)
REMARK    1  A    between atoms: C_1  and  C_2
REMARK    2  A    between atoms: C_5  and  C_6
REMARK    3  A    between atoms: C_8  and  C_9
REMARK    4  A    between atoms: C_9  and  O_10
REMARK    5  A    between atoms: O_10  and  C_11
REMARK    6  A    between atoms: C_13  and  N_14
REMARK    7  A    between atoms: N_14  and  C_15
REMARK    8  A    between atoms: C_15  and  C_16
REMARK    9  A    between atoms: C_18  and  C_19
REMARK   10  A    between atoms: C_20  and  C_21
REMARK   11  A    between atoms: N_25  and  C_26
REMARK                            x       y       z     vdW  Elec       q    Type
REMARK                         _______ _______ _______ _____ _____    ______ ____
ROOT
ATOM      1  C   UNL     1       2.959   5.793  19.477  0.00  0.00    +0.000 A 
ATOM      2  C   UNL     1       4.184   5.497  18.750  0.00  0.00    +0.000 A 
ATOM      3  C   UNL     1       4.764   4.299  18.964  0.00  0.00    +0.000 A 
ATOM      4  C   UNL     1       4.028   3.311  19.840  0.00  0.00    +0.000 A 
ATOM      5  O   UNL     1       4.492   2.171  19.995  0.00  0.00    +0.000 OA
ATOM      6  N   UNL     1       2.832   3.740  20.420  0.00  0.00    +0.000 N 
ATOM      7  C   UNL     1       2.052   2.831  21.248  0.00  0.00    +0.000 C 
ATOM      8  N   UNL     1       2.305   5.014  20.262  0.00  0.00    +0.000 NA
ENDROOT
BRANCH   3   9
ATOM      9  N   UNL     1       6.005   4.038  18.415  0.00  0.00    +0.000 N 
ATOM     10  H   UNL     1       6.095   3.097  18.004  0.00  0.00    +0.000 HD
BRANCH   9  11
ATOM     11  C   UNL     1       6.796   5.020  17.666  0.00  0.00    +0.000 C 
BRANCH  11  12
ATOM     12  C   UNL     1       6.767   4.829  16.164  0.00  0.00    +0.000 A 
ATOM     13  N   UNL     1       7.567   5.448  15.320  0.00  0.00    +0.000 NA
ATOM     14  C   UNL     1       7.322   5.019  14.026  0.00  0.00    +0.000 A 
ATOM     15  C   UNL     1       8.150   5.584  12.930  0.00  0.00    +0.000 C 
ATOM     16  C   UNL     1       6.314   4.073  13.907  0.00  0.00    +0.000 A 
ATOM     17  C   UNL     1       5.789   3.380  12.700  0.00  0.00    +0.000 C 
ATOM     18  S   UNL     1       5.660   3.725  15.454  0.00  0.00    +0.000 S 
ENDBRANCH  11  12
ENDBRANCH   9  11
ENDBRANCH   3   9
BRANCH   1  19
ATOM     19  O   UNL     1       2.626   7.081  19.203  0.00  0.00    +0.000 OA
BRANCH  19  20
ATOM     20  C   UNL     1       3.153   7.638  17.995  0.00  0.00    +0.000 C 
BRANCH  20  23
ATOM     21  C   UNL     1       1.605   9.623  18.724  0.00  0.00    +0.000 C 
ATOM     22  C   UNL     1       0.835   8.784  17.725  0.00  0.00    +0.000 C 
ATOM     23  C   UNL     1       2.333   8.847  17.633  0.00  0.00    +0.000 C 
BRANCH  21  28
ATOM     24  C   UNL     1       1.431  15.397  18.829  0.00  0.00    +0.000 C 
ATOM     25  C   UNL     1       1.391  13.908  18.735  0.00  0.00    +0.000 A 
ATOM     26  C   UNL     1       0.335  13.166  19.243  0.00  0.00    +0.000 A 
ATOM     27  C   UNL     1       0.378  11.777  19.189  0.00  0.00    +0.000 A 
ATOM     28  C   UNL     1       1.486  11.126  18.663  0.00  0.00    +0.000 A 
ATOM     29  N   UNL     1       2.500  11.840  18.094  0.00  0.00    +0.000 NA
ATOM     30  C   UNL     1       2.435  13.195  18.147  0.00  0.00    +0.000 A 
ENDBRANCH  21  28
ENDBRANCH  20  23
ENDBRANCH  19  20
ENDBRANCH   1  19
TORSDOF 7
ENDMDL
MODEL 4
REMARK VINA RESULT:      -8.0      2.643      3.558
REMARK  Name = 
REMARK  11 active torsions:
REMARK  status: ('A' for Active; 'I' for Inactive)
REMARK    1  A    between atoms: C_1  and  C_2
REMARK    2  A    between atoms: C_5  and  C_6
REMARK    3  A    between atoms: C_8  and  C_9
REMARK    4  A    between atoms: C_9  and  O_10
REMARK    5  A    between atoms: O_10  and  C_11
REMARK    6  A    between atoms: C_13  and  N_14
REMARK    7  A    between atoms: N_14  and  C_15
REMARK    8  A    between atoms: C_15  and  C_16
REMARK    9  A    between atoms: C_18  and  C_19
REMARK   10  A    between atoms: C_20  and  C_21
REMARK   11  A    between atoms: N_25  and  C_26
REMARK                            x       y       z     vdW  Elec       q    Type
REMARK                         _______ _______ _______ _____ _____    ______ ____
ROOT
ATOM      1  C   UNL     1       2.146   5.905  19.899  0.00  0.00    +0.000 A 
ATOM      2  C   UNL     1       2.556   5.588  18.540  0.00  0.00    +0.000 A 
ATOM      3  C   UNL     1       2.789   4.294  18.243  0.00  0.00    +0.000 A 
ATOM      4  C   UNL     1       2.481   3.265  19.307  0.00  0.00    +0.000 A 
ATOM      5  O   UNL     1       2.607   2.060  19.043  0.00  0.00    +0.000 OA
ATOM      6  N   UNL     1       2.042   3.739  20.545  0.00  0.00    +0.000 N 
ATOM      7  C   UNL     1       1.694   2.805  21.606  0.00  0.00    +0.000 C 
ATOM      8  N   UNL     1       1.903   5.085  20.857  0.00  0.00    +0.000 NA
ENDROOT
BRANCH   3   9
ATOM      9  N   UNL     1       3.327   3.966  17.013  0.00  0.00    +0.000 N 
ATOM     10  H   UNL     1       2.932   4.499  16.224  0.00  0.00    +0.000 HD
BRANCH   9  11
ATOM     11  C   UNL     1       4.743   3.661  16.789  0.00  0.00    +0.000 C 
BRANCH  11  12
ATOM     12  C   UNL     1       5.699   4.702  17.334  0.00  0.00    +0.000 A 
ATOM     13  N   UNL     1       6.452   4.535  18.402  0.00  0.00    +0.000 NA
ATOM     14  C   UNL     1       7.248   5.649  18.605  0.00  0.00    +0.000 A 
ATOM     15  C   UNL     1       8.193   5.637  19.751  0.00  0.00    +0.000 C 
ATOM     16  C   UNL     1       7.074   6.667  17.678  0.00  0.00    +0.000 A 
ATOM     17  C   UNL     1       7.751   7.986  17.567  0.00  0.00    +0.000 C 
ATOM     18  S   UNL     1       5.880   6.211  16.534  0.00  0.00    +0.000 S 
ENDBRANCH  11  12
ENDBRANCH   9  11
ENDBRANCH   3   9
BRANCH   1  19
ATOM     19  O   UNL     1       2.089   7.259  19.999  0.00  0.00    +0.000 OA
BRANCH  19  20
ATOM     20  C   UNL     1       1.399   7.791  21.135  0.00  0.00    +0.000 C 
BRANCH  20  23
ATOM     21  C   UNL     1      -0.317   9.738  20.770  0.00  0.00    +0.000 C 
ATOM     22  C   UNL     1       0.580   9.682  19.550  0.00  0.00    +0.000 C 
ATOM     23  C   UNL     1       1.123   9.248  20.882  0.00  0.00    +0.000 C 
BRANCH  21  28
ATOM     24  C   UNL     1      -2.299  14.753  22.846  0.00  0.00    +0.000 C 
ATOM     25  C   UNL     1      -1.691  13.505  22.296  0.00  0.00    +0.000 A 
ATOM     26  C   UNL     1      -1.265  13.411  20.980  0.00  0.00    +0.000 A 
ATOM     27  C   UNL     1      -0.767  12.205  20.499  0.00  0.00    +0.000 A 
ATOM     28  C   UNL     1      -0.726  11.084  21.317  0.00  0.00    +0.000 A 
ATOM     29  N   UNL     1      -1.072  11.177  22.634  0.00  0.00    +0.000 NA
ATOM     30  C   UNL     1      -1.546  12.366  23.087  0.00  0.00    +0.000 A 
ENDBRANCH  21  28
ENDBRANCH  20  23
ENDBRANCH  19  20
ENDBRANCH   1  19
TORSDOF 7
ENDMDL
MODEL 5
REMARK VINA RESULT:      -8.0      2.045      2.466
REMARK  Name = 
REMARK  11 active torsions:
REMARK  status: ('A' for Active; 'I' for Inactive)
REMARK    1  A    between atoms: C_1  and  C_2
REMARK    2  A    between atoms: C_5  and  C_6
REMARK    3  A    between atoms: C_8  and  C_9
REMARK    4  A    between atoms: C_9  and  O_10
REMARK    5  A    between atoms: O_10  and  C_11
REMARK    6  A    between atoms: C_13  and  N_14
REMARK    7  A    between atoms: N_14  and  C_15
REMARK    8  A    between atoms: C_15  and  C_16
REMARK    9  A    between atoms: C_18  and  C_19
REMARK   10  A    between atoms: C_20  and  C_21
REMARK   11  A    between atoms: N_25  and  C_26
REMARK                            x       y       z     vdW  Elec       q    Type
REMARK                         _______ _______ _______ _____ _____    ______ ____
ROOT
ATOM      1  C   UNL     1       2.913   6.261  19.163  0.00  0.00    +0.000 A 
ATOM      2  C   UNL     1       4.046   5.782  18.385  0.00  0.00    +0.000 A 
ATOM      3  C   UNL     1       4.559   4.578  18.705  0.00  0.00    +0.000 A 
ATOM      4  C   UNL     1       3.839   3.766  19.758  0.00  0.00    +0.000 A 
ATOM      5  O   UNL     1       4.236   2.621  20.021  0.00  0.00    +0.000 OA
ATOM      6  N   UNL     1       2.731   4.357  20.370  0.00  0.00    +0.000 N 
ATOM      7  C   UNL     1       1.968   3.621  21.369  0.00  0.00    +0.000 C 
ATOM      8  N   UNL     1       2.280   5.639  20.092  0.00  0.00    +0.000 NA
ENDROOT
BRANCH   3   9
ATOM      9  N   UNL     1       5.726   4.154  18.097  0.00  0.00    +0.000 N 
ATOM     10  H   UNL     1       5.645   3.248  17.613  0.00  0.00    +0.000 HD
BRANCH   9  11
ATOM     11  C   UNL     1       6.660   5.044  17.400  0.00  0.00    +0.000 C 
BRANCH  11  12
ATOM     12  C   UNL     1       6.716   4.839  15.901  0.00  0.00    +0.000 A 
ATOM     13  N   UNL     1       7.541   5.473  15.094  0.00  0.00    +0.000 NA
ATOM     14  C   UNL     1       7.377   5.025  13.793  0.00  0.00    +0.000 A 
ATOM     15  C   UNL     1       8.245   5.605  12.737  0.00  0.00    +0.000 C 
ATOM     16  C   UNL     1       6.404   4.049  13.632  0.00  0.00    +0.000 A 
ATOM     17  C   UNL     1       5.964   3.331  12.407  0.00  0.00    +0.000 C 
ATOM     18  S   UNL     1       5.680   3.696  15.146  0.00  0.00    +0.000 S 
ENDBRANCH  11  12
ENDBRANCH   9  11
ENDBRANCH   3   9
BRANCH   1  19
ATOM     19  O   UNL     1       2.646   7.528  18.752  0.00  0.00    +0.000 OA
BRANCH  19  20
ATOM     20  C   UNL     1       1.804   8.315  19.600  0.00  0.00    +0.000 C 
BRANCH  20  23
ATOM     21  C   UNL     1       0.535  10.607  19.533  0.00  0.00    +0.000 C 
ATOM     22  C   UNL     1      -0.024   9.741  18.423  0.00  0.00    +0.000 C 
ATOM     23  C   UNL     1       1.404   9.557  18.850  0.00  0.00    +0.000 C 
BRANCH  21  28
ATOM     24  C   UNL     1       1.230  16.316  18.969  0.00  0.00    +0.000 C 
ATOM     25  C   UNL     1       1.058  14.833  19.007  0.00  0.00    +0.000 A 
ATOM     26  C   UNL     1      -0.056  14.207  18.470  0.00  0.00    +0.000 A 
ATOM     27  C   UNL     1      -0.199  12.828  18.590  0.00  0.00    +0.000 A 
ATOM     28  C   UNL     1       0.747  12.080  19.277  0.00  0.00    +0.000 A 
ATOM     29  N   UNL     1       1.884  12.669  19.748  0.00  0.00    +0.000 NA
ATOM     30  C   UNL     1       2.011  14.014  19.611  0.00  0.00    +0.000 A 
ENDBRANCH  21  28
ENDBRANCH  20  23
ENDBRANCH  19  20
ENDBRANCH   1  19
TORSDOF 7
ENDMDL
MODEL 6
REMARK VINA RESULT:      -7.9      1.706      2.076
REMARK  Name = 
REMARK  11 active torsions:
REMARK  status: ('A' for Active; 'I' for Inactive)
REMARK    1  A    between atoms: C_1  and  C_2
REMARK    2  A    between atoms: C_5  and  C_6
REMARK    3  A    between atoms: C_8  and  C_9
REMARK    4  A    between atoms: C_9  and  O_10
REMARK    5  A    between atoms: O_10  and  C_11
REMARK    6  A    between atoms: C_13  and  N_14
REMARK    7  A    between atoms: N_14  and  C_15
REMARK    8  A    between atoms: C_15  and  C_16
REMARK    9  A    between atoms: C_18  and  C_19
REMARK   10  A    between atoms: C_20  and  C_21
REMARK   11  A    between atoms: N_25  and  C_26
REMARK                            x       y       z     vdW  Elec       q    Type
REMARK                         _______ _______ _______ _____ _____    ______ ____
ROOT
ATOM      1  C   UNL     1       2.545   5.447  18.304  0.00  0.00    +0.000 A 
ATOM      2  C   UNL     1       3.947   5.266  17.961  0.00  0.00    +0.000 A 
ATOM      3  C   UNL     1       4.563   4.156  18.414  0.00  0.00    +0.000 A 
ATOM      4  C   UNL     1       3.718   3.128  19.130  0.00  0.00    +0.000 A 
ATOM      5  O   UNL     1       4.234   2.060  19.491  0.00  0.00    +0.000 OA
ATOM      6  N   UNL     1       2.370   3.438  19.330  0.00  0.00    +0.000 N 
ATOM      7  C   UNL     1       1.488   2.481  19.982  0.00  0.00    +0.000 C 
ATOM      8  N   UNL     1       1.781   4.632  18.939  0.00  0.00    +0.000 NA
ENDROOT
BRANCH   3   9
ATOM      9  N   UNL     1       5.928   4.020  18.243  0.00  0.00    +0.000 N 
ATOM     10  H   UNL     1       6.236   3.053  18.063  0.00  0.00    +0.000 HD
BRANCH   9  11
ATOM     11  C   UNL     1       6.767   4.985  17.526  0.00  0.00    +0.000 C 
BRANCH  11  12
ATOM     12  C   UNL     1       6.788   4.799  16.024  0.00  0.00    +0.000 A 
ATOM     13  N   UNL     1       7.574   5.464  15.202  0.00  0.00    +0.000 NA
ATOM     14  C   UNL     1       7.386   5.026  13.901  0.00  0.00    +0.000 A 
ATOM     15  C   UNL     1       8.209   5.640  12.828  0.00  0.00    +0.000 C 
ATOM     16  C   UNL     1       6.435   4.026  13.755  0.00  0.00    +0.000 A 
ATOM     17  C   UNL     1       5.981   3.311  12.533  0.00  0.00    +0.000 C 
ATOM     18  S   UNL     1       5.762   3.637  15.283  0.00  0.00    +0.000 S 
ENDBRANCH  11  12
ENDBRANCH   9  11
ENDBRANCH   3   9
BRANCH   1  19
ATOM     19  O   UNL     1       2.172   6.673  17.854  0.00  0.00    +0.000 OA
BRANCH  19  20
ATOM     20  C   UNL     1       2.942   7.788  18.313  0.00  0.00    +0.000 C 
BRANCH  20  23
ATOM     21  C   UNL     1       1.327   9.766  18.902  0.00  0.00    +0.000 C 
ATOM     22  C   UNL     1       0.746   9.041  17.705  0.00  0.00    +0.000 C 
ATOM     23  C   UNL     1       2.235   9.053  17.906  0.00  0.00    +0.000 C 
BRANCH  21  28
ATOM     24  C   UNL     1       0.746  15.514  18.773  0.00  0.00    +0.000 C 
ATOM     25  C   UNL     1       0.986  14.043  18.865  0.00  0.00    +0.000 A 
ATOM     26  C   UNL     1       2.080  13.436  18.268  0.00  0.00    +0.000 A 
ATOM     27  C   UNL     1       2.221  12.054  18.327  0.00  0.00    +0.000 A 
ATOM     28  C   UNL     1       1.256  11.273  18.949  0.00  0.00    +0.000 A 
ATOM     29  N   UNL     1       0.212  11.859  19.604  0.00  0.00    +0.000 NA
ATOM     30  C   UNL     1       0.097  13.210  19.544  0.00  0.00    +0.000 A 
ENDBRANCH  21  28
ENDBRANCH  20  23
ENDBRANCH  19  20
ENDBRANCH   1  19
TORSDOF 7
ENDMDL
MODEL 7
REMARK VINA RESULT:      -7.9      1.150      1.573
REMARK  Name = 
REMARK  11 active torsions:
REMARK  status: ('A' for Active; 'I' for Inactive)
REMARK    1  A    between atoms: C_1  and  C_2
REMARK    2  A    between atoms: C_5  and  C_6
REMARK    3  A    between atoms: C_8  and  C_9
REMARK    4  A    between atoms: C_9  and  O_10
REMARK    5  A    between atoms: O_10  and  C_11
REMARK    6  A    between atoms: C_13  and  N_14
REMARK    7  A    between atoms: N_14  and  C_15
REMARK    8  A    between atoms: C_15  and  C_16
REMARK    9  A    between atoms: C_18  and  C_19
REMARK   10  A    between atoms: C_20  and  C_21
REMARK   11  A    between atoms: N_25  and  C_26
REMARK                            x       y       z     vdW  Elec       q    Type
REMARK                         _______ _______ _______ _____ _____    ______ ____
ROOT
ATOM      1  C   UNL     1       2.421   6.207  19.719  0.00  0.00    +0.000 A 
ATOM      2  C   UNL     1       3.383   5.854  18.686  0.00  0.00    +0.000 A 
ATOM      3  C   UNL     1       3.921   4.619  18.727  0.00  0.00    +0.000 A 
ATOM      4  C   UNL     1       3.387   3.657  19.764  0.00  0.00    +0.000 A 
ATOM      5  O   UNL     1       3.802   2.489  19.780  0.00  0.00    +0.000 OA
ATOM      6  N   UNL     1       2.422   4.144  20.648  0.00  0.00    +0.000 N 
ATOM      7  C   UNL     1       1.838   3.265  21.651  0.00  0.00    +0.000 C 
ATOM      8  N   UNL     1       1.954   5.451  20.647  0.00  0.00    +0.000 NA
ENDROOT
BRANCH   3   9
ATOM      9  N   UNL     1       4.949   4.297  17.861  0.00  0.00    +0.000 N 
ATOM     10  H   UNL     1       4.717   3.551  17.190  0.00  0.00    +0.000 HD
BRANCH   9  11
ATOM     11  C   UNL     1       5.860   5.279  17.265  0.00  0.00    +0.000 C 
BRANCH  11  12
ATOM     12  C   UNL     1       6.223   4.999  15.822  0.00  0.00    +0.000 A 
ATOM     13  N   UNL     1       7.180   5.617  15.161  0.00  0.00    +0.000 NA
ATOM     14  C   UNL     1       7.291   5.098  13.882  0.00  0.00    +0.000 A 
ATOM     15  C   UNL     1       8.342   5.650  12.990  0.00  0.00    +0.000 C 
ATOM     16  C   UNL     1       6.392   4.083  13.585  0.00  0.00    +0.000 A 
ATOM     17  C   UNL     1       6.224   3.289  12.339  0.00  0.00    +0.000 C 
ATOM     18  S   UNL     1       5.385   3.786  14.941  0.00  0.00    +0.000 S 
ENDBRANCH  11  12
ENDBRANCH   9  11
ENDBRANCH   3   9
BRANCH   1  19
ATOM     19  O   UNL     1       2.110   7.519  19.553  0.00  0.00    +0.000 OA
BRANCH  19  20
ATOM     20  C   UNL     1       1.886   8.282  20.742  0.00  0.00    +0.000 C 
BRANCH  20  23
ATOM     21  C   UNL     1       0.474  10.173  19.603  0.00  0.00    +0.000 C 
ATOM     22  C   UNL     1       0.467  10.431  21.096  0.00  0.00    +0.000 C 
ATOM     23  C   UNL     1       0.583   9.020  20.594  0.00  0.00    +0.000 C 
BRANCH  21  28
ATOM     24  C   UNL     1      -4.137  11.312  16.313  0.00  0.00    +0.000 C 
ATOM     25  C   UNL     1      -3.013  10.976  17.237  0.00  0.00    +0.000 A 
ATOM     26  C   UNL     1      -2.863  11.591  18.469  0.00  0.00    +0.000 A 
ATOM     27  C   UNL     1      -1.762  11.290  19.263  0.00  0.00    +0.000 A 
ATOM     28  C   UNL     1      -0.792  10.404  18.814  0.00  0.00    +0.000 A 
ATOM     29  N   UNL     1      -0.960   9.735  17.637  0.00  0.00    +0.000 NA
ATOM     30  C   UNL     1      -2.047  10.035  16.881  0.00  0.00    +0.000 A 
ENDBRANCH  21  28
ENDBRANCH  20  23
ENDBRANCH  19  20
ENDBRANCH   1  19
TORSDOF 7
ENDMDL
MODEL 8
REMARK VINA RESULT:      -7.9      2.409      2.920
REMARK  Name = 
REMARK  11 active torsions:
REMARK  status: ('A' for Active; 'I' for Inactive)
REMARK    1  A    between atoms: C_1  and  C_2
REMARK    2  A    between atoms: C_5  and  C_6
REMARK    3  A    between atoms: C_8  and  C_9
REMARK    4  A    between atoms: C_9  and  O_10
REMARK    5  A    between atoms: O_10  and  C_11
REMARK    6  A    between atoms: C_13  and  N_14
REMARK    7  A    between atoms: N_14  and  C_15
REMARK    8  A    between atoms: C_15  and  C_16
REMARK    9  A    between atoms: C_18  and  C_19
REMARK   10  A    between atoms: C_20  and  C_21
REMARK   11  A    between atoms: N_25  and  C_26
REMARK                            x       y       z     vdW  Elec       q    Type
REMARK                         _______ _______ _______ _____ _____    ______ ____
ROOT
ATOM      1  C   UNL     1       3.040   6.719  18.416  0.00  0.00    +0.000 A 
ATOM      2  C   UNL     1       4.398   6.737  17.894  0.00  0.00    +0.000 A 
ATOM      3  C   UNL     1       5.231   5.752  18.284  0.00  0.00    +0.000 A 
ATOM      4  C   UNL     1       4.653   4.638  19.127  0.00  0.00    +0.000 A 
ATOM      5  O   UNL     1       5.370   3.675  19.437  0.00  0.00    +0.000 OA
ATOM      6  N   UNL     1       3.311   4.749  19.496  0.00  0.00    +0.000 N 
ATOM      7  C   UNL     1       2.677   3.698  20.280  0.00  0.00    +0.000 C 
ATOM      8  N   UNL     1       2.499   5.824  19.163  0.00  0.00    +0.000 NA
ENDROOT
BRANCH   3   9
ATOM      9  N   UNL     1       6.567   5.816  17.936  0.00  0.00    +0.000 N 
ATOM     10  H   UNL     1       7.160   6.298  18.627  0.00  0.00    +0.000 HD
BRANCH   9  11
ATOM     11  C   UNL     1       7.299   4.729  17.280  0.00  0.00    +0.000 C 
BRANCH  11  12
ATOM     12  C   UNL     1       7.046   4.615  15.791  0.00  0.00    +0.000 A 
ATOM     13  N   UNL     1       7.715   5.275  14.869  0.00  0.00    +0.000 NA
ATOM     14  C   UNL     1       7.277   4.912  13.607  0.00  0.00    +0.000 A 
ATOM     15  C   UNL     1       7.937   5.532  12.429  0.00  0.00    +0.000 C 
ATOM     16  C   UNL     1       6.255   3.973  13.593  0.00  0.00    +0.000 A 
ATOM     17  C   UNL     1       5.551   3.343  12.444  0.00  0.00    +0.000 C 
ATOM     18  S   UNL     1       5.837   3.548  15.200  0.00  0.00    +0.000 S 
ENDBRANCH  11  12
ENDBRANCH   9  11
ENDBRANCH   3   9
BRANCH   1  19
ATOM     19  O   UNL     1       2.428   7.855  17.993  0.00  0.00    +0.000 OA
BRANCH  19  20
ATOM     20  C   UNL     1       1.598   8.530  18.944  0.00  0.00    +0.000 C 
BRANCH  20  23
ATOM     21  C   UNL     1       0.888  11.026  19.307  0.00  0.00    +0.000 C 
ATOM     22  C   UNL     1      -0.204  10.352  18.503  0.00  0.00    +0.000 C 
ATOM     23  C   UNL     1       1.212   9.867  18.372  0.00  0.00    +0.000 C 
BRANCH  21  28
ATOM     24  C   UNL     1       2.571  16.477  18.385  0.00  0.00    +0.000 C 
ATOM     25  C   UNL     1       2.078  15.075  18.532  0.00  0.00    +0.000 A 
ATOM     26  C   UNL     1       0.742  14.783  18.755  0.00  0.00    +0.000 A 
ATOM     27  C   UNL     1       0.346  13.464  18.951  0.00  0.00    +0.000 A 
ATOM     28  C   UNL     1       1.284  12.441  18.960  0.00  0.00    +0.000 A 
ATOM     29  N   UNL     1       2.592  12.701  18.670  0.00  0.00    +0.000 NA
ATOM     30  C   UNL     1       2.957  13.994  18.471  0.00  0.00    +0.000 A 
ENDBRANCH  21  28
ENDBRANCH  20  23
ENDBRANCH  19  20
ENDBRANCH   1  19
TORSDOF 7
ENDMDL
MODEL 9
REMARK VINA RESULT:      -7.8      5.167      8.024
REMARK  Name = 
REMARK  11 active torsions:
REMARK  status: ('A' for Active; 'I' for Inactive)
REMARK    1  A    between atoms: C_1  and  C_2
REMARK    2  A    between atoms: C_5  and  C_6
REMARK    3  A    between atoms: C_8  and  C_9
REMARK    4  A    between atoms: C_9  and  O_10
REMARK    5  A    between atoms: O_10  and  C_11
REMARK    6  A    between atoms: C_13  and  N_14
REMARK    7  A    between atoms: N_14  and  C_15
REMARK    8  A    between atoms: C_15  and  C_16
REMARK    9  A    between atoms: C_18  and  C_19
REMARK   10  A    between atoms: C_20  and  C_21
REMARK   11  A    between atoms: N_25  and  C_26
REMARK                            x       y       z     vdW  Elec       q    Type
REMARK                         _______ _______ _______ _____ _____    ______ ____
ROOT
ATOM      1  C   UNL     1       7.290   6.608  17.566  0.00  0.00    +0.000 A 
ATOM      2  C   UNL     1       6.487   5.885  18.540  0.00  0.00    +0.000 A 
ATOM      3  C   UNL     1       5.764   4.836  18.099  0.00  0.00    +0.000 A 
ATOM      4  C   UNL     1       5.945   4.416  16.658  0.00  0.00    +0.000 A 
ATOM      5  O   UNL     1       5.357   3.408  16.239  0.00  0.00    +0.000 OA
ATOM      6  N   UNL     1       6.800   5.192  15.871  0.00  0.00    +0.000 N 
ATOM      7  C   UNL     1       7.049   4.828  14.483  0.00  0.00    +0.000 C 
ATOM      8  N   UNL     1       7.458   6.327  16.324  0.00  0.00    +0.000 NA
ENDROOT
BRANCH   3   9
ATOM      9  N   UNL     1       4.871   4.219  18.956  0.00  0.00    +0.000 N 
ATOM     10  H   UNL     1       5.165   4.220  19.943  0.00  0.00    +0.000 HD
BRANCH   9  11
ATOM     11  C   UNL     1       3.414   4.322  18.838  0.00  0.00    +0.000 C 
BRANCH  11  12
ATOM     12  C   UNL     1       2.863   5.708  19.097  0.00  0.00    +0.000 A 
ATOM     13  N   UNL     1       2.871   6.689  18.218  0.00  0.00    +0.000 NA
ATOM     14  C   UNL     1       2.249   7.809  18.744  0.00  0.00    +0.000 A 
ATOM     15  C   UNL     1       2.133   9.016  17.887  0.00  0.00    +0.000 C 
ATOM     16  C   UNL     1       1.781   7.659  20.042  0.00  0.00    +0.000 A 
ATOM     17  C   UNL     1       1.060   8.623  20.916  0.00  0.00    +0.000 C 
ATOM     18  S   UNL     1       2.138   6.081  20.609  0.00  0.00    +0.000 S 
ENDBRANCH  11  12
ENDBRANCH   9  11
ENDBRANCH   3   9
BRANCH   1  19
ATOM     19  O   UNL     1       7.827   7.682  18.201  0.00  0.00    +0.000 OA
BRANCH  19  20
ATOM     20  C   UNL     1       8.338   8.730  17.371  0.00  0.00    +0.000 C 
BRANCH  20  23
ATOM     21  C   UNL     1       9.658  10.856  18.149  0.00  0.00    +0.000 C 
ATOM     22  C   UNL     1       9.305  10.058  19.387  0.00  0.00    +0.000 C 
ATOM     23  C   UNL     1       8.403   9.993  18.188  0.00  0.00    +0.000 C 
BRANCH  21  28
ATOM     24  C   UNL     1       9.165  16.609  17.930  0.00  0.00    +0.000 C 
ATOM     25  C   UNL     1       9.350  15.135  18.078  0.00  0.00    +0.000 A 
ATOM     26  C   UNL     1      10.594  14.535  17.972  0.00  0.00    +0.000 A 
ATOM     27  C   UNL     1      10.703  13.150  18.052  0.00  0.00    +0.000 A 
ATOM     28  C   UNL     1       9.569  12.362  18.199  0.00  0.00    +0.000 A 
ATOM     29  N   UNL     1       8.346  12.940  18.378  0.00  0.00    +0.000 NA
ATOM     30  C   UNL     1       8.262  14.293  18.308  0.00  0.00    +0.000 A 
ENDBRANCH  21  28
ENDBRANCH  20  23
ENDBRANCH  19  20
ENDBRANCH   1  19
TORSDOF 7
ENDMDL
