MODEL 1
REMARK VINA RESULT:      -7.4      0.000      0.000
REMARK  Name = 
REMARK  8 active torsions:
REMARK  status: ('A' for Active; 'I' for Inactive)
REMARK    1  A    between atoms: C_1  and  C_2
REMARK    2  A    between atoms: C_2  and  C_3
REMARK    3  A    between atoms: C_3  and  C_4
REMARK    4  A    between atoms: C_3  and  O_16
REMARK    5  A    between atoms: C_4  and  N_5
REMARK    6  A    between atoms: N_8  and  C_9
REMARK    7  A    between atoms: N_12  and  C_13
REMARK    8  A    between atoms: O_16  and  C_17
REMARK                            x       y       z     vdW  Elec       q    Type
REMARK                         _______ _______ _______ _____ _____    ______ ____
ROOT
ATOM      1  N   UNL     1       2.276   6.975  20.517  0.00  0.00    +0.000 N 
ATOM      2  C   UNL     1       1.544   8.139  20.429  0.00  0.00    +0.000 C 
ATOM      3  O   UNL     1       1.326   8.727  19.365  0.00  0.00    +0.000 OA
ATOM      4  N   UNL     1       1.038   8.547  21.634  0.00  0.00    +0.000 N 
ATOM      5  H   UNL     1       1.941   6.344  21.234  0.00  0.00    +0.000 HD
ATOM      6  H   UNL     1       1.620   8.344  22.435  0.00  0.00    +0.000 HD
ENDROOT
BRANCH   4   7
ATOM      7  C   UNL     1       0.174   9.728  21.704  0.00  0.00    +0.000 C 
ATOM      8  C   UNL     1       0.919  11.015  21.345  0.00  0.00    +0.000 C 
ATOM      9  C   UNL     1      -0.012  12.225  21.466  0.00  0.00    +0.000 C 
ATOM     10  N   UNL     1      -0.593  12.311  22.815  0.00  0.00    +0.000 NA
ATOM     11  C   UNL     1      -1.438  13.505  22.931  0.00  0.00    +0.000 C 
ATOM     12  C   UNL     1      -1.364  11.104  23.139  0.00  0.00    +0.000 C 
ATOM     13  C   UNL     1      -0.478   9.857  23.079  0.00  0.00    +0.000 C 
ENDBRANCH   4   7
BRANCH   1  14
ATOM     14  C   UNL     1       2.664   6.373  19.248  0.00  0.00    +0.000 C 
BRANCH  14  15
ATOM     15  C   UNL     1       3.058   4.884  19.272  0.00  0.00    +0.000 C 
BRANCH  15  17
ATOM     16  C   UNL     1       1.019   3.667  20.277  0.00  0.00    +0.000 C 
ATOM     17  C   UNL     1       2.439   4.177  20.498  0.00  0.00    +0.000 C 
ENDBRANCH  15  17
BRANCH  15  18
ATOM     18  O   UNL     1       4.491   4.720  19.377  0.00  0.00    +0.000 OA
BRANCH  18  19
ATOM     19  C   UNL     1       5.211   4.558  18.220  0.00  0.00    +0.000 A 
ATOM     20  C   UNL     1       4.703   3.900  17.096  0.00  0.00    +0.000 A 
ATOM     21  C   UNL     1       5.411   3.880  15.891  0.00  0.00    +0.000 A 
ATOM     22  C   UNL     1       6.646   4.506  15.798  0.00  0.00    +0.000 A 
ATOM     23  C   UNL     1       7.216   5.074  16.935  0.00  0.00    +0.000 A 
ATOM     24  C   UNL     1       6.519   5.060  18.153  0.00  0.00    +0.000 A 
ATOM     25 CL   UNL     1       7.350   5.631  19.557  0.00  0.00    +0.000 Cl
ENDBRANCH  18  19
ENDBRANCH  15  18
ENDBRANCH  14  15
ENDBRANCH   1  14
TORSDOF 6
ENDMDL
MODEL 2
REMARK VINA RESULT:      -7.3      5.746      7.836
REMARK  Name = 
REMARK  8 active torsions:
REMARK  status: ('A' for Active; 'I' for Inactive)
REMARK    1  A    between atoms: C_1  and  C_2
REMARK    2  A    between atoms: C_2  and  C_3
REMARK    3  A    between atoms: C_3  and  C_4
REMARK    4  A    between atoms: C_3  and  O_16
REMARK    5  A    between atoms: C_4  and  N_5
REMARK    6  A    between atoms: N_8  and  C_9
REMARK    7  A    between atoms: N_12  and  C_13
REMARK    8  A    between atoms: O_16  and  C_17
REMARK                            x       y       z     vdW  Elec       q    Type
REMARK                         _______ _______ _______ _____ _____    ______ ____
ROOT
ATOM      1  N   UNL     1       7.452   8.186  17.329  0.00  0.00    +0.000 N 
ATOM      2  C   UNL     1       8.190   9.090  18.063  0.00  0.00    +0.000 C 
ATOM      3  O   UNL     1       8.799   8.791  19.095  0.00  0.00    +0.000 OA
ATOM      4  N   UNL     1       8.222  10.338  17.502  0.00  0.00    +0.000 N 
ATOM      5  H   UNL     1       7.485   8.359  16.332  0.00  0.00    +0.000 HD
ATOM      6  H   UNL     1       7.381  10.611  17.013  0.00  0.00    +0.000 HD
ENDROOT
BRANCH   4   7
ATOM      7  C   UNL     1       9.024  11.398  18.118  0.00  0.00    +0.000 C 
ATOM      8  C   UNL     1       8.483  12.794  17.802  0.00  0.00    +0.000 C 
ATOM      9  C   UNL     1       9.371  13.869  18.434  0.00  0.00    +0.000 C 
ATOM     10  N   UNL     1      10.766  13.732  17.989  0.00  0.00    +0.000 NA
ATOM     11  C   UNL     1      11.591  14.801  18.559  0.00  0.00    +0.000 C 
ATOM     12  C   UNL     1      11.311  12.416  18.347  0.00  0.00    +0.000 C 
ATOM     13  C   UNL     1      10.491  11.292  17.709  0.00  0.00    +0.000 C 
ENDBRANCH   4   7
BRANCH   1  14
ATOM     14  C   UNL     1       7.549   6.796  17.753  0.00  0.00    +0.000 C 
BRANCH  14  15
ATOM     15  C   UNL     1       6.402   5.856  17.337  0.00  0.00    +0.000 C 
BRANCH  15  17
ATOM     16  C   UNL     1       5.901   5.169  14.902  0.00  0.00    +0.000 C 
ATOM     17  C   UNL     1       5.835   6.266  15.959  0.00  0.00    +0.000 C 
ENDBRANCH  15  17
BRANCH  15  18
ATOM     18  O   UNL     1       5.301   5.920  18.274  0.00  0.00    +0.000 OA
BRANCH  18  19
ATOM     19  C   UNL     1       4.228   5.089  18.068  0.00  0.00    +0.000 A 
ATOM     20  C   UNL     1       4.359   3.707  17.900  0.00  0.00    +0.000 A 
ATOM     21  C   UNL     1       3.235   2.880  17.835  0.00  0.00    +0.000 A 
ATOM     22  C   UNL     1       1.962   3.424  17.921  0.00  0.00    +0.000 A 
ATOM     23  C   UNL     1       1.809   4.809  17.982  0.00  0.00    +0.000 A 
ATOM     24  C   UNL     1       2.939   5.640  18.010  0.00  0.00    +0.000 A 
ATOM     25 CL   UNL     1       2.680   7.346  17.916  0.00  0.00    +0.000 Cl
ENDBRANCH  18  19
ENDBRANCH  15  18
ENDBRANCH  14  15
ENDBRANCH   1  14
TORSDOF 6
ENDMDL
MODEL 3
REMARK VINA RESULT:      -7.1      1.851      3.721
REMARK  Name = 
REMARK  8 active torsions:
REMARK  status: ('A' for Active; 'I' for Inactive)
REMARK    1  A    between atoms: C_1  and  C_2
REMARK    2  A    between atoms: C_2  and  C_3
REMARK    3  A    between atoms: C_3  and  C_4
REMARK    4  A    between atoms: C_3  and  O_16
REMARK    5  A    between atoms: C_4  and  N_5
REMARK    6  A    between atoms: N_8  and  C_9
REMARK    7  A    between atoms: N_12  and  C_13
REMARK    8  A    between atoms: O_16  and  C_17
REMARK                            x       y       z     vdW  Elec       q    Type
REMARK                         _______ _______ _______ _____ _____    ______ ____
ROOT
ATOM      1  N   UNL     1       2.708   7.031  20.042  0.00  0.00    +0.000 N 
ATOM      2  C   UNL     1       1.858   8.114  20.089  0.00  0.00    +0.000 C 
ATOM      3  O   UNL     1       1.542   8.774  19.093  0.00  0.00    +0.000 OA
ATOM      4  N   UNL     1       1.361   8.352  21.342  0.00  0.00    +0.000 N 
ATOM      5  H   UNL     1       2.466   6.303  20.703  0.00  0.00    +0.000 HD
ATOM      6  H   UNL     1       1.990   8.137  22.102  0.00  0.00    +0.000 HD
ENDROOT
BRANCH   4   7
ATOM      7  C   UNL     1       0.384   9.425  21.551  0.00  0.00    +0.000 C 
ATOM      8  C   UNL     1       0.939  10.799  21.169  0.00  0.00    +0.000 C 
ATOM      9  C   UNL     1      -0.100  11.890  21.437  0.00  0.00    +0.000 C 
ATOM     10  N   UNL     1      -0.537  11.871  22.842  0.00  0.00    +0.000 NA
ATOM     11  C   UNL     1      -1.489  12.956  23.095  0.00  0.00    +0.000 C 
ATOM     12  C   UNL     1      -1.129  10.574  23.195  0.00  0.00    +0.000 C 
ATOM     13  C   UNL     1      -0.124   9.439  22.990  0.00  0.00    +0.000 C 
ENDBRANCH   4   7
BRANCH   1  14
ATOM     14  C   UNL     1       3.106   6.594  18.710  0.00  0.00    +0.000 C 
BRANCH  14  15
ATOM     15  C   UNL     1       4.341   5.679  18.614  0.00  0.00    +0.000 C 
BRANCH  15  17
ATOM     16  C   UNL     1       6.725   6.150  17.750  0.00  0.00    +0.000 C 
ATOM     17  C   UNL     1       5.236   6.097  17.425  0.00  0.00    +0.000 C 
ENDBRANCH  15  17
BRANCH  15  18
ATOM     18  O   UNL     1       3.961   4.303  18.383  0.00  0.00    +0.000 OA
BRANCH  18  19
ATOM     19  C   UNL     1       3.111   3.707  19.281  0.00  0.00    +0.000 A 
ATOM     20  C   UNL     1       3.551   3.134  20.478  0.00  0.00    +0.000 A 
ATOM     21  C   UNL     1       2.642   2.665  21.430  0.00  0.00    +0.000 A 
ATOM     22  C   UNL     1       1.278   2.748  21.192  0.00  0.00    +0.000 A 
ATOM     23  C   UNL     1       0.822   3.217  19.961  0.00  0.00    +0.000 A 
ATOM     24  C   UNL     1       1.739   3.653  18.992  0.00  0.00    +0.000 A 
ATOM     25 CL   UNL     1       1.119   4.064  17.432  0.00  0.00    +0.000 Cl
ENDBRANCH  18  19
ENDBRANCH  15  18
ENDBRANCH  14  15
ENDBRANCH   1  14
TORSDOF 6
ENDMDL
MODEL 4
REMARK VINA RESULT:      -7.1      5.616      7.416
REMARK  Name = 
REMARK  8 active torsions:
REMARK  status: ('A' for Active; 'I' for Inactive)
REMARK    1  A    between atoms: C_1  and  C_2
REMARK    2  A    between atoms: C_2  and  C_3
REMARK    3  A    between atoms: C_3  and  C_4
REMARK    4  A    between atoms: C_3  and  O_16
REMARK    5  A    between atoms: C_4  and  N_5
REMARK    6  A    between atoms: N_8  and  C_9
REMARK    7  A    between atoms: N_12  and  C_13
REMARK    8  A    between atoms: O_16  and  C_17
REMARK                            x       y       z     vdW  Elec       q    Type
REMARK                         _______ _______ _______ _____ _____    ______ ____
ROOT
ATOM      1  N   UNL     1       7.960   7.095  18.194  0.00  0.00    +0.000 N 
ATOM      2  C   UNL     1       8.097   8.462  18.093  0.00  0.00    +0.000 C 
ATOM      3  O   UNL     1       7.481   9.149  17.270  0.00  0.00    +0.000 OA
ATOM      4  N   UNL     1       8.944   8.988  19.032  0.00  0.00    +0.000 N 
ATOM      5  H   UNL     1       8.034   6.755  19.144  0.00  0.00    +0.000 HD
ATOM      6  H   UNL     1       9.718   8.394  19.292  0.00  0.00    +0.000 HD
ENDROOT
BRANCH   4   7
ATOM      7  C   UNL     1       9.143  10.438  19.110  0.00  0.00    +0.000 C 
ATOM      8  C   UNL     1      10.243  10.924  18.164  0.00  0.00    +0.000 C 
ATOM      9  C   UNL     1      10.441  12.436  18.306  0.00  0.00    +0.000 C 
ATOM     10  N   UNL     1      10.742  12.802  19.698  0.00  0.00    +0.000 NA
ATOM     11  C   UNL     1      10.984  14.245  19.805  0.00  0.00    +0.000 C 
ATOM     12  C   UNL     1       9.658  12.394  20.601  0.00  0.00    +0.000 C 
ATOM     13  C   UNL     1       9.437  10.881  20.540  0.00  0.00    +0.000 C 
ENDBRANCH   4   7
BRANCH   1  14
ATOM     14  C   UNL     1       6.919   6.500  17.368  0.00  0.00    +0.000 C 
BRANCH  14  15
ATOM     15  C   UNL     1       6.568   5.025  17.640  0.00  0.00    +0.000 C 
BRANCH  15  17
ATOM     16  C   UNL     1       5.838   5.306  15.182  0.00  0.00    +0.000 C 
ATOM     17  C   UNL     1       5.972   4.365  16.375  0.00  0.00    +0.000 C 
ENDBRANCH  15  17
BRANCH  15  18
ATOM     18  O   UNL     1       5.570   4.903  18.680  0.00  0.00    +0.000 OA
BRANCH  18  19
ATOM     19  C   UNL     1       4.344   4.385  18.344  0.00  0.00    +0.000 A 
ATOM     20  C   UNL     1       4.095   3.011  18.270  0.00  0.00    +0.000 A 
ATOM     21  C   UNL     1       2.802   2.523  18.063  0.00  0.00    +0.000 A 
ATOM     22  C   UNL     1       1.740   3.403  17.912  0.00  0.00    +0.000 A 
ATOM     23  C   UNL     1       1.985   4.775  17.875  0.00  0.00    +0.000 A 
ATOM     24  C   UNL     1       3.290   5.261  18.047  0.00  0.00    +0.000 A 
ATOM     25 CL   UNL     1       3.548   6.956  17.825  0.00  0.00    +0.000 Cl
ENDBRANCH  18  19
ENDBRANCH  15  18
ENDBRANCH  14  15
ENDBRANCH   1  14
TORSDOF 6
ENDMDL
MODEL 5
REMARK VINA RESULT:      -7.1      2.847      4.508
REMARK  Name = 
REMARK  8 active torsions:
REMARK  status: ('A' for Active; 'I' for Inactive)
REMARK    1  A    between atoms: C_1  and  C_2
REMARK    2  A    between atoms: C_2  and  C_3
REMARK    3  A    between atoms: C_3  and  C_4
REMARK    4  A    between atoms: C_3  and  O_16
REMARK    5  A    between atoms: C_4  and  N_5
REMARK    6  A    between atoms: N_8  and  C_9
REMARK    7  A    between atoms: N_12  and  C_13
REMARK    8  A    between atoms: O_16  and  C_17
REMARK                            x       y       z     vdW  Elec       q    Type
REMARK                         _______ _______ _______ _____ _____    ______ ____
ROOT
ATOM      1  N   UNL     1       3.394   6.779  18.012  0.00  0.00    +0.000 N 
ATOM      2  C   UNL     1       2.499   7.561  18.709  0.00  0.00    +0.000 C 
ATOM      3  O   UNL     1       2.170   7.340  19.879  0.00  0.00    +0.000 OA
ATOM      4  N   UNL     1       2.051   8.636  17.989  0.00  0.00    +0.000 N 
ATOM      5  H   UNL     1       3.968   7.307  17.366  0.00  0.00    +0.000 HD
ATOM      6  H   UNL     1       1.959   8.479  16.995  0.00  0.00    +0.000 HD
ENDROOT
BRANCH   4   7
ATOM      7  C   UNL     1       1.148   9.609  18.610  0.00  0.00    +0.000 C 
ATOM      8  C   UNL     1      -0.212   9.667  17.911  0.00  0.00    +0.000 C 
ATOM      9  C   UNL     1      -1.107  10.721  18.569  0.00  0.00    +0.000 C 
ATOM     10  N   UNL     1      -0.458  12.041  18.570  0.00  0.00    +0.000 NA
ATOM     11  C   UNL     1      -1.351  13.048  19.153  0.00  0.00    +0.000 C 
ATOM     12  C   UNL     1       0.818  12.004  19.295  0.00  0.00    +0.000 C 
ATOM     13  C   UNL     1       1.780  10.998  18.660  0.00  0.00    +0.000 C 
ENDBRANCH   4   7
BRANCH   1  14
ATOM     14  C   UNL     1       4.068   5.745  18.785  0.00  0.00    +0.000 C 
BRANCH  14  15
ATOM     15  C   UNL     1       4.747   4.610  17.994  0.00  0.00    +0.000 C 
BRANCH  15  17
ATOM     16  C   UNL     1       6.165   4.713  15.843  0.00  0.00    +0.000 C 
ATOM     17  C   UNL     1       4.805   4.956  16.489  0.00  0.00    +0.000 C 
ENDBRANCH  15  17
BRANCH  15  18
ATOM     18  O   UNL     1       4.007   3.373  18.107  0.00  0.00    +0.000 OA
BRANCH  18  19
ATOM     19  C   UNL     1       3.131   3.236  19.156  0.00  0.00    +0.000 A 
ATOM     20  C   UNL     1       3.489   2.643  20.371  0.00  0.00    +0.000 A 
ATOM     21  C   UNL     1       2.615   2.650  21.461  0.00  0.00    +0.000 A 
ATOM     22  C   UNL     1       1.363   3.236  21.347  0.00  0.00    +0.000 A 
ATOM     23  C   UNL     1       0.948   3.737  20.114  0.00  0.00    +0.000 A 
ATOM     24  C   UNL     1       1.814   3.696  19.011  0.00  0.00    +0.000 A 
ATOM     25 CL   UNL     1       1.180   4.178  17.477  0.00  0.00    +0.000 Cl
ENDBRANCH  18  19
ENDBRANCH  15  18
ENDBRANCH  14  15
ENDBRANCH   1  14
TORSDOF 6
ENDMDL
MODEL 6
REMARK VINA RESULT:      -7.0      5.794      7.555
REMARK  Name = 
REMARK  8 active torsions:
REMARK  status: ('A' for Active; 'I' for Inactive)
REMARK    1  A    between atoms: C_1  and  C_2
REMARK    2  A    between atoms: C_2  and  C_3
REMARK    3  A    between atoms: C_3  and  C_4
REMARK    4  A    between atoms: C_3  and  O_16
REMARK    5  A    between atoms: C_4  and  N_5
REMARK    6  A    between atoms: N_8  and  C_9
REMARK    7  A    between atoms: N_12  and  C_13
REMARK    8  A    between atoms: O_16  and  C_17
REMARK                            x       y       z     vdW  Elec       q    Type
REMARK                         _______ _______ _______ _____ _____    ______ ____
ROOT
ATOM      1  N   UNL     1       8.173   7.796  18.260  0.00  0.00    +0.000 N 
ATOM      2  C   UNL     1       8.374   9.159  18.238  0.00  0.00    +0.000 C 
ATOM      3  O   UNL     1       7.863   9.909  17.399  0.00  0.00    +0.000 OA
ATOM      4  N   UNL     1       9.156   9.603  19.271  0.00  0.00    +0.000 N 
ATOM      5  H   UNL     1       8.149   7.411  19.196  0.00  0.00    +0.000 HD
ATOM      6  H   UNL     1       9.879   8.964  19.568  0.00  0.00    +0.000 HD
ENDROOT
BRANCH   4   7
ATOM      7  C   UNL     1       9.407  11.038  19.436  0.00  0.00    +0.000 C 
ATOM      8  C   UNL     1      10.694  11.486  18.739  0.00  0.00    +0.000 C 
ATOM      9  C   UNL     1      10.934  12.980  18.968  0.00  0.00    +0.000 C 
ATOM     10  N   UNL     1      10.975  13.296  20.404  0.00  0.00    +0.000 NA
ATOM     11  C   UNL     1      11.262  14.720  20.606  0.00  0.00    +0.000 C 
ATOM     12  C   UNL     1       9.717  12.926  21.065  0.00  0.00    +0.000 C 
ATOM     13  C   UNL     1       9.437  11.429  20.911  0.00  0.00    +0.000 C 
ENDBRANCH   4   7
BRANCH   1  14
ATOM     14  C   UNL     1       7.185   7.286  17.319  0.00  0.00    +0.000 C 
BRANCH  14  15
ATOM     15  C   UNL     1       6.131   6.309  17.873  0.00  0.00    +0.000 C 
BRANCH  15  17
ATOM     16  C   UNL     1       7.785   4.354  17.572  0.00  0.00    +0.000 C 
ATOM     17  C   UNL     1       6.812   5.072  18.500  0.00  0.00    +0.000 C 
ENDBRANCH  15  17
BRANCH  15  18
ATOM     18  O   UNL     1       5.265   5.818  16.823  0.00  0.00    +0.000 OA
BRANCH  18  19
ATOM     19  C   UNL     1       4.129   5.139  17.187  0.00  0.00    +0.000 A 
ATOM     20  C   UNL     1       3.963   3.767  16.974  0.00  0.00    +0.000 A 
ATOM     21  C   UNL     1       2.854   3.088  17.484  0.00  0.00    +0.000 A 
ATOM     22  C   UNL     1       1.886   3.773  18.204  0.00  0.00    +0.000 A 
ATOM     23  C   UNL     1       1.979   5.158  18.335  0.00  0.00    +0.000 A 
ATOM     24  C   UNL     1       3.076   5.843  17.789  0.00  0.00    +0.000 A 
ATOM     25 CL   UNL     1       3.046   7.571  17.842  0.00  0.00    +0.000 Cl
ENDBRANCH  18  19
ENDBRANCH  15  18
ENDBRANCH  14  15
ENDBRANCH   1  14
TORSDOF 6
ENDMDL
MODEL 7
REMARK VINA RESULT:      -7.0      1.455      1.614
REMARK  Name = 
REMARK  8 active torsions:
REMARK  status: ('A' for Active; 'I' for Inactive)
REMARK    1  A    between atoms: C_1  and  C_2
REMARK    2  A    between atoms: C_2  and  C_3
REMARK    3  A    between atoms: C_3  and  C_4
REMARK    4  A    between atoms: C_3  and  O_16
REMARK    5  A    between atoms: C_4  and  N_5
REMARK    6  A    between atoms: N_8  and  C_9
REMARK    7  A    between atoms: N_12  and  C_13
REMARK    8  A    between atoms: O_16  and  C_17
REMARK                            x       y       z     vdW  Elec       q    Type
REMARK                         _______ _______ _______ _____ _____    ______ ____
ROOT
ATOM      1  N   UNL     1       3.047   6.249  19.813  0.00  0.00    +0.000 N 
ATOM      2  C   UNL     1       1.914   6.788  20.381  0.00  0.00    +0.000 C 
ATOM      3  O   UNL     1       1.053   6.111  20.954  0.00  0.00    +0.000 OA
ATOM      4  N   UNL     1       1.864   8.153  20.290  0.00  0.00    +0.000 N 
ATOM      5  H   UNL     1       3.857   6.851  19.888  0.00  0.00    +0.000 HD
ATOM      6  H   UNL     1       2.278   8.543  19.456  0.00  0.00    +0.000 HD
ENDROOT
BRANCH   4   7
ATOM      7  C   UNL     1       0.759   8.889  20.910  0.00  0.00    +0.000 C 
ATOM      8  C   UNL     1       0.498  10.231  20.222  0.00  0.00    +0.000 C 
ATOM      9  C   UNL     1      -0.638  10.980  20.924  0.00  0.00    +0.000 C 
ATOM     10  N   UNL     1      -0.344  11.168  22.353  0.00  0.00    +0.000 NA
ATOM     11  C   UNL     1      -1.415  11.935  22.997  0.00  0.00    +0.000 C 
ATOM     12  C   UNL     1      -0.157   9.879  23.030  0.00  0.00    +0.000 C 
ATOM     13  C   UNL     1       0.998   9.095  22.403  0.00  0.00    +0.000 C 
ENDBRANCH   4   7
BRANCH   1  14
ATOM     14  C   UNL     1       3.266   4.830  20.058  0.00  0.00    +0.000 C 
BRANCH  14  15
ATOM     15  C   UNL     1       3.697   3.970  18.855  0.00  0.00    +0.000 C 
BRANCH  15  17
ATOM     16  C   UNL     1       2.353   1.953  17.975  0.00  0.00    +0.000 C 
ATOM     17  C   UNL     1       3.277   2.497  19.060  0.00  0.00    +0.000 C 
ENDBRANCH  15  17
BRANCH  15  18
ATOM     18  O   UNL     1       5.135   3.972  18.693  0.00  0.00    +0.000 OA
BRANCH  18  19
ATOM     19  C   UNL     1       5.646   4.280  17.457  0.00  0.00    +0.000 A 
ATOM     20  C   UNL     1       5.073   3.828  16.264  0.00  0.00    +0.000 A 
ATOM     21  C   UNL     1       5.538   4.277  15.026  0.00  0.00    +0.000 A 
ATOM     22  C   UNL     1       6.594   5.174  14.960  0.00  0.00    +0.000 A 
ATOM     23  C   UNL     1       7.247   5.554  16.132  0.00  0.00    +0.000 A 
ATOM     24  C   UNL     1       6.801   5.072  17.373  0.00  0.00    +0.000 A 
ATOM     25 CL   UNL     1       7.754   5.446  18.765  0.00  0.00    +0.000 Cl
ENDBRANCH  18  19
ENDBRANCH  15  18
ENDBRANCH  14  15
ENDBRANCH   1  14
TORSDOF 6
ENDMDL
MODEL 8
REMARK VINA RESULT:      -7.0      2.332      4.286
REMARK  Name = 
REMARK  8 active torsions:
REMARK  status: ('A' for Active; 'I' for Inactive)
REMARK    1  A    between atoms: C_1  and  C_2
REMARK    2  A    between atoms: C_2  and  C_3
REMARK    3  A    between atoms: C_3  and  C_4
REMARK    4  A    between atoms: C_3  and  O_16
REMARK    5  A    between atoms: C_4  and  N_5
REMARK    6  A    between atoms: N_8  and  C_9
REMARK    7  A    between atoms: N_12  and  C_13
REMARK    8  A    between atoms: O_16  and  C_17
REMARK                            x       y       z     vdW  Elec       q    Type
REMARK                         _______ _______ _______ _____ _____    ______ ____
ROOT
ATOM      1  N   UNL     1       4.221   6.849  17.560  0.00  0.00    +0.000 N 
ATOM      2  C   UNL     1       2.960   7.234  17.960  0.00  0.00    +0.000 C 
ATOM      3  O   UNL     1       2.071   6.434  18.268  0.00  0.00    +0.000 OA
ATOM      4  N   UNL     1       2.810   8.593  18.030  0.00  0.00    +0.000 N 
ATOM      5  H   UNL     1       4.948   7.485  17.865  0.00  0.00    +0.000 HD
ATOM      6  H   UNL     1       3.334   9.119  17.345  0.00  0.00    +0.000 HD
ENDROOT
BRANCH   4   7
ATOM      7  C   UNL     1       1.550   9.168  18.509  0.00  0.00    +0.000 C 
ATOM      8  C   UNL     1       1.443  10.664  18.208  0.00  0.00    +0.000 C 
ATOM      9  C   UNL     1       0.130  11.228  18.757  0.00  0.00    +0.000 C 
ATOM     10  N   UNL     1       0.007  10.971  20.200  0.00  0.00    +0.000 NA
ATOM     11  C   UNL     1      -1.229  11.566  20.721  0.00  0.00    +0.000 C 
ATOM     12  C   UNL     1       0.045   9.532  20.488  0.00  0.00    +0.000 C 
ATOM     13  C   UNL     1       1.356   8.911  20.001  0.00  0.00    +0.000 C 
ENDBRANCH   4   7
BRANCH   1  14
ATOM     14  C   UNL     1       4.514   5.426  17.667  0.00  0.00    +0.000 C 
BRANCH  14  15
ATOM     15  C   UNL     1       5.379   4.977  18.859  0.00  0.00    +0.000 C 
BRANCH  15  17
ATOM     16  C   UNL     1       7.803   5.820  19.106  0.00  0.00    +0.000 C 
ATOM     17  C   UNL     1       6.858   4.831  18.433  0.00  0.00    +0.000 C 
ENDBRANCH  15  17
BRANCH  15  18
ATOM     18  O   UNL     1       4.961   3.684  19.356  0.00  0.00    +0.000 OA
BRANCH  18  19
ATOM     19  C   UNL     1       3.640   3.515  19.687  0.00  0.00    +0.000 A 
ATOM     20  C   UNL     1       3.006   4.260  20.686  0.00  0.00    +0.000 A 
ATOM     21  C   UNL     1       1.628   4.159  20.896  0.00  0.00    +0.000 A 
ATOM     22  C   UNL     1       0.865   3.298  20.120  0.00  0.00    +0.000 A 
ATOM     23  C   UNL     1       1.495   2.470  19.192  0.00  0.00    +0.000 A 
ATOM     24  C   UNL     1       2.884   2.547  19.009  0.00  0.00    +0.000 A 
ATOM     25 CL   UNL     1       3.620   1.380  17.968  0.00  0.00    +0.000 Cl
ENDBRANCH  18  19
ENDBRANCH  15  18
ENDBRANCH  14  15
ENDBRANCH   1  14
TORSDOF 6
ENDMDL
MODEL 9
REMARK VINA RESULT:      -7.0      1.865      2.441
REMARK  Name = 
REMARK  8 active torsions:
REMARK  status: ('A' for Active; 'I' for Inactive)
REMARK    1  A    between atoms: C_1  and  C_2
REMARK    2  A    between atoms: C_2  and  C_3
REMARK    3  A    between atoms: C_3  and  C_4
REMARK    4  A    between atoms: C_3  and  O_16
REMARK    5  A    between atoms: C_4  and  N_5
REMARK    6  A    between atoms: N_8  and  C_9
REMARK    7  A    between atoms: N_12  and  C_13
REMARK    8  A    between atoms: O_16  and  C_17
REMARK                            x       y       z     vdW  Elec       q    Type
REMARK                         _______ _______ _______ _____ _____    ______ ____
ROOT
ATOM      1  N   UNL     1       3.184   6.022  19.920  0.00  0.00    +0.000 N 
ATOM      2  C   UNL     1       2.034   6.550  20.465  0.00  0.00    +0.000 C 
ATOM      3  O   UNL     1       1.147   5.861  20.979  0.00  0.00    +0.000 OA
ATOM      4  N   UNL     1       2.000   7.918  20.425  0.00  0.00    +0.000 N 
ATOM      5  H   UNL     1       3.996   6.613  20.048  0.00  0.00    +0.000 HD
ATOM      6  H   UNL     1       2.448   8.336  19.622  0.00  0.00    +0.000 HD
ENDROOT
BRANCH   4   7
ATOM      7  C   UNL     1       0.879   8.641  21.030  0.00  0.00    +0.000 C 
ATOM      8  C   UNL     1       0.516   9.908  20.251  0.00  0.00    +0.000 C 
ATOM      9  C   UNL     1      -0.634  10.648  20.938  0.00  0.00    +0.000 C 
ATOM     10  N   UNL     1      -0.299  10.967  22.335  0.00  0.00    +0.000 NA
ATOM     11  C   UNL     1      -1.387  11.724  22.961  0.00  0.00    +0.000 C 
ATOM     12  C   UNL     1      -0.012   9.749  23.103  0.00  0.00    +0.000 C 
ATOM     13  C   UNL     1       1.161   8.980  22.492  0.00  0.00    +0.000 C 
ENDBRANCH   4   7
BRANCH   1  14
ATOM     14  C   UNL     1       3.382   4.593  20.118  0.00  0.00    +0.000 C 
BRANCH  14  15
ATOM     15  C   UNL     1       4.037   3.810  18.965  0.00  0.00    +0.000 C 
BRANCH  15  17
ATOM     16  C   UNL     1       2.783   1.888  17.789  0.00  0.00    +0.000 C 
ATOM     17  C   UNL     1       3.603   2.327  18.997  0.00  0.00    +0.000 C 
ENDBRANCH  15  17
BRANCH  15  18
ATOM     18  O   UNL     1       5.480   3.822  19.073  0.00  0.00    +0.000 OA
BRANCH  18  19
ATOM     19  C   UNL     1       6.153   4.932  18.625  0.00  0.00    +0.000 A 
ATOM     20  C   UNL     1       7.150   5.567  19.372  0.00  0.00    +0.000 A 
ATOM     21  C   UNL     1       7.908   6.605  18.825  0.00  0.00    +0.000 A 
ATOM     22  C   UNL     1       7.670   7.034  17.527  0.00  0.00    +0.000 A 
ATOM     23  C   UNL     1       6.611   6.486  16.805  0.00  0.00    +0.000 A 
ATOM     24  C   UNL     1       5.827   5.469  17.371  0.00  0.00    +0.000 A 
ATOM     25 CL   UNL     1       4.431   4.952  16.492  0.00  0.00    +0.000 Cl
ENDBRANCH  18  19
ENDBRANCH  15  18
ENDBRANCH  14  15
ENDBRANCH   1  14
TORSDOF 6
ENDMDL
