MODEL 1
REMARK VINA RESULT:      -6.0      0.000      0.000
REMARK  Name = 
REMARK  10 active torsions:
REMARK  status: ('A' for Active; 'I' for Inactive)
REMARK    1  A    between atoms: C_1  and  C_2
REMARK    2  A    between atoms: C_2  and  C_3
REMARK    3  A    between atoms: C_3  and  C_4
REMARK    4  A    between atoms: N_6  and  CA_7
REMARK    5  A    between atoms: CA_7  and  CB_8
REMARK    6  A    between atoms: CA_7  and  C_13
REMARK    7  A    between atoms: CB_8  and  CG_9
REMARK    8  A    between atoms: CG_9  and  CD_10
REMARK    9  A    between atoms: CD_10  and  OE2_12
REMARK   10  A    between atoms: C_13  and  OXT_15
REMARK                            x       y       z     vdW  Elec       q    Type
REMARK                         _______ _______ _______ _____ _____    ______ ____
ROOT
ATOM      1  CA  GLU A   1       6.209   4.266  16.117  0.00  0.00    +0.000 C 
ENDROOT
BRANCH   1   4
ATOM      2  C   UNK A   0       7.557   5.395  17.876  0.00  0.00    +0.000 C 
ATOM      3  O   UNK A   0       8.017   4.341  18.304  0.00  0.00    +0.000 OA
ATOM      4  N   GLU A   1       6.704   5.459  16.803  0.00  0.00    +0.000 N 
ATOM      5  H   GLU A   1       6.451   6.365  16.419  0.00  0.00    +0.000 HD
BRANCH   2   6
ATOM      6  C   UNK A   0       7.884   6.735  18.502  0.00  0.00    +0.000 C 
BRANCH   6   8
ATOM      7  C   UNK A   0       8.302   9.203  18.071  0.00  0.00    +0.000 C 
ATOM      8  C   UNK A   0       7.702   7.909  17.540  0.00  0.00    +0.000 C 
ENDBRANCH   6   8
ENDBRANCH   2   6
ENDBRANCH   1   4
BRANCH   1   9
ATOM      9  C   GLU A   1       6.640   4.392  14.653  0.00  0.00    +0.000 C 
ATOM     10  O   GLU A   1       7.280   5.344  14.220  0.00  0.00    +0.000 OA
BRANCH   9  11
ATOM     11  OXT GLU A   1       6.305   3.340  13.877  0.00  0.00    +0.000 OA
ATOM     12  HXT GLU A   1       6.364   2.465  14.317  0.00  0.00    +0.000 HD
ENDBRANCH   9  11
ENDBRANCH   1   9
BRANCH   1  13
ATOM     13  CB  GLU A   1       4.674   4.157  16.210  0.00  0.00    +0.000 C 
BRANCH  13  14
ATOM     14  CG  GLU A   1       4.140   3.912  17.617  0.00  0.00    +0.000 C 
BRANCH  14  15
ATOM     15  CD  GLU A   1       3.306   2.658  17.658  0.00  0.00    +0.000 C 
ATOM     16  OE1 GLU A   1       2.114   2.663  17.403  0.00  0.00    +0.000 OA
BRANCH  15  17
ATOM     17  OE2 GLU A   1       4.011   1.536  17.899  0.00  0.00    +0.000 OA
ATOM     18  HE2 GLU A   1       4.753   1.377  17.284  0.00  0.00    +0.000 HD
ENDBRANCH  15  17
ENDBRANCH  14  15
ENDBRANCH  13  14
ENDBRANCH   1  13
TORSDOF 9
ENDMDL
MODEL 2
REMARK VINA RESULT:      -5.9      2.792      3.953
REMARK  Name = 
REMARK  10 active torsions:
REMARK  status: ('A' for Active; 'I' for Inactive)
REMARK    1  A    between atoms: C_1  and  C_2
REMARK    2  A    between atoms: C_2  and  C_3
REMARK    3  A    between atoms: C_3  and  C_4
REMARK    4  A    between atoms: N_6  and  CA_7
REMARK    5  A    between atoms: CA_7  and  CB_8
REMARK    6  A    between atoms: CA_7  and  C_13
REMARK    7  A    between atoms: CB_8  and  CG_9
REMARK    8  A    between atoms: CG_9  and  CD_10
REMARK    9  A    between atoms: CD_10  and  OE2_12
REMARK   10  A    between atoms: C_13  and  OXT_15
REMARK                            x       y       z     vdW  Elec       q    Type
REMARK                         _______ _______ _______ _____ _____    ______ ____
ROOT
ATOM      1  CA  GLU A   1       4.205   4.329  19.452  0.00  0.00    +0.000 C 
ENDROOT
BRANCH   1   4
ATOM      2  C   UNK A   0       6.399   5.267  18.752  0.00  0.00    +0.000 C 
ATOM      3  O   UNK A   0       6.880   5.177  19.876  0.00  0.00    +0.000 OA
ATOM      4  N   GLU A   1       5.128   4.851  18.446  0.00  0.00    +0.000 N 
ATOM      5  H   GLU A   1       4.825   4.839  17.475  0.00  0.00    +0.000 HD
BRANCH   2   6
ATOM      6  C   UNK A   0       7.167   5.856  17.587  0.00  0.00    +0.000 C 
BRANCH   6   8
ATOM      7  C   UNK A   0       7.938   8.265  17.821  0.00  0.00    +0.000 C 
ATOM      8  C   UNK A   0       6.842   7.328  17.333  0.00  0.00    +0.000 C 
ENDBRANCH   6   8
ENDBRANCH   2   6
ENDBRANCH   1   4
BRANCH   1   9
ATOM      9  C   GLU A   1       4.273   2.802  19.360  0.00  0.00    +0.000 C 
ATOM     10  O   GLU A   1       3.570   2.143  18.602  0.00  0.00    +0.000 OA
BRANCH   9  11
ATOM     11  OXT GLU A   1       5.212   2.234  20.145  0.00  0.00    +0.000 OA
ATOM     12  HXT GLU A   1       5.140   1.259  20.237  0.00  0.00    +0.000 HD
ENDBRANCH   9  11
ENDBRANCH   1   9
BRANCH   1  13
ATOM     13  CB  GLU A   1       2.762   4.812  19.201  0.00  0.00    +0.000 C 
BRANCH  13  14
ATOM     14  CG  GLU A   1       1.943   5.050  20.465  0.00  0.00    +0.000 C 
BRANCH  14  15
ATOM     15  CD  GLU A   1       1.515   3.742  21.075  0.00  0.00    +0.000 C 
ATOM     16  OE1 GLU A   1       2.032   3.297  22.085  0.00  0.00    +0.000 OA
BRANCH  15  17
ATOM     17  OE2 GLU A   1       0.457   3.171  20.466  0.00  0.00    +0.000 OA
ATOM     18  HE2 GLU A   1       0.666   2.699  19.637  0.00  0.00    +0.000 HD
ENDBRANCH  15  17
ENDBRANCH  14  15
ENDBRANCH  13  14
ENDBRANCH   1  13
TORSDOF 9
ENDMDL
MODEL 3
REMARK VINA RESULT:      -5.9      2.330      3.933
REMARK  Name = 
REMARK  10 active torsions:
REMARK  status: ('A' for Active; 'I' for Inactive)
REMARK    1  A    between atoms: C_1  and  C_2
REMARK    2  A    between atoms: C_2  and  C_3
REMARK    3  A    between atoms: C_3  and  C_4
REMARK    4  A    between atoms: N_6  and  CA_7
REMARK    5  A    between atoms: CA_7  and  CB_8
REMARK    6  A    between atoms: CA_7  and  C_13
REMARK    7  A    between atoms: CB_8  and  CG_9
REMARK    8  A    between atoms: CG_9  and  CD_10
REMARK    9  A    between atoms: CD_10  and  OE2_12
REMARK   10  A    between atoms: C_13  and  OXT_15
REMARK                            x       y       z     vdW  Elec       q    Type
REMARK                         _______ _______ _______ _____ _____    ______ ____
ROOT
ATOM      1  CA  GLU A   1       5.153   5.394  17.924  0.00  0.00    +0.000 C 
ENDROOT
BRANCH   1   4
ATOM      2  C   UNK A   0       6.777   5.445  16.041  0.00  0.00    +0.000 C 
ATOM      3  O   UNK A   0       7.424   6.366  16.527  0.00  0.00    +0.000 OA
ATOM      4  N   GLU A   1       5.686   4.888  16.661  0.00  0.00    +0.000 N 
ATOM      5  H   GLU A   1       5.263   4.051  16.270  0.00  0.00    +0.000 HD
BRANCH   2   6
ATOM      6  C   UNK A   0       7.120   4.834  14.699  0.00  0.00    +0.000 C 
BRANCH   6   8
ATOM      7  C   UNK A   0       6.147   3.588  12.710  0.00  0.00    +0.000 C 
ATOM      8  C   UNK A   0       6.078   3.827  14.211  0.00  0.00    +0.000 C 
ENDBRANCH   6   8
ENDBRANCH   2   6
ENDBRANCH   1   4
BRANCH   1   9
ATOM      9  C   GLU A   1       5.935   4.696  19.041  0.00  0.00    +0.000 C 
ATOM     10  O   GLU A   1       6.749   5.272  19.753  0.00  0.00    +0.000 OA
BRANCH   9  11
ATOM     11  OXT GLU A   1       5.619   3.395  19.219  0.00  0.00    +0.000 OA
ATOM     12  HXT GLU A   1       4.686   3.226  19.472  0.00  0.00    +0.000 HD
ENDBRANCH   9  11
ENDBRANCH   1   9
BRANCH   1  13
ATOM     13  CB  GLU A   1       3.648   5.093  18.064  0.00  0.00    +0.000 C 
BRANCH  13  14
ATOM     14  CG  GLU A   1       3.104   4.091  17.051  0.00  0.00    +0.000 C 
BRANCH  14  15
ATOM     15  CD  GLU A   1       2.518   2.893  17.751  0.00  0.00    +0.000 C 
ATOM     16  OE1 GLU A   1       3.193   1.926  18.055  0.00  0.00    +0.000 OA
BRANCH  15  17
ATOM     17  OE2 GLU A   1       1.222   3.034  18.091  0.00  0.00    +0.000 OA
ATOM     18  HE2 GLU A   1       0.853   2.298  18.616  0.00  0.00    +0.000 HD
ENDBRANCH  15  17
ENDBRANCH  14  15
ENDBRANCH  13  14
ENDBRANCH   1  13
TORSDOF 9
ENDMDL
MODEL 4
REMARK VINA RESULT:      -5.8      2.513      3.711
REMARK  Name = 
REMARK  10 active torsions:
REMARK  status: ('A' for Active; 'I' for Inactive)
REMARK    1  A    between atoms: C_1  and  C_2
REMARK    2  A    between atoms: C_2  and  C_3
REMARK    3  A    between atoms: C_3  and  C_4
REMARK    4  A    between atoms: N_6  and  CA_7
REMARK    5  A    between atoms: CA_7  and  CB_8
REMARK    6  A    between atoms: CA_7  and  C_13
REMARK    7  A    between atoms: CB_8  and  CG_9
REMARK    8  A    between atoms: CG_9  and  CD_10
REMARK    9  A    between atoms: CD_10  and  OE2_12
REMARK   10  A    between atoms: C_13  and  OXT_15
REMARK                            x       y       z     vdW  Elec       q    Type
REMARK                         _______ _______ _______ _____ _____    ______ ____
ROOT
ATOM      1  CA  GLU A   1       3.456   4.307  18.687  0.00  0.00    +0.000 C 
ENDROOT
BRANCH   1   4
ATOM      2  C   UNK A   0       5.621   5.380  18.097  0.00  0.00    +0.000 C 
ATOM      3  O   UNK A   0       6.278   4.599  18.777  0.00  0.00    +0.000 OA
ATOM      4  N   GLU A   1       4.257   5.295  17.967  0.00  0.00    +0.000 N 
ATOM      5  H   GLU A   1       3.781   5.894  17.298  0.00  0.00    +0.000 HD
BRANCH   2   6
ATOM      6  C   UNK A   0       6.257   6.526  17.337  0.00  0.00    +0.000 C 
BRANCH   6   8
ATOM      7  C   UNK A   0       7.898   8.428  17.717  0.00  0.00    +0.000 C 
ATOM      8  C   UNK A   0       7.614   6.944  17.902  0.00  0.00    +0.000 C 
ENDBRANCH   6   8
ENDBRANCH   2   6
ENDBRANCH   1   4
BRANCH   1   9
ATOM      9  C   GLU A   1       3.215   3.148  17.716  0.00  0.00    +0.000 C 
ATOM     10  O   GLU A   1       2.185   3.021  17.063  0.00  0.00    +0.000 OA
BRANCH   9  11
ATOM     11  OXT GLU A   1       4.253   2.294  17.591  0.00  0.00    +0.000 OA
ATOM     12  HXT GLU A   1       4.278   1.792  16.748  0.00  0.00    +0.000 HD
ENDBRANCH   9  11
ENDBRANCH   1   9
BRANCH   1  13
ATOM     13  CB  GLU A   1       2.111   4.899  19.151  0.00  0.00    +0.000 C 
BRANCH  13  14
ATOM     14  CG  GLU A   1       1.899   4.887  20.661  0.00  0.00    +0.000 C 
BRANCH  14  15
ATOM     15  CD  GLU A   1       1.452   3.526  21.124  0.00  0.00    +0.000 C 
ATOM     16  OE1 GLU A   1       1.894   3.007  22.134  0.00  0.00    +0.000 OA
BRANCH  15  17
ATOM     17  OE2 GLU A   1       0.461   2.991  20.384  0.00  0.00    +0.000 OA
ATOM     18  HE2 GLU A   1       0.106   3.576  19.688  0.00  0.00    +0.000 HD
ENDBRANCH  15  17
ENDBRANCH  14  15
ENDBRANCH  13  14
ENDBRANCH   1  13
TORSDOF 9
ENDMDL
MODEL 5
REMARK VINA RESULT:      -5.8      2.380      5.443
REMARK  Name = 
REMARK  10 active torsions:
REMARK  status: ('A' for Active; 'I' for Inactive)
REMARK    1  A    between atoms: C_1  and  C_2
REMARK    2  A    between atoms: C_2  and  C_3
REMARK    3  A    between atoms: C_3  and  C_4
REMARK    4  A    between atoms: N_6  and  CA_7
REMARK    5  A    between atoms: CA_7  and  CB_8
REMARK    6  A    between atoms: CA_7  and  C_13
REMARK    7  A    between atoms: CB_8  and  CG_9
REMARK    8  A    between atoms: CG_9  and  CD_10
REMARK    9  A    between atoms: CD_10  and  OE2_12
REMARK   10  A    between atoms: C_13  and  OXT_15
REMARK                            x       y       z     vdW  Elec       q    Type
REMARK                         _______ _______ _______ _____ _____    ______ ____
ROOT
ATOM      1  CA  GLU A   1       5.811   5.152  18.421  0.00  0.00    +0.000 C 
ENDROOT
BRANCH   1   4
ATOM      2  C   UNK A   0       3.647   4.485  19.450  0.00  0.00    +0.000 C 
ATOM      3  O   UNK A   0       3.535   3.488  18.746  0.00  0.00    +0.000 OA
ATOM      4  N   GLU A   1       4.729   5.329  19.387  0.00  0.00    +0.000 N 
ATOM      5  H   GLU A   1       4.825   6.070  20.075  0.00  0.00    +0.000 HD
BRANCH   2   6
ATOM      6  C   UNK A   0       2.592   4.888  20.459  0.00  0.00    +0.000 C 
BRANCH   6   8
ATOM      7  C   UNK A   0       1.476   2.844  21.477  0.00  0.00    +0.000 C 
ATOM      8  C   UNK A   0       1.372   3.967  20.454  0.00  0.00    +0.000 C 
ENDBRANCH   6   8
ENDBRANCH   2   6
ENDBRANCH   1   4
BRANCH   1   9
ATOM      9  C   GLU A   1       7.083   5.690  19.084  0.00  0.00    +0.000 C 
ATOM     10  O   GLU A   1       7.458   5.343  20.198  0.00  0.00    +0.000 OA
BRANCH   9  11
ATOM     11  OXT GLU A   1       7.795   6.545  18.320  0.00  0.00    +0.000 OA
ATOM     12  HXT GLU A   1       8.709   6.718  18.635  0.00  0.00    +0.000 HD
ENDBRANCH   9  11
ENDBRANCH   1   9
BRANCH   1  13
ATOM     13  CB  GLU A   1       5.531   5.917  17.112  0.00  0.00    +0.000 C 
BRANCH  13  14
ATOM     14  CG  GLU A   1       5.271   5.029  15.901  0.00  0.00    +0.000 C 
BRANCH  14  15
ATOM     15  CD  GLU A   1       6.524   4.867  15.082  0.00  0.00    +0.000 C 
ATOM     16  OE1 GLU A   1       6.574   4.131  14.112  0.00  0.00    +0.000 OA
BRANCH  15  17
ATOM     17  OE2 GLU A   1       7.535   5.675  15.456  0.00  0.00    +0.000 OA
ATOM     18  HE2 GLU A   1       7.931   5.463  16.324  0.00  0.00    +0.000 HD
ENDBRANCH  15  17
ENDBRANCH  14  15
ENDBRANCH  13  14
ENDBRANCH   1  13
TORSDOF 9
ENDMDL
MODEL 6
REMARK VINA RESULT:      -5.8      2.869      4.421
REMARK  Name = 
REMARK  10 active torsions:
REMARK  status: ('A' for Active; 'I' for Inactive)
REMARK    1  A    between atoms: C_1  and  C_2
REMARK    2  A    between atoms: C_2  and  C_3
REMARK    3  A    between atoms: C_3  and  C_4
REMARK    4  A    between atoms: N_6  and  CA_7
REMARK    5  A    between atoms: CA_7  and  CB_8
REMARK    6  A    between atoms: CA_7  and  C_13
REMARK    7  A    between atoms: CB_8  and  CG_9
REMARK    8  A    between atoms: CG_9  and  CD_10
REMARK    9  A    between atoms: CD_10  and  OE2_12
REMARK   10  A    between atoms: C_13  and  OXT_15
REMARK                            x       y       z     vdW  Elec       q    Type
REMARK                         _______ _______ _______ _____ _____    ______ ____
ROOT
ATOM      1  CA  GLU A   1       4.596   3.757  19.272  0.00  0.00    +0.000 C 
ENDROOT
BRANCH   1   4
ATOM      2  C   UNK A   0       6.524   4.465  17.870  0.00  0.00    +0.000 C 
ATOM      3  O   UNK A   0       7.175   4.857  18.833  0.00  0.00    +0.000 OA
ATOM      4  N   GLU A   1       5.284   3.889  17.989  0.00  0.00    +0.000 N 
ATOM      5  H   GLU A   1       4.844   3.476  17.172  0.00  0.00    +0.000 HD
BRANCH   2   6
ATOM      6  C   UNK A   0       7.028   4.588  16.447  0.00  0.00    +0.000 C 
BRANCH   6   8
ATOM      7  C   UNK A   0       6.042   4.051  14.168  0.00  0.00    +0.000 C 
ATOM      8  C   UNK A   0       5.918   4.881  15.438  0.00  0.00    +0.000 C 
ENDBRANCH   6   8
ENDBRANCH   2   6
ENDBRANCH   1   4
BRANCH   1   9
ATOM      9  C   GLU A   1       4.575   2.262  19.606  0.00  0.00    +0.000 C 
ATOM     10  O   GLU A   1       4.950   1.808  20.680  0.00  0.00    +0.000 OA
BRANCH   9  11
ATOM     11  OXT GLU A   1       4.057   1.478  18.636  0.00  0.00    +0.000 OA
ATOM     12  HXT GLU A   1       4.720   1.041  18.058  0.00  0.00    +0.000 HD
ENDBRANCH   9  11
ENDBRANCH   1   9
BRANCH   1  13
ATOM     13  CB  GLU A   1       3.157   4.305  19.201  0.00  0.00    +0.000 C 
BRANCH  13  14
ATOM     14  CG  GLU A   1       2.557   4.689  20.549  0.00  0.00    +0.000 C 
BRANCH  14  15
ATOM     15  CD  GLU A   1       1.828   3.521  21.159  0.00  0.00    +0.000 C 
ATOM     16  OE1 GLU A   1       0.820   3.053  20.659  0.00  0.00    +0.000 OA
BRANCH  15  17
ATOM     17  OE2 GLU A   1       2.443   2.989  22.233  0.00  0.00    +0.000 OA
ATOM     18  HE2 GLU A   1       3.210   3.497  22.561  0.00  0.00    +0.000 HD
ENDBRANCH  15  17
ENDBRANCH  14  15
ENDBRANCH  13  14
ENDBRANCH   1  13
TORSDOF 9
ENDMDL
MODEL 7
REMARK VINA RESULT:      -5.8      1.762      2.242
REMARK  Name = 
REMARK  10 active torsions:
REMARK  status: ('A' for Active; 'I' for Inactive)
REMARK    1  A    between atoms: C_1  and  C_2
REMARK    2  A    between atoms: C_2  and  C_3
REMARK    3  A    between atoms: C_3  and  C_4
REMARK    4  A    between atoms: N_6  and  CA_7
REMARK    5  A    between atoms: CA_7  and  CB_8
REMARK    6  A    between atoms: CA_7  and  C_13
REMARK    7  A    between atoms: CB_8  and  CG_9
REMARK    8  A    between atoms: CG_9  and  CD_10
REMARK    9  A    between atoms: CD_10  and  OE2_12
REMARK   10  A    between atoms: C_13  and  OXT_15
REMARK                            x       y       z     vdW  Elec       q    Type
REMARK                         _______ _______ _______ _____ _____    ______ ____
ROOT
ATOM      1  CA  GLU A   1       6.238   5.570  16.524  0.00  0.00    +0.000 C 
ENDROOT
BRANCH   1   4
ATOM      2  C   UNK A   0       7.549   7.357  17.653  0.00  0.00    +0.000 C 
ATOM      3  O   UNK A   0       7.922   6.615  18.556  0.00  0.00    +0.000 OA
ATOM      4  N   GLU A   1       6.763   6.932  16.611  0.00  0.00    +0.000 N 
ATOM      5  H   GLU A   1       6.584   7.558  15.832  0.00  0.00    +0.000 HD
BRANCH   2   6
ATOM      6  C   UNK A   0       7.919   8.824  17.605  0.00  0.00    +0.000 C 
BRANCH   6   8
ATOM      7  C   UNK A   0       9.325  10.681  18.621  0.00  0.00    +0.000 C 
ATOM      8  C   UNK A   0       8.793   9.264  18.781  0.00  0.00    +0.000 C 
ENDBRANCH   6   8
ENDBRANCH   2   6
ENDBRANCH   1   4
BRANCH   1   9
ATOM      9  C   GLU A   1       6.590   5.054  15.126  0.00  0.00    +0.000 C 
ATOM     10  O   GLU A   1       5.814   4.405  14.434  0.00  0.00    +0.000 OA
BRANCH   9  11
ATOM     11  OXT GLU A   1       7.814   5.415  14.686  0.00  0.00    +0.000 OA
ATOM     12  HXT GLU A   1       7.953   6.383  14.596  0.00  0.00    +0.000 HD
ENDBRANCH   9  11
ENDBRANCH   1   9
BRANCH   1  13
ATOM     13  CB  GLU A   1       4.711   5.539  16.732  0.00  0.00    +0.000 C 
BRANCH  13  14
ATOM     14  CG  GLU A   1       4.217   4.420  17.642  0.00  0.00    +0.000 C 
BRANCH  14  15
ATOM     15  CD  GLU A   1       4.981   4.415  18.940  0.00  0.00    +0.000 C 
ATOM     16  OE1 GLU A   1       5.004   5.381  19.683  0.00  0.00    +0.000 OA
BRANCH  15  17
ATOM     17  OE2 GLU A   1       5.542   3.228  19.244  0.00  0.00    +0.000 OA
ATOM     18  HE2 GLU A   1       5.197   2.468  18.737  0.00  0.00    +0.000 HD
ENDBRANCH  15  17
ENDBRANCH  14  15
ENDBRANCH  13  14
ENDBRANCH   1  13
TORSDOF 9
ENDMDL
MODEL 8
REMARK VINA RESULT:      -5.8      2.390      5.826
REMARK  Name = 
REMARK  10 active torsions:
REMARK  status: ('A' for Active; 'I' for Inactive)
REMARK    1  A    between atoms: C_1  and  C_2
REMARK    2  A    between atoms: C_2  and  C_3
REMARK    3  A    between atoms: C_3  and  C_4
REMARK    4  A    between atoms: N_6  and  CA_7
REMARK    5  A    between atoms: CA_7  and  CB_8
REMARK    6  A    between atoms: CA_7  and  C_13
REMARK    7  A    between atoms: CB_8  and  CG_9
REMARK    8  A    between atoms: CG_9  and  CD_10
REMARK    9  A    between atoms: CD_10  and  OE2_12
REMARK   10  A    between atoms: C_13  and  OXT_15
REMARK                            x       y       z     vdW  Elec       q    Type
REMARK                         _______ _______ _______ _____ _____    ______ ____
ROOT
ATOM      1  CA  GLU A   1       4.612   3.826  18.035  0.00  0.00    +0.000 C 
ENDROOT
BRANCH   1   4
ATOM      2  C   UNK A   0       2.775   2.248  18.600  0.00  0.00    +0.000 C 
ATOM      3  O   UNK A   0       3.484   1.257  18.464  0.00  0.00    +0.000 OA
ATOM      4  N   GLU A   1       3.241   3.530  18.446  0.00  0.00    +0.000 N 
ATOM      5  H   GLU A   1       2.640   4.313  18.687  0.00  0.00    +0.000 HD
BRANCH   2   6
ATOM      6  C   UNK A   0       1.304   2.151  18.946  0.00  0.00    +0.000 C 
BRANCH   6   8
ATOM      7  C   UNK A   0       1.400   2.762  21.410  0.00  0.00    +0.000 C 
ATOM      8  C   UNK A   0       0.873   3.137  20.032  0.00  0.00    +0.000 C 
ENDBRANCH   6   8
ENDBRANCH   2   6
ENDBRANCH   1   4
BRANCH   1   9
ATOM      9  C   GLU A   1       5.163   4.840  19.042  0.00  0.00    +0.000 C 
ATOM     10  O   GLU A   1       4.478   5.715  19.558  0.00  0.00    +0.000 OA
BRANCH   9  11
ATOM     11  OXT GLU A   1       6.462   4.663  19.362  0.00  0.00    +0.000 OA
ATOM     12  HXT GLU A   1       6.900   5.444  19.765  0.00  0.00    +0.000 HD
ENDBRANCH   9  11
ENDBRANCH   1   9
BRANCH   1  13
ATOM     13  CB  GLU A   1       4.661   4.414  16.610  0.00  0.00    +0.000 C 
BRANCH  13  14
ATOM     14  CG  GLU A   1       5.760   5.446  16.386  0.00  0.00    +0.000 C 
BRANCH  14  15
ATOM     15  CD  GLU A   1       6.995   4.794  15.823  0.00  0.00    +0.000 C 
ATOM     16  OE1 GLU A   1       7.190   4.703  14.623  0.00  0.00    +0.000 OA
BRANCH  15  17
ATOM     17  OE2 GLU A   1       7.893   4.418  16.754  0.00  0.00    +0.000 OA
ATOM     18  HE2 GLU A   1       7.948   5.005  17.532  0.00  0.00    +0.000 HD
ENDBRANCH  15  17
ENDBRANCH  14  15
ENDBRANCH  13  14
ENDBRANCH   1  13
TORSDOF 9
ENDMDL
MODEL 9
REMARK VINA RESULT:      -5.8      2.560      5.899
REMARK  Name = 
REMARK  10 active torsions:
REMARK  status: ('A' for Active; 'I' for Inactive)
REMARK    1  A    between atoms: C_1  and  C_2
REMARK    2  A    between atoms: C_2  and  C_3
REMARK    3  A    between atoms: C_3  and  C_4
REMARK    4  A    between atoms: N_6  and  CA_7
REMARK    5  A    between atoms: CA_7  and  CB_8
REMARK    6  A    between atoms: CA_7  and  C_13
REMARK    7  A    between atoms: CB_8  and  CG_9
REMARK    8  A    between atoms: CG_9  and  CD_10
REMARK    9  A    between atoms: CD_10  and  OE2_12
REMARK   10  A    between atoms: C_13  and  OXT_15
REMARK                            x       y       z     vdW  Elec       q    Type
REMARK                         _______ _______ _______ _____ _____    ______ ____
ROOT
ATOM      1  CA  GLU A   1       4.601   3.850  18.155  0.00  0.00    +0.000 C 
ENDROOT
BRANCH   1   4
ATOM      2  C   UNK A   0       2.751   2.280  18.701  0.00  0.00    +0.000 C 
ATOM      3  O   UNK A   0       3.424   1.284  18.455  0.00  0.00    +0.000 OA
ATOM      4  N   GLU A   1       3.245   3.558  18.617  0.00  0.00    +0.000 N 
ATOM      5  H   GLU A   1       2.680   4.335  18.946  0.00  0.00    +0.000 HD
BRANCH   2   6
ATOM      6  C   UNK A   0       1.298   2.193  19.118  0.00  0.00    +0.000 C 
BRANCH   6   8
ATOM      7  C   UNK A   0       1.503   2.692  21.600  0.00  0.00    +0.000 C 
ATOM      8  C   UNK A   0       0.940   3.144  20.260  0.00  0.00    +0.000 C 
ENDBRANCH   6   8
ENDBRANCH   2   6
ENDBRANCH   1   4
BRANCH   1   9
ATOM      9  C   GLU A   1       5.200   4.844  19.154  0.00  0.00    +0.000 C 
ATOM     10  O   GLU A   1       6.404   4.953  19.354  0.00  0.00    +0.000 OA
BRANCH   9  11
ATOM     11  OXT GLU A   1       4.296   5.637  19.767  0.00  0.00    +0.000 OA
ATOM     12  HXT GLU A   1       3.676   6.101  19.164  0.00  0.00    +0.000 HD
ENDBRANCH   9  11
ENDBRANCH   1   9
BRANCH   1  13
ATOM     13  CB  GLU A   1       4.597   4.459  16.739  0.00  0.00    +0.000 C 
BRANCH  13  14
ATOM     14  CG  GLU A   1       5.827   4.128  15.901  0.00  0.00    +0.000 C 
BRANCH  14  15
ATOM     15  CD  GLU A   1       6.364   5.366  15.233  0.00  0.00    +0.000 C 
ATOM     16  OE1 GLU A   1       5.701   6.382  15.122  0.00  0.00    +0.000 OA
BRANCH  15  17
ATOM     17  OE2 GLU A   1       7.657   5.276  14.866  0.00  0.00    +0.000 OA
ATOM     18  HE2 GLU A   1       8.300   5.407  15.589  0.00  0.00    +0.000 HD
ENDBRANCH  15  17
ENDBRANCH  14  15
ENDBRANCH  13  14
ENDBRANCH   1  13
TORSDOF 9
ENDMDL
