MODEL 1
REMARK VINA RESULT:      -9.7      0.000      0.000
REMARK  Name = 
REMARK  9 active torsions:
REMARK  status: ('A' for Active; 'I' for Inactive)
REMARK    1  A    between atoms: C_1  and  C_2
REMARK    2  A    between atoms: C_5  and  N_6
REMARK    3  A    between atoms: N_6  and  C_7
REMARK    4  A    between atoms: C_7  and  C_8
REMARK    5  A    between atoms: N_12  and  C_13
REMARK    6  A    between atoms: C_13  and  C_14
REMARK    7  A    between atoms: C_17  and  C_18
REMARK    8  A    between atoms: C_25  and  N_26
REMARK    9  A    between atoms: C_28  and  C_29
REMARK                            x       y       z     vdW  Elec       q    Type
REMARK                         _______ _______ _______ _____ _____    ______ ____
ROOT
ATOM      1  C   UNL     1       1.169   9.043  21.189  0.00  0.00    +0.000 A 
ATOM      2  C   UNL     1       1.090   9.129  22.566  0.00  0.00    +0.000 A 
ATOM      3  N   UNL     1       0.494  10.297  22.958  0.00  0.00    +0.000 NA
ATOM      4  C   UNL     1       0.200  10.921  21.842  0.00  0.00    +0.000 A 
ATOM      5  N   UNL     1       0.547  10.184  20.740  0.00  0.00    +0.000 N 
ENDROOT
BRANCH   1   6
ATOM      6  C   UNL     1       1.750   7.981  20.327  0.00  0.00    +0.000 C 
BRANCH   6   7
ATOM      7  N   UNL     1       1.600   6.649  20.898  0.00  0.00    +0.000 N 
ATOM      8  H   UNL     1       0.708   6.513  21.365  0.00  0.00    +0.000 HD
BRANCH   7  13
ATOM      9  C   UNL     1       3.589   1.733  18.735  0.00  0.00    +0.000 C 
ATOM     10  C   UNL     1       3.080   3.092  19.143  0.00  0.00    +0.000 A 
ATOM     11  C   UNL     1       1.903   3.111  19.921  0.00  0.00    +0.000 A 
ATOM     12  C   UNL     1       1.402   4.299  20.455  0.00  0.00    +0.000 A 
ATOM     13  C   UNL     1       2.029   5.517  20.207  0.00  0.00    +0.000 A 
ATOM     14  C   UNL     1       3.159   5.494  19.376  0.00  0.00    +0.000 A 
ATOM     15  C   UNL     1       3.719   4.312  18.815  0.00  0.00    +0.000 A 
BRANCH  15  16
ATOM     16  C   UNL     1       4.947   4.444  17.970  0.00  0.00    +0.000 A 
ATOM     17  C   UNL     1       6.165   4.913  18.504  0.00  0.00    +0.000 A 
ATOM     18  F   UNL     1       6.267   5.226  19.806  0.00  0.00    +0.000 F 
ATOM     19  C   UNL     1       7.322   5.090  17.733  0.00  0.00    +0.000 A 
ATOM     20  C   UNL     1       7.316   4.752  16.389  0.00  0.00    +0.000 A 
ATOM     21  C   UNL     1       6.138   4.283  15.819  0.00  0.00    +0.000 A 
ATOM     22  C   UNL     1       4.975   4.172  16.593  0.00  0.00    +0.000 A 
ATOM     23  F   UNL     1       3.858   3.830  15.936  0.00  0.00    +0.000 F 
ENDBRANCH  15  16
ENDBRANCH   7  13
ENDBRANCH   6   7
ENDBRANCH   1   6
BRANCH   5  24
ATOM     24  C   UNL     1       0.316  10.602  19.365  0.00  0.00    +0.000 C 
BRANCH  24  25
ATOM     25  C   UNL     1      -1.116  11.047  19.121  0.00  0.00    +0.000 A 
ATOM     26  C   UNL     1      -1.736  11.873  20.082  0.00  0.00    +0.000 A 
ATOM     27  C   UNL     1      -3.042  12.341  19.913  0.00  0.00    +0.000 A 
ATOM     28  C   UNL     1      -3.787  12.008  18.779  0.00  0.00    +0.000 A 
ATOM     29  C   UNL     1      -3.155  11.196  17.820  0.00  0.00    +0.000 A 
ATOM     30  C   UNL     1      -1.828  10.735  17.951  0.00  0.00    +0.000 A 
BRANCH  28  31
ATOM     31  C   UNL     1      -5.188  12.460  18.613  0.00  0.00    +0.000 A 
ATOM     32  C   UNL     1      -5.961  12.882  19.711  0.00  0.00    +0.000 A 
ATOM     33  C   UNL     1      -7.274  13.336  19.546  0.00  0.00    +0.000 A 
ATOM     34  C   UNL     1      -7.849  13.366  18.281  0.00  0.00    +0.000 A 
ATOM     35  C   UNL     1      -7.115  12.943  17.180  0.00  0.00    +0.000 A 
ATOM     36  C   UNL     1      -5.799  12.500  17.346  0.00  0.00    +0.000 A 
ENDBRANCH  28  31
BRANCH  30  37
ATOM     37  N   UNL     1      -1.381   9.794  17.018  0.00  0.00    +0.000 N 
ATOM     38  H   UNL     1      -2.040   9.051  16.801  0.00  0.00    +0.000 HD
ATOM     39  H   UNL     1      -0.871  10.102  16.205  0.00  0.00    +0.000 HD
ENDBRANCH  30  37
ENDBRANCH  24  25
ENDBRANCH   5  24
TORSDOF 8
ENDMDL
MODEL 2
REMARK VINA RESULT:      -9.6      3.797     10.618
REMARK  Name = 
REMARK  9 active torsions:
REMARK  status: ('A' for Active; 'I' for Inactive)
REMARK    1  A    between atoms: C_1  and  C_2
REMARK    2  A    between atoms: C_5  and  N_6
REMARK    3  A    between atoms: N_6  and  C_7
REMARK    4  A    between atoms: C_7  and  C_8
REMARK    5  A    between atoms: N_12  and  C_13
REMARK    6  A    between atoms: C_13  and  C_14
REMARK    7  A    between atoms: C_17  and  C_18
REMARK    8  A    between atoms: C_25  and  N_26
REMARK    9  A    between atoms: C_28  and  C_29
REMARK                            x       y       z     vdW  Elec       q    Type
REMARK                         _______ _______ _______ _____ _____    ______ ____
ROOT
ATOM      1  C   UNL     1       2.324   5.020  20.023  0.00  0.00    +0.000 A 
ATOM      2  C   UNL     1       1.015   4.595  20.154  0.00  0.00    +0.000 A 
ATOM      3  N   UNL     1       0.940   3.230  20.210  0.00  0.00    +0.000 NA
ATOM      4  C   UNL     1       2.182   2.815  20.125  0.00  0.00    +0.000 A 
ATOM      5  N   UNL     1       3.063   3.861  20.055  0.00  0.00    +0.000 N 
ENDROOT
BRANCH   1   6
ATOM      6  C   UNL     1       2.877   6.394  19.902  0.00  0.00    +0.000 C 
BRANCH   6   7
ATOM      7  N   UNL     1       1.903   7.349  19.391  0.00  0.00    +0.000 N 
ATOM      8  H   UNL     1       1.170   6.915  18.838  0.00  0.00    +0.000 HD
BRANCH   7  13
ATOM      9  C   UNL     1      -0.712  11.315  22.591  0.00  0.00    +0.000 C 
ATOM     10  C   UNL     1       0.103  10.389  21.724  0.00  0.00    +0.000 A 
ATOM     11  C   UNL     1       0.298   9.082  22.218  0.00  0.00    +0.000 A 
ATOM     12  C   UNL     1       0.934   8.102  21.454  0.00  0.00    +0.000 A 
ATOM     13  C   UNL     1       1.434   8.393  20.187  0.00  0.00    +0.000 A 
ATOM     14  C   UNL     1       1.295   9.714  19.736  0.00  0.00    +0.000 A 
ATOM     15  C   UNL     1       0.646  10.748  20.467  0.00  0.00    +0.000 A 
BRANCH  15  16
ATOM     16  C   UNL     1       0.550  12.104  19.840  0.00  0.00    +0.000 A 
ATOM     17  C   UNL     1       1.478  13.123  20.138  0.00  0.00    +0.000 A 
ATOM     18  F   UNL     1       2.504  12.893  20.973  0.00  0.00    +0.000 F 
ATOM     19  C   UNL     1       1.393  14.416  19.603  0.00  0.00    +0.000 A 
ATOM     20  C   UNL     1       0.388  14.727  18.700  0.00  0.00    +0.000 A 
ATOM     21  C   UNL     1      -0.548  13.753  18.376  0.00  0.00    +0.000 A 
ATOM     22  C   UNL     1      -0.482  12.485  18.968  0.00  0.00    +0.000 A 
ATOM     23  F   UNL     1      -1.495  11.650  18.694  0.00  0.00    +0.000 F 
ENDBRANCH  15  16
ENDBRANCH   7  13
ENDBRANCH   6   7
ENDBRANCH   1   6
BRANCH   5  24
ATOM     24  C   UNL     1       4.510   3.714  19.984  0.00  0.00    +0.000 C 
BRANCH  24  25
ATOM     25  C   UNL     1       5.049   3.898  18.576  0.00  0.00    +0.000 A 
ATOM     26  C   UNL     1       4.289   3.401  17.496  0.00  0.00    +0.000 A 
ATOM     27  C   UNL     1       4.709   3.554  16.172  0.00  0.00    +0.000 A 
ATOM     28  C   UNL     1       5.903   4.211  15.866  0.00  0.00    +0.000 A 
ATOM     29  C   UNL     1       6.647   4.715  16.948  0.00  0.00    +0.000 A 
ATOM     30  C   UNL     1       6.231   4.601  18.292  0.00  0.00    +0.000 A 
BRANCH  28  31
ATOM     31  C   UNL     1       6.381   4.338  14.469  0.00  0.00    +0.000 A 
ATOM     32  C   UNL     1       7.429   5.210  14.125  0.00  0.00    +0.000 A 
ATOM     33  C   UNL     1       7.897   5.306  12.810  0.00  0.00    +0.000 A 
ATOM     34  C   UNL     1       7.318   4.539  11.805  0.00  0.00    +0.000 A 
ATOM     35  C   UNL     1       6.271   3.677  12.113  0.00  0.00    +0.000 A 
ATOM     36  C   UNL     1       5.813   3.576  13.430  0.00  0.00    +0.000 A 
ENDBRANCH  28  31
BRANCH  30  37
ATOM     37  N   UNL     1       7.142   4.986  19.280  0.00  0.00    +0.000 N 
ATOM     38  H   UNL     1       8.101   5.101  18.965  0.00  0.00    +0.000 HD
ATOM     39  H   UNL     1       6.876   5.683  19.959  0.00  0.00    +0.000 HD
ENDBRANCH  30  37
ENDBRANCH  24  25
ENDBRANCH   5  24
TORSDOF 8
ENDMDL
MODEL 3
REMARK VINA RESULT:      -9.5      3.821     10.733
REMARK  Name = 
REMARK  9 active torsions:
REMARK  status: ('A' for Active; 'I' for Inactive)
REMARK    1  A    between atoms: C_1  and  C_2
REMARK    2  A    between atoms: C_5  and  N_6
REMARK    3  A    between atoms: N_6  and  C_7
REMARK    4  A    between atoms: C_7  and  C_8
REMARK    5  A    between atoms: N_12  and  C_13
REMARK    6  A    between atoms: C_13  and  C_14
REMARK    7  A    between atoms: C_17  and  C_18
REMARK    8  A    between atoms: C_25  and  N_26
REMARK    9  A    between atoms: C_28  and  C_29
REMARK                            x       y       z     vdW  Elec       q    Type
REMARK                         _______ _______ _______ _____ _____    ______ ____
ROOT
ATOM      1  C   UNL     1       2.430   5.092  19.967  0.00  0.00    +0.000 A 
ATOM      2  C   UNL     1       1.151   4.594  20.131  0.00  0.00    +0.000 A 
ATOM      3  N   UNL     1       1.159   3.230  20.236  0.00  0.00    +0.000 NA
ATOM      4  C   UNL     1       2.423   2.888  20.147  0.00  0.00    +0.000 A 
ATOM      5  N   UNL     1       3.239   3.982  20.028  0.00  0.00    +0.000 N 
ENDROOT
BRANCH   1   6
ATOM      6  C   UNL     1       2.898   6.493  19.791  0.00  0.00    +0.000 C 
BRANCH   6   7
ATOM      7  N   UNL     1       1.837   7.388  19.349  0.00  0.00    +0.000 N 
ATOM      8  H   UNL     1       1.089   6.908  18.855  0.00  0.00    +0.000 HD
BRANCH   7  13
ATOM      9  C   UNL     1      -0.762  11.295  22.632  0.00  0.00    +0.000 C 
ATOM     10  C   UNL     1       0.051  10.383  21.749  0.00  0.00    +0.000 A 
ATOM     11  C   UNL     1       0.217   9.058  22.204  0.00  0.00    +0.000 A 
ATOM     12  C   UNL     1       0.849   8.092  21.419  0.00  0.00    +0.000 A 
ATOM     13  C   UNL     1       1.373   8.414  20.170  0.00  0.00    +0.000 A 
ATOM     14  C   UNL     1       1.262   9.750  19.758  0.00  0.00    +0.000 A 
ATOM     15  C   UNL     1       0.619  10.772  20.512  0.00  0.00    +0.000 A 
BRANCH  15  16
ATOM     16  C   UNL     1       0.554  12.148  19.926  0.00  0.00    +0.000 A 
ATOM     17  C   UNL     1      -0.373  12.478  18.916  0.00  0.00    +0.000 A 
ATOM     18  F   UNL     1      -1.254  11.569  18.471  0.00  0.00    +0.000 F 
ATOM     19  C   UNL     1      -0.432  13.744  18.316  0.00  0.00    +0.000 A 
ATOM     20  C   UNL     1       0.414  14.754  18.745  0.00  0.00    +0.000 A 
ATOM     21  C   UNL     1       1.343  14.474  19.740  0.00  0.00    +0.000 A 
ATOM     22  C   UNL     1       1.428  13.186  20.285  0.00  0.00    +0.000 A 
ATOM     23  F   UNL     1       2.432  12.974  21.148  0.00  0.00    +0.000 F 
ENDBRANCH  15  16
ENDBRANCH   7  13
ENDBRANCH   6   7
ENDBRANCH   1   6
BRANCH   5  24
ATOM     24  C   UNL     1       4.690   3.920  19.942  0.00  0.00    +0.000 C 
BRANCH  24  25
ATOM     25  C   UNL     1       5.198   4.041  18.515  0.00  0.00    +0.000 A 
ATOM     26  C   UNL     1       4.369   3.587  17.467  0.00  0.00    +0.000 A 
ATOM     27  C   UNL     1       4.759   3.689  16.129  0.00  0.00    +0.000 A 
ATOM     28  C   UNL     1       5.989   4.250  15.776  0.00  0.00    +0.000 A 
ATOM     29  C   UNL     1       6.801   4.713  16.827  0.00  0.00    +0.000 A 
ATOM     30  C   UNL     1       6.419   4.650  18.184  0.00  0.00    +0.000 A 
BRANCH  28  31
ATOM     31  C   UNL     1       6.431   4.320  14.363  0.00  0.00    +0.000 A 
ATOM     32  C   UNL     1       7.414   5.234  13.943  0.00  0.00    +0.000 A 
ATOM     33  C   UNL     1       7.850   5.277  12.615  0.00  0.00    +0.000 A 
ATOM     34  C   UNL     1       7.304   4.414  11.672  0.00  0.00    +0.000 A 
ATOM     35  C   UNL     1       6.320   3.509  12.055  0.00  0.00    +0.000 A 
ATOM     36  C   UNL     1       5.894   3.461  13.386  0.00  0.00    +0.000 A 
ENDBRANCH  28  31
BRANCH  30  37
ATOM     37  N   UNL     1       7.387   4.980  19.138  0.00  0.00    +0.000 N 
ATOM     38  H   UNL     1       7.117   5.704  19.797  0.00  0.00    +0.000 HD
ATOM     39  H   UNL     1       7.927   4.248  19.573  0.00  0.00    +0.000 HD
ENDBRANCH  30  37
ENDBRANCH  24  25
ENDBRANCH   5  24
TORSDOF 8
ENDMDL
MODEL 4
REMARK VINA RESULT:      -9.5      3.587     10.644
REMARK  Name = 
REMARK  9 active torsions:
REMARK  status: ('A' for Active; 'I' for Inactive)
REMARK    1  A    between atoms: C_1  and  C_2
REMARK    2  A    between atoms: C_5  and  N_6
REMARK    3  A    between atoms: N_6  and  C_7
REMARK    4  A    between atoms: C_7  and  C_8
REMARK    5  A    between atoms: N_12  and  C_13
REMARK    6  A    between atoms: C_13  and  C_14
REMARK    7  A    between atoms: C_17  and  C_18
REMARK    8  A    between atoms: C_25  and  N_26
REMARK    9  A    between atoms: C_28  and  C_29
REMARK                            x       y       z     vdW  Elec       q    Type
REMARK                         _______ _______ _______ _____ _____    ______ ____
ROOT
ATOM      1  C   UNL     1       2.086   4.817  20.086  0.00  0.00    +0.000 A 
ATOM      2  C   UNL     1       0.828   4.249  20.157  0.00  0.00    +0.000 A 
ATOM      3  N   UNL     1       0.899   2.882  20.136  0.00  0.00    +0.000 NA
ATOM      4  C   UNL     1       2.179   2.608  20.060  0.00  0.00    +0.000 A 
ATOM      5  N   UNL     1       2.945   3.744  20.073  0.00  0.00    +0.000 N 
ENDROOT
BRANCH   1   6
ATOM      6  C   UNL     1       2.491   6.247  20.057  0.00  0.00    +0.000 C 
BRANCH   6   7
ATOM      7  N   UNL     1       2.204   6.887  18.780  0.00  0.00    +0.000 N 
ATOM      8  H   UNL     1       1.658   6.301  18.154  0.00  0.00    +0.000 HD
BRANCH   7  13
ATOM      9  C   UNL     1       1.434  12.562  18.742  0.00  0.00    +0.000 C 
ATOM     10  C   UNL     1       1.462  11.055  18.761  0.00  0.00    +0.000 A 
ATOM     11  C   UNL     1       2.271  10.433  17.787  0.00  0.00    +0.000 A 
ATOM     12  C   UNL     1       2.470   9.051  17.778  0.00  0.00    +0.000 A 
ATOM     13  C   UNL     1       1.843   8.231  18.714  0.00  0.00    +0.000 A 
ATOM     14  C   UNL     1       0.988   8.854  19.634  0.00  0.00    +0.000 A 
ATOM     15  C   UNL     1       0.758  10.257  19.695  0.00  0.00    +0.000 A 
BRANCH  15  16
ATOM     16  C   UNL     1      -0.162  10.778  20.755  0.00  0.00    +0.000 A 
ATOM     17  C   UNL     1       0.002  10.429  22.112  0.00  0.00    +0.000 A 
ATOM     18  F   UNL     1       1.016   9.641  22.499  0.00  0.00    +0.000 F 
ATOM     19  C   UNL     1      -0.866  10.863  23.123  0.00  0.00    +0.000 A 
ATOM     20  C   UNL     1      -1.916  11.714  22.817  0.00  0.00    +0.000 A 
ATOM     21  C   UNL     1      -2.114  12.086  21.493  0.00  0.00    +0.000 A 
ATOM     22  C   UNL     1      -1.273  11.593  20.487  0.00  0.00    +0.000 A 
ATOM     23  F   UNL     1      -1.611  11.903  19.227  0.00  0.00    +0.000 F 
ENDBRANCH  15  16
ENDBRANCH   7  13
ENDBRANCH   6   7
ENDBRANCH   1   6
BRANCH   5  24
ATOM     24  C   UNL     1       4.400   3.755  20.033  0.00  0.00    +0.000 C 
BRANCH  24  25
ATOM     25  C   UNL     1       4.946   3.929  18.626  0.00  0.00    +0.000 A 
ATOM     26  C   UNL     1       4.259   3.313  17.559  0.00  0.00    +0.000 A 
ATOM     27  C   UNL     1       4.688   3.448  16.236  0.00  0.00    +0.000 A 
ATOM     28  C   UNL     1       5.818   4.206  15.917  0.00  0.00    +0.000 A 
ATOM     29  C   UNL     1       6.487   4.829  16.987  0.00  0.00    +0.000 A 
ATOM     30  C   UNL     1       6.058   4.733  18.327  0.00  0.00    +0.000 A 
BRANCH  28  31
ATOM     31  C   UNL     1       6.308   4.318  14.523  0.00  0.00    +0.000 A 
ATOM     32  C   UNL     1       7.369   5.176  14.182  0.00  0.00    +0.000 A 
ATOM     33  C   UNL     1       7.848   5.257  12.870  0.00  0.00    +0.000 A 
ATOM     34  C   UNL     1       7.268   4.491  11.866  0.00  0.00    +0.000 A 
ATOM     35  C   UNL     1       6.209   3.644  12.171  0.00  0.00    +0.000 A 
ATOM     36  C   UNL     1       5.739   3.556  13.485  0.00  0.00    +0.000 A 
ENDBRANCH  28  31
BRANCH  30  37
ATOM     37  N   UNL     1       6.908   5.249  19.311  0.00  0.00    +0.000 N 
ATOM     38  H   UNL     1       7.344   4.557  19.914  0.00  0.00    +0.000 HD
ATOM     39  H   UNL     1       7.534   6.006  19.081  0.00  0.00    +0.000 HD
ENDBRANCH  30  37
ENDBRANCH  24  25
ENDBRANCH   5  24
TORSDOF 8
ENDMDL
MODEL 5
REMARK VINA RESULT:      -9.4      3.526     10.861
REMARK  Name = 
REMARK  9 active torsions:
REMARK  status: ('A' for Active; 'I' for Inactive)
REMARK    1  A    between atoms: C_1  and  C_2
REMARK    2  A    between atoms: C_5  and  N_6
REMARK    3  A    between atoms: N_6  and  C_7
REMARK    4  A    between atoms: C_7  and  C_8
REMARK    5  A    between atoms: N_12  and  C_13
REMARK    6  A    between atoms: C_13  and  C_14
REMARK    7  A    between atoms: C_17  and  C_18
REMARK    8  A    between atoms: C_25  and  N_26
REMARK    9  A    between atoms: C_28  and  C_29
REMARK                            x       y       z     vdW  Elec       q    Type
REMARK                         _______ _______ _______ _____ _____    ______ ____
ROOT
ATOM      1  C   UNL     1       2.353   5.357  19.857  0.00  0.00    +0.000 A 
ATOM      2  C   UNL     1       1.094   4.834  20.083  0.00  0.00    +0.000 A 
ATOM      3  N   UNL     1       1.154   3.495  20.357  0.00  0.00    +0.000 NA
ATOM      4  C   UNL     1       2.430   3.194  20.310  0.00  0.00    +0.000 A 
ATOM      5  N   UNL     1       3.204   4.296  20.056  0.00  0.00    +0.000 N 
ENDROOT
BRANCH   1   6
ATOM      6  C   UNL     1       2.767   6.742  19.508  0.00  0.00    +0.000 C 
BRANCH   6   7
ATOM      7  N   UNL     1       1.857   7.379  18.565  0.00  0.00    +0.000 N 
ATOM      8  H   UNL     1       1.030   6.822  18.370  0.00  0.00    +0.000 HD
BRANCH   7  13
ATOM      9  C   UNL     1       1.426  13.056  19.193  0.00  0.00    +0.000 C 
ATOM     10  C   UNL     1       1.365  11.560  19.017  0.00  0.00    +0.000 A 
ATOM     11  C   UNL     1       2.238  11.007  18.057  0.00  0.00    +0.000 A 
ATOM     12  C   UNL     1       2.356   9.626  17.888  0.00  0.00    +0.000 A 
ATOM     13  C   UNL     1       1.585   8.744  18.640  0.00  0.00    +0.000 A 
ATOM     14  C   UNL     1       0.671   9.307  19.543  0.00  0.00    +0.000 A 
ATOM     15  C   UNL     1       0.518  10.705  19.763  0.00  0.00    +0.000 A 
BRANCH  15  16
ATOM     16  C   UNL     1      -0.481  11.155  20.784  0.00  0.00    +0.000 A 
ATOM     17  C   UNL     1      -1.566  11.988  20.438  0.00  0.00    +0.000 A 
ATOM     18  F   UNL     1      -1.755  12.376  19.168  0.00  0.00    +0.000 F 
ATOM     19  C   UNL     1      -2.494  12.462  21.375  0.00  0.00    +0.000 A 
ATOM     20  C   UNL     1      -2.397  12.077  22.703  0.00  0.00    +0.000 A 
ATOM     21  C   UNL     1      -1.345  11.255  23.088  0.00  0.00    +0.000 A 
ATOM     22  C   UNL     1      -0.391  10.841  22.148  0.00  0.00    +0.000 A 
ATOM     23  F   UNL     1       0.655  10.154  22.630  0.00  0.00    +0.000 F 
ENDBRANCH  15  16
ENDBRANCH   7  13
ENDBRANCH   6   7
ENDBRANCH   1   6
BRANCH   5  24
ATOM     24  C   UNL     1       4.657   4.280  19.977  0.00  0.00    +0.000 C 
BRANCH  24  25
ATOM     25  C   UNL     1       5.166   4.317  18.546  0.00  0.00    +0.000 A 
ATOM     26  C   UNL     1       4.302   3.892  17.515  0.00  0.00    +0.000 A 
ATOM     27  C   UNL     1       4.693   3.921  16.173  0.00  0.00    +0.000 A 
ATOM     28  C   UNL     1       5.959   4.377  15.800  0.00  0.00    +0.000 A 
ATOM     29  C   UNL     1       6.808   4.812  16.834  0.00  0.00    +0.000 A 
ATOM     30  C   UNL     1       6.428   4.822  18.193  0.00  0.00    +0.000 A 
BRANCH  28  31
ATOM     31  C   UNL     1       6.400   4.368  14.385  0.00  0.00    +0.000 A 
ATOM     32  C   UNL     1       7.422   5.219  13.926  0.00  0.00    +0.000 A 
ATOM     33  C   UNL     1       7.855   5.187  12.596  0.00  0.00    +0.000 A 
ATOM     34  C   UNL     1       7.267   4.312  11.691  0.00  0.00    +0.000 A 
ATOM     35  C   UNL     1       6.245   3.468  12.112  0.00  0.00    +0.000 A 
ATOM     36  C   UNL     1       5.821   3.495  13.445  0.00  0.00    +0.000 A 
ENDBRANCH  28  31
BRANCH  30  37
ATOM     37  N   UNL     1       7.422   5.109  19.134  0.00  0.00    +0.000 N 
ATOM     38  H   UNL     1       8.258   5.550  18.762  0.00  0.00    +0.000 HD
ATOM     39  H   UNL     1       7.162   5.481  20.035  0.00  0.00    +0.000 HD
ENDBRANCH  30  37
ENDBRANCH  24  25
ENDBRANCH   5  24
TORSDOF 8
ENDMDL
MODEL 6
REMARK VINA RESULT:      -9.4      1.174      2.560
REMARK  Name = 
REMARK  9 active torsions:
REMARK  status: ('A' for Active; 'I' for Inactive)
REMARK    1  A    between atoms: C_1  and  C_2
REMARK    2  A    between atoms: C_5  and  N_6
REMARK    3  A    between atoms: N_6  and  C_7
REMARK    4  A    between atoms: C_7  and  C_8
REMARK    5  A    between atoms: N_12  and  C_13
REMARK    6  A    between atoms: C_13  and  C_14
REMARK    7  A    between atoms: C_17  and  C_18
REMARK    8  A    between atoms: C_25  and  N_26
REMARK    9  A    between atoms: C_28  and  C_29
REMARK                            x       y       z     vdW  Elec       q    Type
REMARK                         _______ _______ _______ _____ _____    ______ ____
ROOT
ATOM      1  C   UNL     1       1.338   9.161  19.412  0.00  0.00    +0.000 A 
ATOM      2  C   UNL     1       2.019   8.967  18.225  0.00  0.00    +0.000 A 
ATOM      3  N   UNL     1       2.222  10.151  17.570  0.00  0.00    +0.000 NA
ATOM      4  C   UNL     1       1.683  11.065  18.341  0.00  0.00    +0.000 A 
ATOM      5  N   UNL     1       1.173  10.524  19.491  0.00  0.00    +0.000 N 
ENDROOT
BRANCH   1   6
ATOM      6  C   UNL     1       0.884   8.176  20.429  0.00  0.00    +0.000 C 
BRANCH   6   7
ATOM      7  N   UNL     1       1.969   7.343  20.928  0.00  0.00    +0.000 N 
ATOM      8  H   UNL     1       2.015   7.313  21.942  0.00  0.00    +0.000 HD
BRANCH   7  13
ATOM      9  C   UNL     1       3.434   2.088  19.183  0.00  0.00    +0.000 C 
ATOM     10  C   UNL     1       3.057   3.518  19.474  0.00  0.00    +0.000 A 
ATOM     11  C   UNL     1       1.937   3.712  20.310  0.00  0.00    +0.000 A 
ATOM     12  C   UNL     1       1.563   4.985  20.744  0.00  0.00    +0.000 A 
ATOM     13  C   UNL     1       2.265   6.116  20.336  0.00  0.00    +0.000 A 
ATOM     14  C   UNL     1       3.334   5.917  19.450  0.00  0.00    +0.000 A 
ATOM     15  C   UNL     1       3.765   4.642  18.985  0.00  0.00    +0.000 A 
BRANCH  15  16
ATOM     16  C   UNL     1       4.943   4.587  18.063  0.00  0.00    +0.000 A 
ATOM     17  C   UNL     1       4.817   4.152  16.728  0.00  0.00    +0.000 A 
ATOM     18  F   UNL     1       3.620   3.804  16.231  0.00  0.00    +0.000 F 
ATOM     19  C   UNL     1       5.906   4.047  15.851  0.00  0.00    +0.000 A 
ATOM     20  C   UNL     1       7.171   4.425  16.271  0.00  0.00    +0.000 A 
ATOM     21  C   UNL     1       7.343   4.862  17.578  0.00  0.00    +0.000 A 
ATOM     22  C   UNL     1       6.253   4.902  18.458  0.00  0.00    +0.000 A 
ATOM     23  F   UNL     1       6.531   5.218  19.731  0.00  0.00    +0.000 F 
ENDBRANCH  15  16
ENDBRANCH   7  13
ENDBRANCH   6   7
ENDBRANCH   1   6
BRANCH   5  24
ATOM     24  C   UNL     1       0.542  11.294  20.553  0.00  0.00    +0.000 C 
BRANCH  24  25
ATOM     25  C   UNL     1      -0.901  11.649  20.240  0.00  0.00    +0.000 A 
ATOM     26  C   UNL     1      -1.439  11.244  19.000  0.00  0.00    +0.000 A 
ATOM     27  C   UNL     1      -2.765  11.514  18.653  0.00  0.00    +0.000 A 
ATOM     28  C   UNL     1      -3.615  12.196  19.526  0.00  0.00    +0.000 A 
ATOM     29  C   UNL     1      -3.075  12.582  20.766  0.00  0.00    +0.000 A 
ATOM     30  C   UNL     1      -1.749  12.297  21.154  0.00  0.00    +0.000 A 
BRANCH  28  31
ATOM     31  C   UNL     1      -5.010  12.527  19.149  0.00  0.00    +0.000 A 
ATOM     32  C   UNL     1      -5.618  11.967  18.010  0.00  0.00    +0.000 A 
ATOM     33  C   UNL     1      -6.944  12.260  17.673  0.00  0.00    +0.000 A 
ATOM     34  C   UNL     1      -7.689  13.130  18.461  0.00  0.00    +0.000 A 
ATOM     35  C   UNL     1      -7.110  13.709  19.585  0.00  0.00    +0.000 A 
ATOM     36  C   UNL     1      -5.788  13.406  19.925  0.00  0.00    +0.000 A 
ENDBRANCH  28  31
BRANCH  30  37
ATOM     37  N   UNL     1      -1.284  12.888  22.332  0.00  0.00    +0.000 N 
ATOM     38  H   UNL     1      -0.315  13.192  22.313  0.00  0.00    +0.000 HD
ATOM     39  H   UNL     1      -1.876  13.533  22.834  0.00  0.00    +0.000 HD
ENDBRANCH  30  37
ENDBRANCH  24  25
ENDBRANCH   5  24
TORSDOF 8
ENDMDL
MODEL 7
REMARK VINA RESULT:      -9.4      4.236     10.495
REMARK  Name = 
REMARK  9 active torsions:
REMARK  status: ('A' for Active; 'I' for Inactive)
REMARK    1  A    between atoms: C_1  and  C_2
REMARK    2  A    between atoms: C_5  and  N_6
REMARK    3  A    between atoms: N_6  and  C_7
REMARK    4  A    between atoms: C_7  and  C_8
REMARK    5  A    between atoms: N_12  and  C_13
REMARK    6  A    between atoms: C_13  and  C_14
REMARK    7  A    between atoms: C_17  and  C_18
REMARK    8  A    between atoms: C_25  and  N_26
REMARK    9  A    between atoms: C_28  and  C_29
REMARK                            x       y       z     vdW  Elec       q    Type
REMARK                         _______ _______ _______ _____ _____    ______ ____
ROOT
ATOM      1  C   UNL     1       4.179   5.480  18.493  0.00  0.00    +0.000 A 
ATOM      2  C   UNL     1       3.544   4.678  19.422  0.00  0.00    +0.000 A 
ATOM      3  N   UNL     1       4.232   3.512  19.625  0.00  0.00    +0.000 NA
ATOM      4  C   UNL     1       5.280   3.594  18.840  0.00  0.00    +0.000 A 
ATOM      5  N   UNL     1       5.320   4.786  18.166  0.00  0.00    +0.000 N 
ENDROOT
BRANCH   1   6
ATOM      6  C   UNL     1       3.792   6.809  17.950  0.00  0.00    +0.000 C 
BRANCH   6   7
ATOM      7  N   UNL     1       2.374   7.095  18.125  0.00  0.00    +0.000 N 
ATOM      8  H   UNL     1       1.786   6.272  18.032  0.00  0.00    +0.000 HD
BRANCH   7  13
ATOM      9  C   UNL     1      -0.078  10.265  22.217  0.00  0.00    +0.000 C 
ATOM     10  C   UNL     1       0.672   9.568  21.110  0.00  0.00    +0.000 A 
ATOM     11  C   UNL     1       1.116   8.257  21.386  0.00  0.00    +0.000 A 
ATOM     12  C   UNL     1       1.717   7.470  20.402  0.00  0.00    +0.000 A 
ATOM     13  C   UNL     1       1.934   7.967  19.120  0.00  0.00    +0.000 A 
ATOM     14  C   UNL     1       1.550   9.294  18.878  0.00  0.00    +0.000 A 
ATOM     15  C   UNL     1       0.924  10.137  19.839  0.00  0.00    +0.000 A 
BRANCH  15  16
ATOM     16  C   UNL     1       0.545  11.524  19.423  0.00  0.00    +0.000 A 
ATOM     17  C   UNL     1       1.241  12.654  19.899  0.00  0.00    +0.000 A 
ATOM     18  F   UNL     1       2.294  12.515  20.720  0.00  0.00    +0.000 F 
ATOM     19  C   UNL     1       0.887  13.968  19.565  0.00  0.00    +0.000 A 
ATOM     20  C   UNL     1      -0.163  14.201  18.690  0.00  0.00    +0.000 A 
ATOM     21  C   UNL     1      -0.876  13.117  18.194  0.00  0.00    +0.000 A 
ATOM     22  C   UNL     1      -0.546  11.813  18.588  0.00  0.00    +0.000 A 
ATOM     23  F   UNL     1      -1.363  10.840  18.160  0.00  0.00    +0.000 F 
ENDBRANCH  15  16
ENDBRANCH   7  13
ENDBRANCH   6   7
ENDBRANCH   1   6
BRANCH   5  24
ATOM     24  C   UNL     1       6.380   5.177  17.248  0.00  0.00    +0.000 C 
BRANCH  24  25
ATOM     25  C   UNL     1       7.133   6.411  17.714  0.00  0.00    +0.000 A 
ATOM     26  C   UNL     1       6.980   7.607  16.983  0.00  0.00    +0.000 A 
ATOM     27  C   UNL     1       7.623   8.787  17.366  0.00  0.00    +0.000 A 
ATOM     28  C   UNL     1       8.443   8.829  18.496  0.00  0.00    +0.000 A 
ATOM     29  C   UNL     1       8.577   7.635  19.227  0.00  0.00    +0.000 A 
ATOM     30  C   UNL     1       7.916   6.437  18.880  0.00  0.00    +0.000 A 
BRANCH  28  31
ATOM     31  C   UNL     1       9.165  10.063  18.884  0.00  0.00    +0.000 A 
ATOM     32  C   UNL     1       9.336  10.424  20.233  0.00  0.00    +0.000 A 
ATOM     33  C   UNL     1      10.044  11.574  20.596  0.00  0.00    +0.000 A 
ATOM     34  C   UNL     1      10.587  12.398  19.617  0.00  0.00    +0.000 A 
ATOM     35  C   UNL     1      10.422  12.075  18.275  0.00  0.00    +0.000 A 
ATOM     36  C   UNL     1       9.723  10.919  17.915  0.00  0.00    +0.000 A 
ENDBRANCH  28  31
BRANCH  30  37
ATOM     37  N   UNL     1       8.272   5.282  19.582  0.00  0.00    +0.000 N 
ATOM     38  H   UNL     1       9.114   5.359  20.147  0.00  0.00    +0.000 HD
ATOM     39  H   UNL     1       7.557   4.734  20.035  0.00  0.00    +0.000 HD
ENDBRANCH  30  37
ENDBRANCH  24  25
ENDBRANCH   5  24
TORSDOF 8
ENDMDL
MODEL 8
REMARK VINA RESULT:      -9.3      4.226     10.584
REMARK  Name = 
REMARK  9 active torsions:
REMARK  status: ('A' for Active; 'I' for Inactive)
REMARK    1  A    between atoms: C_1  and  C_2
REMARK    2  A    between atoms: C_5  and  N_6
REMARK    3  A    between atoms: N_6  and  C_7
REMARK    4  A    between atoms: C_7  and  C_8
REMARK    5  A    between atoms: N_12  and  C_13
REMARK    6  A    between atoms: C_13  and  C_14
REMARK    7  A    between atoms: C_17  and  C_18
REMARK    8  A    between atoms: C_25  and  N_26
REMARK    9  A    between atoms: C_28  and  C_29
REMARK                            x       y       z     vdW  Elec       q    Type
REMARK                         _______ _______ _______ _____ _____    ______ ____
ROOT
ATOM      1  C   UNL     1       4.135   5.520  18.571  0.00  0.00    +0.000 A 
ATOM      2  C   UNL     1       3.519   4.707  19.504  0.00  0.00    +0.000 A 
ATOM      3  N   UNL     1       4.198   3.531  19.665  0.00  0.00    +0.000 NA
ATOM      4  C   UNL     1       5.224   3.615  18.851  0.00  0.00    +0.000 A 
ATOM      5  N   UNL     1       5.258   4.819  18.198  0.00  0.00    +0.000 N 
ENDROOT
BRANCH   1   6
ATOM      6  C   UNL     1       3.748   6.862  18.064  0.00  0.00    +0.000 C 
BRANCH   6   7
ATOM      7  N   UNL     1       2.330   7.143  18.245  0.00  0.00    +0.000 N 
ATOM      8  H   UNL     1       1.745   6.317  18.157  0.00  0.00    +0.000 HD
BRANCH   7  13
ATOM      9  C   UNL     1      -0.119  10.313  22.339  0.00  0.00    +0.000 C 
ATOM     10  C   UNL     1       0.630   9.616  21.231  0.00  0.00    +0.000 A 
ATOM     11  C   UNL     1       1.075   8.306  21.507  0.00  0.00    +0.000 A 
ATOM     12  C   UNL     1       1.676   7.518  20.523  0.00  0.00    +0.000 A 
ATOM     13  C   UNL     1       1.890   8.015  19.240  0.00  0.00    +0.000 A 
ATOM     14  C   UNL     1       1.506   9.342  18.998  0.00  0.00    +0.000 A 
ATOM     15  C   UNL     1       0.880  10.184  19.960  0.00  0.00    +0.000 A 
BRANCH  15  16
ATOM     16  C   UNL     1       0.500  11.572  19.544  0.00  0.00    +0.000 A 
ATOM     17  C   UNL     1      -0.543  11.808  18.625  0.00  0.00    +0.000 A 
ATOM     18  F   UNL     1      -1.255  10.788  18.119  0.00  0.00    +0.000 F 
ATOM     19  C   UNL     1      -0.896  13.089  18.181  0.00  0.00    +0.000 A 
ATOM     20  C   UNL     1      -0.240  14.202  18.684  0.00  0.00    +0.000 A 
ATOM     21  C   UNL     1       0.794  14.017  19.594  0.00  0.00    +0.000 A 
ATOM     22  C   UNL     1       1.173  12.724  19.979  0.00  0.00    +0.000 A 
ATOM     23  F   UNL     1       2.258  12.634  20.762  0.00  0.00    +0.000 F 
ENDBRANCH  15  16
ENDBRANCH   7  13
ENDBRANCH   6   7
ENDBRANCH   1   6
BRANCH   5  24
ATOM     24  C   UNL     1       6.295   5.214  17.256  0.00  0.00    +0.000 C 
BRANCH  24  25
ATOM     25  C   UNL     1       7.071   6.435  17.719  0.00  0.00    +0.000 A 
ATOM     26  C   UNL     1       6.904   7.644  17.012  0.00  0.00    +0.000 A 
ATOM     27  C   UNL     1       7.567   8.814  17.394  0.00  0.00    +0.000 A 
ATOM     28  C   UNL     1       8.423   8.830  18.498  0.00  0.00    +0.000 A 
ATOM     29  C   UNL     1       8.571   7.624  19.205  0.00  0.00    +0.000 A 
ATOM     30  C   UNL     1       7.891   6.437  18.859  0.00  0.00    +0.000 A 
BRANCH  28  31
ATOM     31  C   UNL     1       9.166  10.053  18.884  0.00  0.00    +0.000 A 
ATOM     32  C   UNL     1       9.321  10.427  20.231  0.00  0.00    +0.000 A 
ATOM     33  C   UNL     1      10.049  11.566  20.593  0.00  0.00    +0.000 A 
ATOM     34  C   UNL     1      10.628  12.365  19.613  0.00  0.00    +0.000 A 
ATOM     35  C   UNL     1      10.480  12.028  18.273  0.00  0.00    +0.000 A 
ATOM     36  C   UNL     1       9.761  10.883  17.915  0.00  0.00    +0.000 A 
ENDBRANCH  28  31
BRANCH  30  37
ATOM     37  N   UNL     1       8.260   5.267  19.531  0.00  0.00    +0.000 N 
ATOM     38  H   UNL     1       7.542   4.550  19.581  0.00  0.00    +0.000 HD
ATOM     39  H   UNL     1       9.180   4.878  19.386  0.00  0.00    +0.000 HD
ENDBRANCH  30  37
ENDBRANCH  24  25
ENDBRANCH   5  24
TORSDOF 8
ENDMDL
MODEL 9
REMARK VINA RESULT:      -9.3      3.521     10.647
REMARK  Name = 
REMARK  9 active torsions:
REMARK  status: ('A' for Active; 'I' for Inactive)
REMARK    1  A    between atoms: C_1  and  C_2
REMARK    2  A    between atoms: C_5  and  N_6
REMARK    3  A    between atoms: N_6  and  C_7
REMARK    4  A    between atoms: C_7  and  C_8
REMARK    5  A    between atoms: N_12  and  C_13
REMARK    6  A    between atoms: C_13  and  C_14
REMARK    7  A    between atoms: C_17  and  C_18
REMARK    8  A    between atoms: C_25  and  N_26
REMARK    9  A    between atoms: C_28  and  C_29
REMARK                            x       y       z     vdW  Elec       q    Type
REMARK                         _______ _______ _______ _____ _____    ______ ____
ROOT
ATOM      1  C   UNL     1       1.851   4.459  20.353  0.00  0.00    +0.000 A 
ATOM      2  C   UNL     1       1.067   3.323  20.418  0.00  0.00    +0.000 A 
ATOM      3  N   UNL     1       1.799   2.198  20.150  0.00  0.00    +0.000 NA
ATOM      4  C   UNL     1       3.019   2.630  19.931  0.00  0.00    +0.000 A 
ATOM      5  N   UNL     1       3.114   3.987  20.086  0.00  0.00    +0.000 N 
ENDROOT
BRANCH   1   6
ATOM      6  C   UNL     1       1.486   5.888  20.546  0.00  0.00    +0.000 C 
BRANCH   6   7
ATOM      7  N   UNL     1       2.319   6.791  19.764  0.00  0.00    +0.000 N 
ATOM      8  H   UNL     1       2.829   6.321  19.020  0.00  0.00    +0.000 HD
BRANCH   7  13
ATOM      9  C   UNL     1       1.123  12.228  18.416  0.00  0.00    +0.000 C 
ATOM     10  C   UNL     1       1.266  10.773  18.784  0.00  0.00    +0.000 A 
ATOM     11  C   UNL     1       2.124  10.003  17.971  0.00  0.00    +0.000 A 
ATOM     12  C   UNL     1       2.426   8.676  18.282  0.00  0.00    +0.000 A 
ATOM     13  C   UNL     1       1.859   8.053  19.391  0.00  0.00    +0.000 A 
ATOM     14  C   UNL     1       0.954   8.807  20.152  0.00  0.00    +0.000 A 
ATOM     15  C   UNL     1       0.619  10.165  19.888  0.00  0.00    +0.000 A 
BRANCH  15  16
ATOM     16  C   UNL     1      -0.342  10.849  20.809  0.00  0.00    +0.000 A 
ATOM     17  C   UNL     1      -0.240  10.721  22.210  0.00  0.00    +0.000 A 
ATOM     18  F   UNL     1       0.751  10.005  22.763  0.00  0.00    +0.000 F 
ATOM     19  C   UNL     1      -1.148  11.312  23.100  0.00  0.00    +0.000 A 
ATOM     20  C   UNL     1      -2.178  12.102  22.615  0.00  0.00    +0.000 A 
ATOM     21  C   UNL     1      -2.316  12.257  21.241  0.00  0.00    +0.000 A 
ATOM     22  C   UNL     1      -1.435  11.609  20.365  0.00  0.00    +0.000 A 
ATOM     23  F   UNL     1      -1.716  11.714  19.058  0.00  0.00    +0.000 F 
ENDBRANCH  15  16
ENDBRANCH   7  13
ENDBRANCH   6   7
ENDBRANCH   1   6
BRANCH   5  24
ATOM     24  C   UNL     1       4.347   4.747  19.939  0.00  0.00    +0.000 C 
BRANCH  24  25
ATOM     25  C   UNL     1       4.918   4.671  18.533  0.00  0.00    +0.000 A 
ATOM     26  C   UNL     1       4.036   4.408  17.464  0.00  0.00    +0.000 A 
ATOM     27  C   UNL     1       4.485   4.347  16.142  0.00  0.00    +0.000 A 
ATOM     28  C   UNL     1       5.831   4.549  15.827  0.00  0.00    +0.000 A 
ATOM     29  C   UNL     1       6.699   4.824  16.898  0.00  0.00    +0.000 A 
ATOM     30  C   UNL     1       6.268   4.921  18.238  0.00  0.00    +0.000 A 
BRANCH  28  31
ATOM     31  C   UNL     1       6.324   4.440  14.433  0.00  0.00    +0.000 A 
ATOM     32  C   UNL     1       5.704   3.595  13.496  0.00  0.00    +0.000 A 
ATOM     33  C   UNL     1       6.155   3.517  12.174  0.00  0.00    +0.000 A 
ATOM     34  C   UNL     1       7.245   4.275  11.762  0.00  0.00    +0.000 A 
ATOM     35  C   UNL     1       7.887   5.109  12.670  0.00  0.00    +0.000 A 
ATOM     36  C   UNL     1       7.427   5.193  13.988  0.00  0.00    +0.000 A 
ENDBRANCH  28  31
BRANCH  30  37
ATOM     37  N   UNL     1       7.255   5.023  19.223  0.00  0.00    +0.000 N 
ATOM     38  H   UNL     1       7.784   5.890  19.219  0.00  0.00    +0.000 HD
ATOM     39  H   UNL     1       7.061   4.697  20.158  0.00  0.00    +0.000 HD
ENDBRANCH  30  37
ENDBRANCH  24  25
ENDBRANCH   5  24
TORSDOF 8
ENDMDL
