MODEL 1
REMARK VINA RESULT:      -7.7      0.000      0.000
REMARK  Name = 
REMARK  8 active torsions:
REMARK  status: ('A' for Active; 'I' for Inactive)
REMARK    1  A    between atoms: C_1  and  O_2
REMARK    2  A    between atoms: O_2  and  C_3
REMARK    3  A    between atoms: C_6  and  C_7
REMARK    4  A    between atoms: C_11  and  O_12
REMARK    5  A    between atoms: O_12  and  C_13
REMARK    6  A    between atoms: C_13  and  C_14
REMARK    7  A    between atoms: N_23  and  C_24
REMARK    8  A    between atoms: C_24  and  C_25
REMARK                            x       y       z     vdW  Elec       q    Type
REMARK                         _______ _______ _______ _____ _____    ______ ____
ROOT
ATOM      1  C   UNL     1       6.189   4.612  17.490  0.00  0.00    +0.000 C 
ATOM      2  C   UNL     1       7.574   4.458  18.090  0.00  0.00    +0.000 C 
ATOM      3  C   UNL     1       8.379   5.303  18.765  0.00  0.00    +0.000 C 
ATOM      4  C   UNL     1       8.130   6.733  19.155  0.00  0.00    +0.000 C 
ATOM      5  C   UNL     1       8.156   7.756  18.000  0.00  0.00    +0.000 C 
ATOM      6  C   UNL     1       7.307   7.318  16.796  0.00  0.00    +0.000 C 
ATOM      7  C   UNL     1       5.880   7.106  17.263  0.00  0.00    +0.000 C 
ATOM      8  O   UNL     1       5.106   8.064  17.240  0.00  0.00    +0.000 OA
ATOM      9  N   UNL     1       5.546   5.886  17.846  0.00  0.00    +0.000 N 
ENDROOT
BRANCH   1  13
ATOM     10  C   UNL     1       5.933   3.781  13.202  0.00  0.00    +0.000 A 
ATOM     11  C   UNL     1       4.817   3.578  14.015  0.00  0.00    +0.000 A 
ATOM     12  C   UNL     1       4.866   3.850  15.389  0.00  0.00    +0.000 A 
ATOM     13  C   UNL     1       6.047   4.310  15.990  0.00  0.00    +0.000 A 
ATOM     14  C   UNL     1       7.162   4.506  15.151  0.00  0.00    +0.000 A 
ATOM     15  C   UNL     1       7.111   4.241  13.778  0.00  0.00    +0.000 A 
BRANCH  10  17
ATOM     16  C   UNL     1       4.420   3.241  11.461  0.00  0.00    +0.000 C 
ATOM     17  O   UNL     1       5.760   3.472  11.881  0.00  0.00    +0.000 OA
ENDBRANCH  10  17
ENDBRANCH   1  13
BRANCH   5  18
ATOM     18  O   UNL     1       7.657   9.039  18.413  0.00  0.00    +0.000 OA
BRANCH  18  19
ATOM     19  C   UNL     1       8.209  10.167  17.748  0.00  0.00    +0.000 C 
BRANCH  19  20
ATOM     20  C   UNL     1       9.352  10.780  18.530  0.00  0.00    +0.000 A 
ATOM     21  C   UNL     1       9.358  10.866  19.929  0.00  0.00    +0.000 A 
ATOM     22  C   UNL     1      10.425  11.471  20.602  0.00  0.00    +0.000 A 
ATOM     23  C   UNL     1      11.504  11.985  19.885  0.00  0.00    +0.000 A 
ATOM     24  C   UNL     1      11.524  11.888  18.497  0.00  0.00    +0.000 A 
ATOM     25  C   UNL     1      10.456  11.288  17.824  0.00  0.00    +0.000 A 
ENDBRANCH  19  20
ENDBRANCH  18  19
ENDBRANCH   5  18
BRANCH   9  26
ATOM     26  C   UNL     1       4.616   5.887  18.981  0.00  0.00    +0.000 C 
BRANCH  26  27
ATOM     27  C   UNL     1       3.435   4.952  18.891  0.00  0.00    +0.000 A 
ATOM     28  C   UNL     1       2.513   5.090  17.836  0.00  0.00    +0.000 A 
ATOM     29  C   UNL     1       1.426   4.220  17.706  0.00  0.00    +0.000 A 
ATOM     30  C   UNL     1       1.239   3.213  18.644  0.00  0.00    +0.000 A 
ATOM     31  C   UNL     1       2.132   3.088  19.702  0.00  0.00    +0.000 A 
ATOM     32  F   UNL     1       1.946   2.120  20.610  0.00  0.00    +0.000 F 
ATOM     33  C   UNL     1       3.221   3.946  19.839  0.00  0.00    +0.000 A 
ENDBRANCH  26  27
ENDBRANCH   9  26
TORSDOF 7
ENDMDL
MODEL 2
REMARK VINA RESULT:      -7.5      7.946      9.462
REMARK  Name = 
REMARK  8 active torsions:
REMARK  status: ('A' for Active; 'I' for Inactive)
REMARK    1  A    between atoms: C_1  and  O_2
REMARK    2  A    between atoms: O_2  and  C_3
REMARK    3  A    between atoms: C_6  and  C_7
REMARK    4  A    between atoms: C_11  and  O_12
REMARK    5  A    between atoms: O_12  and  C_13
REMARK    6  A    between atoms: C_13  and  C_14
REMARK    7  A    between atoms: N_23  and  C_24
REMARK    8  A    between atoms: C_24  and  C_25
REMARK                            x       y       z     vdW  Elec       q    Type
REMARK                         _______ _______ _______ _____ _____    ______ ____
ROOT
ATOM      1  C   UNL     1      -0.331  10.931  19.800  0.00  0.00    +0.000 C 
ATOM      2  C   UNL     1      -0.565  11.296  21.253  0.00  0.00    +0.000 C 
ATOM      3  C   UNL     1      -0.405  12.441  21.947  0.00  0.00    +0.000 C 
ATOM      4  C   UNL     1       0.075  13.779  21.460  0.00  0.00    +0.000 C 
ATOM      5  C   UNL     1       1.577  13.868  21.120  0.00  0.00    +0.000 C 
ATOM      6  C   UNL     1       2.056  12.710  20.229  0.00  0.00    +0.000 C 
ATOM      7  C   UNL     1       1.239  12.714  18.951  0.00  0.00    +0.000 C 
ATOM      8  O   UNL     1       1.640  13.385  17.999  0.00  0.00    +0.000 OA
ATOM      9  N   UNL     1      -0.008  12.093  18.959  0.00  0.00    +0.000 N 
ENDROOT
BRANCH   1  13
ATOM     10  C   UNL     1       2.393   7.633  18.877  0.00  0.00    +0.000 A 
ATOM     11  C   UNL     1       1.943   7.814  20.185  0.00  0.00    +0.000 A 
ATOM     12  C   UNL     1       1.059   8.853  20.508  0.00  0.00    +0.000 A 
ATOM     13  C   UNL     1       0.621   9.755  19.526  0.00  0.00    +0.000 A 
ATOM     14  C   UNL     1       1.089   9.555  18.213  0.00  0.00    +0.000 A 
ATOM     15  C   UNL     1       1.967   8.513  17.891  0.00  0.00    +0.000 A 
BRANCH  10  17
ATOM     16  C   UNL     1       4.085   6.655  17.537  0.00  0.00    +0.000 C 
ATOM     17  O   UNL     1       3.258   6.589  18.694  0.00  0.00    +0.000 OA
ENDBRANCH  10  17
ENDBRANCH   1  13
BRANCH   5  18
ATOM     18  O   UNL     1       1.896  15.085  20.424  0.00  0.00    +0.000 OA
BRANCH  18  19
ATOM     19  C   UNL     1       0.850  16.042  20.328  0.00  0.00    +0.000 C 
BRANCH  19  20
ATOM     20  C   UNL     1       0.900  16.803  19.020  0.00  0.00    +0.000 A 
ATOM     21  C   UNL     1      -0.219  17.444  18.468  0.00  0.00    +0.000 A 
ATOM     22  C   UNL     1      -0.127  18.107  17.239  0.00  0.00    +0.000 A 
ATOM     23  C   UNL     1       1.086  18.148  16.554  0.00  0.00    +0.000 A 
ATOM     24  C   UNL     1       2.211  17.536  17.099  0.00  0.00    +0.000 A 
ATOM     25  C   UNL     1       2.119  16.870  18.324  0.00  0.00    +0.000 A 
ENDBRANCH  19  20
ENDBRANCH  18  19
ENDBRANCH   5  18
BRANCH   9  26
ATOM     26  C   UNL     1      -1.102  12.717  18.207  0.00  0.00    +0.000 C 
BRANCH  26  27
ATOM     27  C   UNL     1      -2.267  11.830  17.841  0.00  0.00    +0.000 A 
ATOM     28  C   UNL     1      -3.458  11.899  18.588  0.00  0.00    +0.000 A 
ATOM     29  C   UNL     1      -4.567  11.114  18.256  0.00  0.00    +0.000 A 
ATOM     30  C   UNL     1      -4.487  10.235  17.182  0.00  0.00    +0.000 A 
ATOM     31  C   UNL     1      -3.304  10.145  16.458  0.00  0.00    +0.000 A 
ATOM     32  F   UNL     1      -3.228   9.292  15.427  0.00  0.00    +0.000 F 
ATOM     33  C   UNL     1      -2.196  10.926  16.777  0.00  0.00    +0.000 A 
ENDBRANCH  26  27
ENDBRANCH   9  26
TORSDOF 7
ENDMDL
MODEL 3
REMARK VINA RESULT:      -7.5      7.971      9.520
REMARK  Name = 
REMARK  8 active torsions:
REMARK  status: ('A' for Active; 'I' for Inactive)
REMARK    1  A    between atoms: C_1  and  O_2
REMARK    2  A    between atoms: O_2  and  C_3
REMARK    3  A    between atoms: C_6  and  C_7
REMARK    4  A    between atoms: C_11  and  O_12
REMARK    5  A    between atoms: O_12  and  C_13
REMARK    6  A    between atoms: C_13  and  C_14
REMARK    7  A    between atoms: N_23  and  C_24
REMARK    8  A    between atoms: C_24  and  C_25
REMARK                            x       y       z     vdW  Elec       q    Type
REMARK                         _______ _______ _______ _____ _____    ______ ____
ROOT
ATOM      1  C   UNL     1      -0.315  10.846  19.743  0.00  0.00    +0.000 C 
ATOM      2  C   UNL     1      -0.516  11.169  21.211  0.00  0.00    +0.000 C 
ATOM      3  C   UNL     1      -0.371  12.301  21.928  0.00  0.00    +0.000 C 
ATOM      4  C   UNL     1       0.053  13.665  21.460  0.00  0.00    +0.000 C 
ATOM      5  C   UNL     1       1.540  13.810  21.077  0.00  0.00    +0.000 C 
ATOM      6  C   UNL     1       2.028  12.690  20.144  0.00  0.00    +0.000 C 
ATOM      7  C   UNL     1       1.172  12.699  18.892  0.00  0.00    +0.000 C 
ATOM      8  O   UNL     1       1.522  13.404  17.945  0.00  0.00    +0.000 OA
ATOM      9  N   UNL     1      -0.055  12.038  18.921  0.00  0.00    +0.000 N 
ENDROOT
BRANCH   1  13
ATOM     10  C   UNL     1       2.458   7.557  18.943  0.00  0.00    +0.000 A 
ATOM     11  C   UNL     1       2.076   8.409  17.906  0.00  0.00    +0.000 A 
ATOM     12  C   UNL     1       1.200   9.480  18.135  0.00  0.00    +0.000 A 
ATOM     13  C   UNL     1       0.664   9.709  19.411  0.00  0.00    +0.000 A 
ATOM     14  C   UNL     1       1.062   8.835  20.443  0.00  0.00    +0.000 A 
ATOM     15  C   UNL     1       1.941   7.771  20.214  0.00  0.00    +0.000 A 
BRANCH  10  17
ATOM     16  C   UNL     1       3.521   5.533  19.564  0.00  0.00    +0.000 C 
ATOM     17  O   UNL     1       3.310   6.547  18.588  0.00  0.00    +0.000 OA
ENDBRANCH  10  17
ENDBRANCH   1  13
BRANCH   5  18
ATOM     18  O   UNL     1       1.799  15.053  20.403  0.00  0.00    +0.000 OA
BRANCH  18  19
ATOM     19  C   UNL     1       0.703  15.952  20.307  0.00  0.00    +0.000 C 
BRANCH  19  20
ATOM     20  C   UNL     1       0.740  16.752  19.021  0.00  0.00    +0.000 A 
ATOM     21  C   UNL     1      -0.400  17.347  18.461  0.00  0.00    +0.000 A 
ATOM     22  C   UNL     1      -0.317  18.049  17.254  0.00  0.00    +0.000 A 
ATOM     23  C   UNL     1       0.907  18.174  16.598  0.00  0.00    +0.000 A 
ATOM     24  C   UNL     1       2.051  17.608  17.152  0.00  0.00    +0.000 A 
ATOM     25  C   UNL     1       1.969  16.903  18.356  0.00  0.00    +0.000 A 
ENDBRANCH  19  20
ENDBRANCH  18  19
ENDBRANCH   5  18
BRANCH   9  26
ATOM     26  C   UNL     1      -1.190  12.645  18.219  0.00  0.00    +0.000 C 
BRANCH  26  27
ATOM     27  C   UNL     1      -2.288  11.711  17.770  0.00  0.00    +0.000 A 
ATOM     28  C   UNL     1      -2.064  10.842  16.685  0.00  0.00    +0.000 A 
ATOM     29  C   UNL     1      -3.048   9.942  16.263  0.00  0.00    +0.000 A 
ATOM     30  C   UNL     1      -4.277   9.918  16.912  0.00  0.00    +0.000 A 
ATOM     31  C   UNL     1      -4.511  10.792  17.967  0.00  0.00    +0.000 A 
ATOM     32  F   UNL     1      -5.700  10.771  18.587  0.00  0.00    +0.000 F 
ATOM     33  C   UNL     1      -3.536  11.689  18.398  0.00  0.00    +0.000 A 
ENDBRANCH  26  27
ENDBRANCH   9  26
TORSDOF 7
ENDMDL
MODEL 4
REMARK VINA RESULT:      -7.3      0.813      1.661
REMARK  Name = 
REMARK  8 active torsions:
REMARK  status: ('A' for Active; 'I' for Inactive)
REMARK    1  A    between atoms: C_1  and  O_2
REMARK    2  A    between atoms: O_2  and  C_3
REMARK    3  A    between atoms: C_6  and  C_7
REMARK    4  A    between atoms: C_11  and  O_12
REMARK    5  A    between atoms: O_12  and  C_13
REMARK    6  A    between atoms: C_13  and  C_14
REMARK    7  A    between atoms: N_23  and  C_24
REMARK    8  A    between atoms: C_24  and  C_25
REMARK                            x       y       z     vdW  Elec       q    Type
REMARK                         _______ _______ _______ _____ _____    ______ ____
ROOT
ATOM      1  C   UNL     1       6.286   4.626  17.510  0.00  0.00    +0.000 C 
ATOM      2  C   UNL     1       7.663   4.457  18.124  0.00  0.00    +0.000 C 
ATOM      3  C   UNL     1       8.464   5.289  18.818  0.00  0.00    +0.000 C 
ATOM      4  C   UNL     1       8.217   6.715  19.224  0.00  0.00    +0.000 C 
ATOM      5  C   UNL     1       8.262   7.753  18.083  0.00  0.00    +0.000 C 
ATOM      6  C   UNL     1       7.425   7.334  16.864  0.00  0.00    +0.000 C 
ATOM      7  C   UNL     1       5.991   7.124  17.311  0.00  0.00    +0.000 C 
ATOM      8  O   UNL     1       5.222   8.086  17.293  0.00  0.00    +0.000 OA
ATOM      9  N   UNL     1       5.645   5.897  17.875  0.00  0.00    +0.000 N 
ENDROOT
BRANCH   1  13
ATOM     10  C   UNL     1       5.779   3.787  13.245  0.00  0.00    +0.000 A 
ATOM     11  C   UNL     1       6.996   4.284  13.714  0.00  0.00    +0.000 A 
ATOM     12  C   UNL     1       7.192   4.548  15.077  0.00  0.00    +0.000 A 
ATOM     13  C   UNL     1       6.160   4.343  16.004  0.00  0.00    +0.000 A 
ATOM     14  C   UNL     1       4.940   3.843  15.509  0.00  0.00    +0.000 A 
ATOM     15  C   UNL     1       4.747   3.573  14.150  0.00  0.00    +0.000 A 
BRANCH  10  17
ATOM     16  C   UNL     1       4.448   3.168  11.386  0.00  0.00    +0.000 C 
ATOM     17  O   UNL     1       5.712   3.578  11.895  0.00  0.00    +0.000 OA
ENDBRANCH  10  17
ENDBRANCH   1  13
BRANCH   5  18
ATOM     18  O   UNL     1       7.764   9.033  18.507  0.00  0.00    +0.000 OA
BRANCH  18  19
ATOM     19  C   UNL     1       8.252  10.161  17.793  0.00  0.00    +0.000 C 
BRANCH  19  20
ATOM     20  C   UNL     1       9.407  10.827  18.512  0.00  0.00    +0.000 A 
ATOM     21  C   UNL     1      10.535  11.324  17.843  0.00  0.00    +0.000 A 
ATOM     22  C   UNL     1      11.590  11.902  18.558  0.00  0.00    +0.000 A 
ATOM     23  C   UNL     1      11.524  12.002  19.946  0.00  0.00    +0.000 A 
ATOM     24  C   UNL     1      10.401  11.534  20.622  0.00  0.00    +0.000 A 
ATOM     25  C   UNL     1       9.350  10.952  19.910  0.00  0.00    +0.000 A 
ENDBRANCH  19  20
ENDBRANCH  18  19
ENDBRANCH   5  18
BRANCH   9  26
ATOM     26  C   UNL     1       4.702   5.889  18.999  0.00  0.00    +0.000 C 
BRANCH  26  27
ATOM     27  C   UNL     1       3.514   4.966  18.881  0.00  0.00    +0.000 A 
ATOM     28  C   UNL     1       3.376   3.887  19.774  0.00  0.00    +0.000 A 
ATOM     29  C   UNL     1       2.272   3.032  19.713  0.00  0.00    +0.000 A 
ATOM     30  C   UNL     1       1.300   3.237  18.740  0.00  0.00    +0.000 A 
ATOM     31  C   UNL     1       1.445   4.285  17.839  0.00  0.00    +0.000 A 
ATOM     32  F   UNL     1       0.510   4.477  16.898  0.00  0.00    +0.000 F 
ATOM     33  C   UNL     1       2.539   5.146  17.895  0.00  0.00    +0.000 A 
ENDBRANCH  26  27
ENDBRANCH   9  26
TORSDOF 7
ENDMDL
MODEL 5
REMARK VINA RESULT:      -7.0      8.083      9.617
REMARK  Name = 
REMARK  8 active torsions:
REMARK  status: ('A' for Active; 'I' for Inactive)
REMARK    1  A    between atoms: C_1  and  O_2
REMARK    2  A    between atoms: O_2  and  C_3
REMARK    3  A    between atoms: C_6  and  C_7
REMARK    4  A    between atoms: C_11  and  O_12
REMARK    5  A    between atoms: O_12  and  C_13
REMARK    6  A    between atoms: C_13  and  C_14
REMARK    7  A    between atoms: N_23  and  C_24
REMARK    8  A    between atoms: C_24  and  C_25
REMARK                            x       y       z     vdW  Elec       q    Type
REMARK                         _______ _______ _______ _____ _____    ______ ____
ROOT
ATOM      1  C   UNL     1      -0.382  10.829  19.779  0.00  0.00    +0.000 C 
ATOM      2  C   UNL     1      -0.732  11.121  21.225  0.00  0.00    +0.000 C 
ATOM      3  C   UNL     1      -0.649  12.235  21.980  0.00  0.00    +0.000 C 
ATOM      4  C   UNL     1      -0.162  13.603  21.592  0.00  0.00    +0.000 C 
ATOM      5  C   UNL     1       1.360  13.734  21.371  0.00  0.00    +0.000 C 
ATOM      6  C   UNL     1       1.928  12.628  20.468  0.00  0.00    +0.000 C 
ATOM      7  C   UNL     1       1.209  12.678  19.134  0.00  0.00    +0.000 C 
ATOM      8  O   UNL     1       1.666  13.399  18.246  0.00  0.00    +0.000 OA
ATOM      9  N   UNL     1      -0.021  12.034  19.018  0.00  0.00    +0.000 N 
ENDROOT
BRANCH   1  13
ATOM     10  C   UNL     1       2.428   7.524  19.200  0.00  0.00    +0.000 A 
ATOM     11  C   UNL     1       2.095   8.347  18.123  0.00  0.00    +0.000 A 
ATOM     12  C   UNL     1       1.208   9.422  18.282  0.00  0.00    +0.000 A 
ATOM     13  C   UNL     1       0.613   9.685  19.525  0.00  0.00    +0.000 A 
ATOM     14  C   UNL     1       0.962   8.841  20.598  0.00  0.00    +0.000 A 
ATOM     15  C   UNL     1       1.852   7.772  20.439  0.00  0.00    +0.000 A 
BRANCH  10  17
ATOM     16  C   UNL     1       3.808   6.475  17.586  0.00  0.00    +0.000 C 
ATOM     17  O   UNL     1       3.296   6.507  18.914  0.00  0.00    +0.000 OA
ENDBRANCH  10  17
ENDBRANCH   1  13
BRANCH   5  18
ATOM     18  O   UNL     1       1.704  14.988  20.758  0.00  0.00    +0.000 OA
BRANCH  18  19
ATOM     19  C   UNL     1       0.758  16.037  20.909  0.00  0.00    +0.000 C 
BRANCH  19  20
ATOM     20  C   UNL     1       0.558  16.806  19.619  0.00  0.00    +0.000 A 
ATOM     21  C   UNL     1      -0.422  16.467  18.675  0.00  0.00    +0.000 A 
ATOM     22  C   UNL     1      -0.545  17.191  17.483  0.00  0.00    +0.000 A 
ATOM     23  C   UNL     1       0.302  18.268  17.228  0.00  0.00    +0.000 A 
ATOM     24  C   UNL     1       1.265  18.630  18.165  0.00  0.00    +0.000 A 
ATOM     25  C   UNL     1       1.391  17.906  19.352  0.00  0.00    +0.000 A 
ENDBRANCH  19  20
ENDBRANCH  18  19
ENDBRANCH   5  18
BRANCH   9  26
ATOM     26  C   UNL     1      -1.069  12.674  18.215  0.00  0.00    +0.000 C 
BRANCH  26  27
ATOM     27  C   UNL     1      -2.248  11.815  17.830  0.00  0.00    +0.000 A 
ATOM     28  C   UNL     1      -3.429  11.865  18.595  0.00  0.00    +0.000 A 
ATOM     29  C   UNL     1      -4.551  11.106  18.247  0.00  0.00    +0.000 A 
ATOM     30  C   UNL     1      -4.495  10.271  17.138  0.00  0.00    +0.000 A 
ATOM     31  C   UNL     1      -3.323  10.198  16.394  0.00  0.00    +0.000 A 
ATOM     32  F   UNL     1      -3.270   9.387  15.328  0.00  0.00    +0.000 F 
ATOM     33  C   UNL     1      -2.202  10.954  16.729  0.00  0.00    +0.000 A 
ENDBRANCH  26  27
ENDBRANCH   9  26
TORSDOF 7
ENDMDL
MODEL 6
REMARK VINA RESULT:      -7.0      7.242     10.976
REMARK  Name = 
REMARK  8 active torsions:
REMARK  status: ('A' for Active; 'I' for Inactive)
REMARK    1  A    between atoms: C_1  and  O_2
REMARK    2  A    between atoms: O_2  and  C_3
REMARK    3  A    between atoms: C_6  and  C_7
REMARK    4  A    between atoms: C_11  and  O_12
REMARK    5  A    between atoms: O_12  and  C_13
REMARK    6  A    between atoms: C_13  and  C_14
REMARK    7  A    between atoms: N_23  and  C_24
REMARK    8  A    between atoms: C_24  and  C_25
REMARK                            x       y       z     vdW  Elec       q    Type
REMARK                         _______ _______ _______ _____ _____    ______ ____
ROOT
ATOM      1  C   UNL     1      -0.613  11.375  19.437  0.00  0.00    +0.000 C 
ATOM      2  C   UNL     1       0.583  11.402  18.505  0.00  0.00    +0.000 C 
ATOM      3  C   UNL     1       1.464  10.457  18.119  0.00  0.00    +0.000 C 
ATOM      4  C   UNL     1       1.526   9.008  18.513  0.00  0.00    +0.000 C 
ATOM      5  C   UNL     1       1.980   8.727  19.960  0.00  0.00    +0.000 C 
ATOM      6  C   UNL     1       1.238   9.588  20.996  0.00  0.00    +0.000 C 
ATOM      7  C   UNL     1      -0.249   9.326  20.864  0.00  0.00    +0.000 C 
ATOM      8  O   UNL     1      -0.746   8.411  21.523  0.00  0.00    +0.000 OA
ATOM      9  N   UNL     1      -0.962  10.020  19.888  0.00  0.00    +0.000 N 
ENDROOT
BRANCH   1  13
ATOM     10  C   UNL     1      -0.450  14.272  22.713  0.00  0.00    +0.000 A 
ATOM     11  C   UNL     1      -1.551  13.423  22.592  0.00  0.00    +0.000 A 
ATOM     12  C   UNL     1      -1.624  12.476  21.562  0.00  0.00    +0.000 A 
ATOM     13  C   UNL     1      -0.601  12.372  20.607  0.00  0.00    +0.000 A 
ATOM     14  C   UNL     1       0.500  13.239  20.748  0.00  0.00    +0.000 A 
ATOM     15  C   UNL     1       0.575  14.180  21.780  0.00  0.00    +0.000 A 
BRANCH  10  17
ATOM     16  C   UNL     1       0.017  16.457  23.501  0.00  0.00    +0.000 C 
ATOM     17  O   UNL     1      -0.502  15.156  23.755  0.00  0.00    +0.000 OA
ENDBRANCH  10  17
ENDBRANCH   1  13
BRANCH   5  18
ATOM     18  O   UNL     1       1.763   7.355  20.331  0.00  0.00    +0.000 OA
BRANCH  18  19
ATOM     19  C   UNL     1       2.721   6.420  19.852  0.00  0.00    +0.000 C 
BRANCH  19  20
ATOM     20  C   UNL     1       2.094   5.074  19.555  0.00  0.00    +0.000 A 
ATOM     21  C   UNL     1       1.952   4.571  18.254  0.00  0.00    +0.000 A 
ATOM     22  C   UNL     1       1.336   3.334  18.031  0.00  0.00    +0.000 A 
ATOM     23  C   UNL     1       0.867   2.581  19.106  0.00  0.00    +0.000 A 
ATOM     24  C   UNL     1       1.021   3.057  20.405  0.00  0.00    +0.000 A 
ATOM     25  C   UNL     1       1.631   4.293  20.628  0.00  0.00    +0.000 A 
ENDBRANCH  19  20
ENDBRANCH  18  19
ENDBRANCH   5  18
BRANCH   9  26
ATOM     26  C   UNL     1      -2.021   9.310  19.162  0.00  0.00    +0.000 C 
BRANCH  26  27
ATOM     27  C   UNL     1      -2.643  10.032  17.992  0.00  0.00    +0.000 A 
ATOM     28  C   UNL     1      -3.654  10.987  18.219  0.00  0.00    +0.000 A 
ATOM     29  C   UNL     1      -4.229  11.697  17.161  0.00  0.00    +0.000 A 
ATOM     30  C   UNL     1      -3.812  11.444  15.860  0.00  0.00    +0.000 A 
ATOM     31  C   UNL     1      -2.834  10.485  15.628  0.00  0.00    +0.000 A 
ATOM     32  F   UNL     1      -2.438  10.238  14.372  0.00  0.00    +0.000 F 
ATOM     33  C   UNL     1      -2.250   9.775  16.676  0.00  0.00    +0.000 A 
ENDBRANCH  26  27
ENDBRANCH   9  26
TORSDOF 7
ENDMDL
MODEL 7
REMARK VINA RESULT:      -7.0      7.393     11.070
REMARK  Name = 
REMARK  8 active torsions:
REMARK  status: ('A' for Active; 'I' for Inactive)
REMARK    1  A    between atoms: C_1  and  O_2
REMARK    2  A    between atoms: O_2  and  C_3
REMARK    3  A    between atoms: C_6  and  C_7
REMARK    4  A    between atoms: C_11  and  O_12
REMARK    5  A    between atoms: O_12  and  C_13
REMARK    6  A    between atoms: C_13  and  C_14
REMARK    7  A    between atoms: N_23  and  C_24
REMARK    8  A    between atoms: C_24  and  C_25
REMARK                            x       y       z     vdW  Elec       q    Type
REMARK                         _______ _______ _______ _____ _____    ______ ____
ROOT
ATOM      1  C   UNL     1      -0.656  11.450  19.468  0.00  0.00    +0.000 C 
ATOM      2  C   UNL     1       0.525  11.470  18.517  0.00  0.00    +0.000 C 
ATOM      3  C   UNL     1       1.391  10.519  18.112  0.00  0.00    +0.000 C 
ATOM      4  C   UNL     1       1.446   9.068  18.498  0.00  0.00    +0.000 C 
ATOM      5  C   UNL     1       1.920   8.776  19.937  0.00  0.00    +0.000 C 
ATOM      6  C   UNL     1       1.203   9.638  20.988  0.00  0.00    +0.000 C 
ATOM      7  C   UNL     1      -0.289   9.390  20.879  0.00  0.00    +0.000 C 
ATOM      8  O   UNL     1      -0.784   8.477  21.542  0.00  0.00    +0.000 OA
ATOM      9  N   UNL     1      -1.011  10.096  19.918  0.00  0.00    +0.000 N 
ENDROOT
BRANCH   1  13
ATOM     10  C   UNL     1      -0.413  14.328  22.756  0.00  0.00    +0.000 A 
ATOM     11  C   UNL     1      -1.528  13.496  22.643  0.00  0.00    +0.000 A 
ATOM     12  C   UNL     1      -1.627  12.555  21.609  0.00  0.00    +0.000 A 
ATOM     13  C   UNL     1      -0.616  12.441  20.643  0.00  0.00    +0.000 A 
ATOM     14  C   UNL     1       0.499  13.291  20.774  0.00  0.00    +0.000 A 
ATOM     15  C   UNL     1       0.600  14.226  21.811  0.00  0.00    +0.000 A 
BRANCH  10  17
ATOM     16  C   UNL     1      -0.741  16.560  23.477  0.00  0.00    +0.000 C 
ATOM     17  O   UNL     1      -0.441  15.208  23.802  0.00  0.00    +0.000 OA
ENDBRANCH  10  17
ENDBRANCH   1  13
BRANCH   5  18
ATOM     18  O   UNL     1       1.696   7.404  20.305  0.00  0.00    +0.000 OA
BRANCH  18  19
ATOM     19  C   UNL     1       2.680   6.473  19.874  0.00  0.00    +0.000 C 
BRANCH  19  20
ATOM     20  C   UNL     1       2.085   5.108  19.602  0.00  0.00    +0.000 A 
ATOM     21  C   UNL     1       1.914   4.596  18.308  0.00  0.00    +0.000 A 
ATOM     22  C   UNL     1       1.328   3.340  18.110  0.00  0.00    +0.000 A 
ATOM     23  C   UNL     1       0.918   2.578  19.202  0.00  0.00    +0.000 A 
ATOM     24  C   UNL     1       1.101   3.063  20.494  0.00  0.00    +0.000 A 
ATOM     25  C   UNL     1       1.682   4.318  20.692  0.00  0.00    +0.000 A 
ENDBRANCH  19  20
ENDBRANCH  18  19
ENDBRANCH   5  18
BRANCH   9  26
ATOM     26  C   UNL     1      -2.087   9.399  19.205  0.00  0.00    +0.000 C 
BRANCH  26  27
ATOM     27  C   UNL     1      -2.647  10.086  17.983  0.00  0.00    +0.000 A 
ATOM     28  C   UNL     1      -2.094   9.818  16.717  0.00  0.00    +0.000 A 
ATOM     29  C   UNL     1      -2.609  10.413  15.561  0.00  0.00    +0.000 A 
ATOM     30  C   UNL     1      -3.674  11.300  15.664  0.00  0.00    +0.000 A 
ATOM     31  C   UNL     1      -4.207  11.587  16.915  0.00  0.00    +0.000 A 
ATOM     32  F   UNL     1      -5.230  12.448  17.012  0.00  0.00    +0.000 F 
ATOM     33  C   UNL     1      -3.704  10.996  18.072  0.00  0.00    +0.000 A 
ENDBRANCH  26  27
ENDBRANCH   9  26
TORSDOF 7
ENDMDL
MODEL 8
REMARK VINA RESULT:      -6.9      8.377     11.487
REMARK  Name = 
REMARK  8 active torsions:
REMARK  status: ('A' for Active; 'I' for Inactive)
REMARK    1  A    between atoms: C_1  and  O_2
REMARK    2  A    between atoms: O_2  and  C_3
REMARK    3  A    between atoms: C_6  and  C_7
REMARK    4  A    between atoms: C_11  and  O_12
REMARK    5  A    between atoms: O_12  and  C_13
REMARK    6  A    between atoms: C_13  and  C_14
REMARK    7  A    between atoms: N_23  and  C_24
REMARK    8  A    between atoms: C_24  and  C_25
REMARK                            x       y       z     vdW  Elec       q    Type
REMARK                         _______ _______ _______ _____ _____    ______ ____
ROOT
ATOM      1  C   UNL     1      -0.971  13.195  20.080  0.00  0.00    +0.000 C 
ATOM      2  C   UNL     1      -1.559  12.683  18.779  0.00  0.00    +0.000 C 
ATOM      3  C   UNL     1      -1.502  11.488  18.157  0.00  0.00    +0.000 C 
ATOM      4  C   UNL     1      -0.805  10.230  18.592  0.00  0.00    +0.000 C 
ATOM      5  C   UNL     1       0.735  10.256  18.512  0.00  0.00    +0.000 C 
ATOM      6  C   UNL     1       1.344  11.517  19.147  0.00  0.00    +0.000 C 
ATOM      7  C   UNL     1       0.904  11.588  20.597  0.00  0.00    +0.000 C 
ATOM      8  O   UNL     1       1.597  11.032  21.450  0.00  0.00    +0.000 OA
ATOM      9  N   UNL     1      -0.344  12.137  20.885  0.00  0.00    +0.000 N 
ENDROOT
BRANCH   1  13
ATOM     10  C   UNL     1       1.523  16.769  19.690  0.00  0.00    +0.000 A 
ATOM     11  C   UNL     1       1.502  16.067  20.895  0.00  0.00    +0.000 A 
ATOM     12  C   UNL     1       0.724  14.910  21.045  0.00  0.00    +0.000 A 
ATOM     13  C   UNL     1      -0.076  14.441  19.992  0.00  0.00    +0.000 A 
ATOM     14  C   UNL     1      -0.041  15.166  18.785  0.00  0.00    +0.000 A 
ATOM     15  C   UNL     1       0.741  16.317  18.635  0.00  0.00    +0.000 A 
BRANCH  10  17
ATOM     16  C   UNL     1       3.556  17.781  20.364  0.00  0.00    +0.000 C 
ATOM     17  O   UNL     1       2.316  17.884  19.674  0.00  0.00    +0.000 OA
ENDBRANCH  10  17
ENDBRANCH   1  13
BRANCH   5  18
ATOM     18  O   UNL     1       1.324   9.129  19.183  0.00  0.00    +0.000 OA
BRANCH  18  19
ATOM     19  C   UNL     1       2.232   8.350  18.417  0.00  0.00    +0.000 C 
BRANCH  19  20
ATOM     20  C   UNL     1       2.251   6.903  18.864  0.00  0.00    +0.000 A 
ATOM     21  C   UNL     1       2.557   5.843  17.998  0.00  0.00    +0.000 A 
ATOM     22  C   UNL     1       2.529   4.520  18.454  0.00  0.00    +0.000 A 
ATOM     23  C   UNL     1       2.207   4.243  19.781  0.00  0.00    +0.000 A 
ATOM     24  C   UNL     1       1.922   5.285  20.658  0.00  0.00    +0.000 A 
ATOM     25  C   UNL     1       1.946   6.606  20.203  0.00  0.00    +0.000 A 
ENDBRANCH  19  20
ENDBRANCH  18  19
ENDBRANCH   5  18
BRANCH   9  26
ATOM     26  C   UNL     1      -1.143  11.527  21.953  0.00  0.00    +0.000 C 
BRANCH  26  27
ATOM     27  C   UNL     1      -1.864  12.470  22.885  0.00  0.00    +0.000 A 
ATOM     28  C   UNL     1      -1.185  13.584  23.413  0.00  0.00    +0.000 A 
ATOM     29  C   UNL     1      -1.832  14.496  24.253  0.00  0.00    +0.000 A 
ATOM     30  C   UNL     1      -3.164  14.289  24.591  0.00  0.00    +0.000 A 
ATOM     31  C   UNL     1      -3.832  13.176  24.093  0.00  0.00    +0.000 A 
ATOM     32  F   UNL     1      -5.115  12.975  24.425  0.00  0.00    +0.000 F 
ATOM     33  C   UNL     1      -3.198  12.265  23.251  0.00  0.00    +0.000 A 
ENDBRANCH  26  27
ENDBRANCH   9  26
TORSDOF 7
ENDMDL
MODEL 9
REMARK VINA RESULT:      -6.9      6.389      9.998
REMARK  Name = 
REMARK  8 active torsions:
REMARK  status: ('A' for Active; 'I' for Inactive)
REMARK    1  A    between atoms: C_1  and  O_2
REMARK    2  A    between atoms: O_2  and  C_3
REMARK    3  A    between atoms: C_6  and  C_7
REMARK    4  A    between atoms: C_11  and  O_12
REMARK    5  A    between atoms: O_12  and  C_13
REMARK    6  A    between atoms: C_13  and  C_14
REMARK    7  A    between atoms: N_23  and  C_24
REMARK    8  A    between atoms: C_24  and  C_25
REMARK                            x       y       z     vdW  Elec       q    Type
REMARK                         _______ _______ _______ _____ _____    ______ ____
ROOT
ATOM      1  C   UNL     1      -0.312  10.650  19.738  0.00  0.00    +0.000 C 
ATOM      2  C   UNL     1      -0.545   9.597  20.804  0.00  0.00    +0.000 C 
ATOM      3  C   UNL     1       0.218   8.594  21.283  0.00  0.00    +0.000 C 
ATOM      4  C   UNL     1       1.614   8.200  20.888  0.00  0.00    +0.000 C 
ATOM      5  C   UNL     1       1.755   7.539  19.501  0.00  0.00    +0.000 C 
ATOM      6  C   UNL     1       1.027   8.316  18.393  0.00  0.00    +0.000 C 
ATOM      7  C   UNL     1       1.581   9.727  18.348  0.00  0.00    +0.000 C 
ATOM      8  O   UNL     1       2.555   9.954  17.629  0.00  0.00    +0.000 OA
ATOM      9  N   UNL     1       1.072  10.669  19.240  0.00  0.00    +0.000 N 
ENDROOT
BRANCH   1  13
ATOM     10  C   UNL     1      -3.261  10.677  16.506  0.00  0.00    +0.000 A 
ATOM     11  C   UNL     1      -2.390  11.757  16.658  0.00  0.00    +0.000 A 
ATOM     12  C   UNL     1      -1.425  11.769  17.676  0.00  0.00    +0.000 A 
ATOM     13  C   UNL     1      -1.326  10.706  18.585  0.00  0.00    +0.000 A 
ATOM     14  C   UNL     1      -2.216   9.627  18.414  0.00  0.00    +0.000 A 
ATOM     15  C   UNL     1      -3.175   9.613  17.394  0.00  0.00    +0.000 A 
BRANCH  10  17
ATOM     16  C   UNL     1      -3.827  10.108  14.277  0.00  0.00    +0.000 C 
ATOM     17  O   UNL     1      -4.160  10.789  15.481  0.00  0.00    +0.000 OA
ENDBRANCH  10  17
ENDBRANCH   1  13
BRANCH   5  18
ATOM     18  O   UNL     1       3.131   7.435  19.097  0.00  0.00    +0.000 OA
BRANCH  18  19
ATOM     19  C   UNL     1       3.755   6.178  19.323  0.00  0.00    +0.000 C 
BRANCH  19  20
ATOM     20  C   UNL     1       2.744   5.052  19.400  0.00  0.00    +0.000 A 
ATOM     21  C   UNL     1       2.182   4.454  18.263  0.00  0.00    +0.000 A 
ATOM     22  C   UNL     1       1.227   3.439  18.391  0.00  0.00    +0.000 A 
ATOM     23  C   UNL     1       0.832   3.002  19.654  0.00  0.00    +0.000 A 
ATOM     24  C   UNL     1       1.397   3.571  20.792  0.00  0.00    +0.000 A 
ATOM     25  C   UNL     1       2.347   4.587  20.666  0.00  0.00    +0.000 A 
ENDBRANCH  19  20
ENDBRANCH  18  19
ENDBRANCH   5  18
BRANCH   9  26
ATOM     26  C   UNL     1       1.998  11.640  19.832  0.00  0.00    +0.000 C 
BRANCH  26  27
ATOM     27  C   UNL     1       1.935  13.050  19.301  0.00  0.00    +0.000 A 
ATOM     28  C   UNL     1       0.901  13.909  19.721  0.00  0.00    +0.000 A 
ATOM     29  C   UNL     1       0.831  15.232  19.273  0.00  0.00    +0.000 A 
ATOM     30  C   UNL     1       1.787  15.704  18.381  0.00  0.00    +0.000 A 
ATOM     31  C   UNL     1       2.794  14.852  17.942  0.00  0.00    +0.000 A 
ATOM     32  F   UNL     1       3.711  15.308  17.077  0.00  0.00    +0.000 F 
ATOM     33  C   UNL     1       2.876  13.534  18.387  0.00  0.00    +0.000 A 
ENDBRANCH  26  27
ENDBRANCH   9  26
TORSDOF 7
ENDMDL
