MODEL 1
REMARK VINA RESULT:      -6.6      0.000      0.000
REMARK  Name = 
REMARK  9 active torsions:
REMARK  status: ('A' for Active; 'I' for Inactive)
REMARK    1  A    between atoms: C_1  and  C_2
REMARK    2  A    between atoms: C_5  and  C_6
REMARK    3  A    between atoms: C_7  and  C_8
REMARK    4  A    between atoms: C_14  and  N_15
REMARK    5  A    between atoms: C_14  and  C_20
REMARK    6  A    between atoms: N_15  and  CA_16
REMARK    7  A    between atoms: CA_16  and  CB_17
REMARK    8  A    between atoms: CA_16  and  C_18
REMARK    9  A    between atoms: C_18  and  O_19
REMARK                            x       y       z     vdW  Elec       q    Type
REMARK                         _______ _______ _______ _____ _____    ______ ____
ROOT
ATOM      1  C   UNK A   0      -3.964  11.840  18.829  0.00  0.00    +0.000 A 
ATOM      2  C   UNK A   0      -4.050  10.712  17.980  0.00  0.00    +0.000 A 
ATOM      3  C   UNK A   0      -2.916  10.048  17.511  0.00  0.00    +0.000 A 
ATOM      4  C   UNK A   0      -1.702  10.503  17.956  0.00  0.00    +0.000 A 
ATOM      5  C   UNK A   0      -1.567  11.610  18.792  0.00  0.00    +0.000 A 
ATOM      6  C   UNK A   0      -2.691  12.310  19.201  0.00  0.00    +0.000 A 
ATOM      7  C   UNK A   0      -0.096  11.804  19.146  0.00  0.00    +0.000 C 
ATOM      8  C   UNK A   0       0.525  10.518  18.476  0.00  0.00    +0.000 C 
ATOM      9  O   UNK A   0       1.653  10.055  18.599  0.00  0.00    +0.000 OA
ATOM     10  N   UNK A   0      -0.474   9.902  17.742  0.00  0.00    +0.000 N 
ATOM     11  H   UNK A   0      -0.323   9.034  17.248  0.00  0.00    +0.000 HD
ENDROOT
BRANCH   1  18
ATOM     12  C   UNK A   0      -4.728  12.683  21.964  0.00  0.00    +0.000 C 
ATOM     13  C   UNK A   0      -5.509  12.833  20.709  0.00  0.00    +0.000 A 
ATOM     14  N   UNK A   0      -6.740  13.354  20.773  0.00  0.00    +0.000 NA
ATOM     15  O   UNK A   0      -7.231  13.322  19.489  0.00  0.00    +0.000 OA
ATOM     16  C   UNK A   0      -6.304  12.786  18.651  0.00  0.00    +0.000 A 
ATOM     17  C   UNK A   0      -6.721  12.697  17.236  0.00  0.00    +0.000 C 
ATOM     18  C   UNK A   0      -5.168  12.461  19.371  0.00  0.00    +0.000 A 
ENDBRANCH   1  18
BRANCH   7  19
ATOM     19  C   UNK A   0       0.421  13.159  18.519  0.00  0.00    +0.000 C 
ATOM     20  C   UNK A   0      -0.066  14.451  19.211  0.00  0.00    +0.000 C 
ATOM     21  C   UNK A   0       0.736  14.877  20.439  0.00  0.00    +0.000 C 
ATOM     22  C   UNK A   0       2.247  14.856  20.234  0.00  0.00    +0.000 C 
ATOM     23  C   UNK A   0       2.757  13.607  19.525  0.00  0.00    +0.000 C 
ATOM     24  C   UNK A   0       1.948  13.284  18.276  0.00  0.00    +0.000 C 
ENDBRANCH   7  19
BRANCH   7  25
ATOM     25  N   ALA A   1       0.137  11.799  20.613  0.00  0.00    +0.000 NA
ATOM     26  H   ALA A   1       0.108  12.737  21.002  0.00  0.00    +0.000 HD
BRANCH  25  27
ATOM     27  CA  ALA A   1      -0.552  10.821  21.485  0.00  0.00    +0.000 C 
ATOM     28  CB  ALA A   1      -1.292  11.391  22.696  0.00  0.00    +0.000 C 
BRANCH  27  29
ATOM     29  C   ALA A   1       0.485   9.793  22.022  0.00  0.00    +0.000 C 
BRANCH  29  30
ATOM     30  O   ALA A   1       0.564   9.781  23.444  0.00  0.00    +0.000 OA
ATOM     31  H   ALA A   1      -0.180  10.323  23.770  0.00  0.00    +0.000 HD
ENDBRANCH  29  30
ENDBRANCH  27  29
ENDBRANCH  25  27
ENDBRANCH   7  25
TORSDOF 6
ENDMDL
MODEL 2
REMARK VINA RESULT:      -6.5      3.128      7.015
REMARK  Name = 
REMARK  9 active torsions:
REMARK  status: ('A' for Active; 'I' for Inactive)
REMARK    1  A    between atoms: C_1  and  C_2
REMARK    2  A    between atoms: C_5  and  C_6
REMARK    3  A    between atoms: C_7  and  C_8
REMARK    4  A    between atoms: C_14  and  N_15
REMARK    5  A    between atoms: C_14  and  C_20
REMARK    6  A    between atoms: N_15  and  CA_16
REMARK    7  A    between atoms: CA_16  and  CB_17
REMARK    8  A    between atoms: CA_16  and  C_18
REMARK    9  A    between atoms: C_18  and  O_19
REMARK                            x       y       z     vdW  Elec       q    Type
REMARK                         _______ _______ _______ _____ _____    ______ ____
ROOT
ATOM      1  C   UNK A   0       1.728   7.948  19.992  0.00  0.00    +0.000 A 
ATOM      2  C   UNK A   0       1.752   8.066  21.402  0.00  0.00    +0.000 A 
ATOM      3  C   UNK A   0       1.097   9.100  22.070  0.00  0.00    +0.000 A 
ATOM      4  C   UNK A   0       0.374   9.977  21.303  0.00  0.00    +0.000 A 
ATOM      5  C   UNK A   0       0.322   9.902  19.912  0.00  0.00    +0.000 A 
ATOM      6  C   UNK A   0       1.029   8.914  19.244  0.00  0.00    +0.000 A 
ATOM      7  C   UNK A   0      -0.616  10.981  19.379  0.00  0.00    +0.000 C 
ATOM      8  C   UNK A   0      -1.179  11.557  20.736  0.00  0.00    +0.000 C 
ATOM      9  O   UNK A   0      -2.116  12.325  20.915  0.00  0.00    +0.000 OA
ATOM     10  N   UNK A   0      -0.467  10.972  21.769  0.00  0.00    +0.000 N 
ATOM     11  H   UNK A   0      -0.673  11.160  22.740  0.00  0.00    +0.000 HD
ENDROOT
BRANCH   1  18
ATOM     12  C   UNK A   0       3.759   7.844  17.350  0.00  0.00    +0.000 C 
ATOM     13  C   UNK A   0       3.226   6.747  18.197  0.00  0.00    +0.000 A 
ATOM     14  N   UNK A   0       3.544   5.483  17.894  0.00  0.00    +0.000 NA
ATOM     15  O   UNK A   0       2.877   4.696  18.804  0.00  0.00    +0.000 OA
ATOM     16  C   UNK A   0       2.160   5.478  19.655  0.00  0.00    +0.000 A 
ATOM     17  C   UNK A   0       1.395   4.740  20.683  0.00  0.00    +0.000 C 
ATOM     18  C   UNK A   0       2.351   6.809  19.327  0.00  0.00    +0.000 A 
ENDBRANCH   1  18
BRANCH   7  19
ATOM     19  C   UNK A   0       0.214  12.030  18.540  0.00  0.00    +0.000 C 
ATOM     20  C   UNK A   0      -0.392  13.447  18.444  0.00  0.00    +0.000 C 
ATOM     21  C   UNK A   0      -0.094  14.367  19.626  0.00  0.00    +0.000 C 
ATOM     22  C   UNK A   0       1.371  14.384  20.048  0.00  0.00    +0.000 C 
ATOM     23  C   UNK A   0       2.009  13.003  20.122  0.00  0.00    +0.000 C 
ATOM     24  C   UNK A   0       1.722  12.169  18.881  0.00  0.00    +0.000 C 
ENDBRANCH   7  19
BRANCH   7  25
ATOM     25  N   ALA A   1      -1.712  10.416  18.550  0.00  0.00    +0.000 NA
ATOM     26  H   ALA A   1      -2.305   9.790  19.087  0.00  0.00    +0.000 HD
BRANCH  25  27
ATOM     27  CA  ALA A   1      -2.504  11.285  17.650  0.00  0.00    +0.000 C 
ATOM     28  CB  ALA A   1      -3.954  11.546  18.058  0.00  0.00    +0.000 C 
BRANCH  27  29
ATOM     29  C   ALA A   1      -2.531  10.658  16.226  0.00  0.00    +0.000 C 
BRANCH  29  30
ATOM     30  O   ALA A   1      -3.170  11.496  15.268  0.00  0.00    +0.000 OA
ATOM     31  H   ALA A   1      -3.684  12.156  15.771  0.00  0.00    +0.000 HD
ENDBRANCH  29  30
ENDBRANCH  27  29
ENDBRANCH  25  27
ENDBRANCH   7  25
TORSDOF 6
ENDMDL
MODEL 3
REMARK VINA RESULT:      -6.5      2.981      6.842
REMARK  Name = 
REMARK  9 active torsions:
REMARK  status: ('A' for Active; 'I' for Inactive)
REMARK    1  A    between atoms: C_1  and  C_2
REMARK    2  A    between atoms: C_5  and  C_6
REMARK    3  A    between atoms: C_7  and  C_8
REMARK    4  A    between atoms: C_14  and  N_15
REMARK    5  A    between atoms: C_14  and  C_20
REMARK    6  A    between atoms: N_15  and  CA_16
REMARK    7  A    between atoms: CA_16  and  CB_17
REMARK    8  A    between atoms: CA_16  and  C_18
REMARK    9  A    between atoms: C_18  and  O_19
REMARK                            x       y       z     vdW  Elec       q    Type
REMARK                         _______ _______ _______ _____ _____    ______ ____
ROOT
ATOM      1  C   UNK A   0       1.635   8.069  20.047  0.00  0.00    +0.000 A 
ATOM      2  C   UNK A   0       1.162   7.913  21.371  0.00  0.00    +0.000 A 
ATOM      3  C   UNK A   0       0.500   8.938  22.047  0.00  0.00    +0.000 A 
ATOM      4  C   UNK A   0       0.273  10.097  21.352  0.00  0.00    +0.000 A 
ATOM      5  C   UNK A   0       0.721  10.298  20.047  0.00  0.00    +0.000 A 
ATOM      6  C   UNK A   0       1.439   9.304  19.400  0.00  0.00    +0.000 A 
ATOM      7  C   UNK A   0       0.248  11.660  19.551  0.00  0.00    +0.000 C 
ATOM      8  C   UNK A   0      -0.662  12.099  20.763  0.00  0.00    +0.000 C 
ATOM      9  O   UNK A   0      -1.450  13.034  20.834  0.00  0.00    +0.000 OA
ATOM     10  N   UNK A   0      -0.492  11.170  21.774  0.00  0.00    +0.000 N 
ATOM     11  H   UNK A   0      -1.002  11.220  22.645  0.00  0.00    +0.000 HD
ENDROOT
BRANCH   1  18
ATOM     12  C   UNK A   0       3.558   8.047  17.323  0.00  0.00    +0.000 C 
ATOM     13  C   UNK A   0       3.077   6.927  18.171  0.00  0.00    +0.000 A 
ATOM     14  N   UNK A   0       3.403   5.674  17.831  0.00  0.00    +0.000 NA
ATOM     15  O   UNK A   0       2.787   4.859  18.753  0.00  0.00    +0.000 OA
ATOM     16  C   UNK A   0       2.093   5.614  19.647  0.00  0.00    +0.000 A 
ATOM     17  C   UNK A   0       1.383   4.845  20.691  0.00  0.00    +0.000 C 
ATOM     18  C   UNK A   0       2.248   6.953  19.336  0.00  0.00    +0.000 A 
ENDBRANCH   1  18
BRANCH   7  19
ATOM     19  C   UNK A   0       1.497  12.599  19.323  0.00  0.00    +0.000 C 
ATOM     20  C   UNK A   0       1.277  13.795  18.371  0.00  0.00    +0.000 C 
ATOM     21  C   UNK A   0       0.642  15.030  19.008  0.00  0.00    +0.000 C 
ATOM     22  C   UNK A   0       1.276  15.444  20.330  0.00  0.00    +0.000 C 
ATOM     23  C   UNK A   0       1.536  14.282  21.282  0.00  0.00    +0.000 C 
ATOM     24  C   UNK A   0       2.229  13.116  20.590  0.00  0.00    +0.000 C 
ENDBRANCH   7  19
BRANCH   7  25
ATOM     25  N   ALA A   1      -0.550  11.560  18.301  0.00  0.00    +0.000 NA
ATOM     26  H   ALA A   1       0.044  11.471  17.482  0.00  0.00    +0.000 HD
BRANCH  25  27
ATOM     27  CA  ALA A   1      -1.728  10.666  18.226  0.00  0.00    +0.000 C 
ATOM     28  CB  ALA A   1      -1.795   9.727  17.021  0.00  0.00    +0.000 C 
BRANCH  27  29
ATOM     29  C   ALA A   1      -3.025  11.527  18.211  0.00  0.00    +0.000 C 
BRANCH  29  30
ATOM     30  O   ALA A   1      -3.446  11.865  16.894  0.00  0.00    +0.000 OA
ATOM     31  H   ALA A   1      -2.637  12.046  16.379  0.00  0.00    +0.000 HD
ENDBRANCH  29  30
ENDBRANCH  27  29
ENDBRANCH  25  27
ENDBRANCH   7  25
TORSDOF 6
ENDMDL
MODEL 4
REMARK VINA RESULT:      -6.5      2.952      6.744
REMARK  Name = 
REMARK  9 active torsions:
REMARK  status: ('A' for Active; 'I' for Inactive)
REMARK    1  A    between atoms: C_1  and  C_2
REMARK    2  A    between atoms: C_5  and  C_6
REMARK    3  A    between atoms: C_7  and  C_8
REMARK    4  A    between atoms: C_14  and  N_15
REMARK    5  A    between atoms: C_14  and  C_20
REMARK    6  A    between atoms: N_15  and  CA_16
REMARK    7  A    between atoms: CA_16  and  CB_17
REMARK    8  A    between atoms: CA_16  and  C_18
REMARK    9  A    between atoms: C_18  and  O_19
REMARK                            x       y       z     vdW  Elec       q    Type
REMARK                         _______ _______ _______ _____ _____    ______ ____
ROOT
ATOM      1  C   UNK A   0       1.586   8.086  20.060  0.00  0.00    +0.000 A 
ATOM      2  C   UNK A   0       1.132   7.947  21.393  0.00  0.00    +0.000 A 
ATOM      3  C   UNK A   0       0.499   8.987  22.072  0.00  0.00    +0.000 A 
ATOM      4  C   UNK A   0       0.280  10.145  21.373  0.00  0.00    +0.000 A 
ATOM      5  C   UNK A   0       0.709  10.329  20.059  0.00  0.00    +0.000 A 
ATOM      6  C   UNK A   0       1.399   9.319  19.407  0.00  0.00    +0.000 A 
ATOM      7  C   UNK A   0       0.249  11.696  19.561  0.00  0.00    +0.000 C 
ATOM      8  C   UNK A   0      -0.633  12.157  20.784  0.00  0.00    +0.000 C 
ATOM      9  O   UNK A   0      -1.404  13.106  20.862  0.00  0.00    +0.000 OA
ATOM     10  N   UNK A   0      -0.461  11.233  21.800  0.00  0.00    +0.000 N 
ATOM     11  H   UNK A   0      -0.956  11.297  22.678  0.00  0.00    +0.000 HD
ENDROOT
BRANCH   1  18
ATOM     12  C   UNK A   0       1.456   4.821  20.726  0.00  0.00    +0.000 C 
ATOM     13  C   UNK A   0       2.119   5.551  19.615  0.00  0.00    +0.000 A 
ATOM     14  N   UNK A   0       2.823   4.855  18.714  0.00  0.00    +0.000 NA
ATOM     15  O   UNK A   0       3.355   5.784  17.851  0.00  0.00    +0.000 OA
ATOM     16  C   UNK A   0       2.975   7.035  18.225  0.00  0.00    +0.000 A 
ATOM     17  C   UNK A   0       3.491   8.125  17.368  0.00  0.00    +0.000 C 
ATOM     18  C   UNK A   0       2.169   6.955  19.346  0.00  0.00    +0.000 A 
ENDBRANCH   1  18
BRANCH   7  19
ATOM     19  C   UNK A   0       1.510  12.612  19.306  0.00  0.00    +0.000 C 
ATOM     20  C   UNK A   0       1.297  13.797  18.338  0.00  0.00    +0.000 C 
ATOM     21  C   UNK A   0       0.687  15.050  18.963  0.00  0.00    +0.000 C 
ATOM     22  C   UNK A   0       1.342  15.474  20.272  0.00  0.00    +0.000 C 
ATOM     23  C   UNK A   0       1.595  14.323  21.238  0.00  0.00    +0.000 C 
ATOM     24  C   UNK A   0       2.263  13.137  20.557  0.00  0.00    +0.000 C 
ENDBRANCH   7  19
BRANCH   7  25
ATOM     25  N   ALA A   1      -0.571  11.600  18.326  0.00  0.00    +0.000 NA
ATOM     26  H   ALA A   1       0.008  11.531  17.494  0.00  0.00    +0.000 HD
BRANCH  25  27
ATOM     27  CA  ALA A   1      -1.737  10.690  18.261  0.00  0.00    +0.000 C 
ATOM     28  CB  ALA A   1      -1.808   9.759  17.050  0.00  0.00    +0.000 C 
BRANCH  27  29
ATOM     29  C   ALA A   1      -3.046  11.532  18.272  0.00  0.00    +0.000 C 
BRANCH  29  30
ATOM     30  O   ALA A   1      -3.475  11.901  16.965  0.00  0.00    +0.000 OA
ATOM     31  H   ALA A   1      -3.611  12.868  16.977  0.00  0.00    +0.000 HD
ENDBRANCH  29  30
ENDBRANCH  27  29
ENDBRANCH  25  27
ENDBRANCH   7  25
TORSDOF 6
ENDMDL
MODEL 5
REMARK VINA RESULT:      -6.5      9.290     11.691
REMARK  Name = 
REMARK  9 active torsions:
REMARK  status: ('A' for Active; 'I' for Inactive)
REMARK    1  A    between atoms: C_1  and  C_2
REMARK    2  A    between atoms: C_5  and  C_6
REMARK    3  A    between atoms: C_7  and  C_8
REMARK    4  A    between atoms: C_14  and  N_15
REMARK    5  A    between atoms: C_14  and  C_20
REMARK    6  A    between atoms: N_15  and  CA_16
REMARK    7  A    between atoms: CA_16  and  CB_17
REMARK    8  A    between atoms: CA_16  and  C_18
REMARK    9  A    between atoms: C_18  and  O_19
REMARK                            x       y       z     vdW  Elec       q    Type
REMARK                         _______ _______ _______ _____ _____    ______ ____
ROOT
ATOM      1  C   UNK A   0       7.797  14.317  23.893  0.00  0.00    +0.000 A 
ATOM      2  C   UNK A   0       8.780  15.257  24.282  0.00  0.00    +0.000 A 
ATOM      3  C   UNK A   0       9.837  15.615  23.445  0.00  0.00    +0.000 A 
ATOM      4  C   UNK A   0       9.855  15.056  22.193  0.00  0.00    +0.000 A 
ATOM      5  C   UNK A   0       8.909  14.125  21.765  0.00  0.00    +0.000 A 
ATOM      6  C   UNK A   0       7.900  13.718  22.624  0.00  0.00    +0.000 A 
ATOM      7  C   UNK A   0       9.181  13.756  20.310  0.00  0.00    +0.000 C 
ATOM      8  C   UNK A   0      10.349  14.764  19.980  0.00  0.00    +0.000 C 
ATOM      9  O   UNK A   0      10.838  15.044  18.892  0.00  0.00    +0.000 OA
ATOM     10  N   UNK A   0      10.714  15.386  21.161  0.00  0.00    +0.000 N 
ATOM     11  H   UNK A   0      11.425  16.104  21.195  0.00  0.00    +0.000 HD
ENDROOT
BRANCH   1  18
ATOM     12  C   UNK A   0       6.734  11.418  25.151  0.00  0.00    +0.000 C 
ATOM     13  C   UNK A   0       6.191  12.791  25.307  0.00  0.00    +0.000 A 
ATOM     14  N   UNK A   0       5.079  12.968  26.031  0.00  0.00    +0.000 NA
ATOM     15  O   UNK A   0       4.790  14.311  25.958  0.00  0.00    +0.000 OA
ATOM     16  C   UNK A   0       5.721  14.945  25.196  0.00  0.00    +0.000 A 
ATOM     17  C   UNK A   0       5.514  16.400  25.042  0.00  0.00    +0.000 C 
ATOM     18  C   UNK A   0       6.658  14.026  24.756  0.00  0.00    +0.000 A 
ENDBRANCH   1  18
BRANCH   7  19
ATOM     19  C   UNK A   0       9.609  12.238  20.225  0.00  0.00    +0.000 C 
ATOM     20  C   UNK A   0       9.327  11.533  18.880  0.00  0.00    +0.000 C 
ATOM     21  C   UNK A   0      10.381  11.747  17.795  0.00  0.00    +0.000 C 
ATOM     22  C   UNK A   0      11.815  11.544  18.273  0.00  0.00    +0.000 C 
ATOM     23  C   UNK A   0      12.118  12.201  19.614  0.00  0.00    +0.000 C 
ATOM     24  C   UNK A   0      11.057  11.890  20.660  0.00  0.00    +0.000 C 
ENDBRANCH   7  19
BRANCH   7  25
ATOM     25  N   ALA A   1       8.006  14.005  19.436  0.00  0.00    +0.000 NA
ATOM     26  H   ALA A   1       7.303  13.278  19.534  0.00  0.00    +0.000 HD
BRANCH  25  27
ATOM     27  CA  ALA A   1       7.396  15.352  19.354  0.00  0.00    +0.000 C 
ATOM     28  CB  ALA A   1       5.999  15.505  19.957  0.00  0.00    +0.000 C 
BRANCH  27  29
ATOM     29  C   ALA A   1       7.304  15.783  17.862  0.00  0.00    +0.000 C 
BRANCH  29  30
ATOM     30  O   ALA A   1       8.537  15.631  17.167  0.00  0.00    +0.000 OA
ATOM     31  H   ALA A   1       9.210  16.116  17.681  0.00  0.00    +0.000 HD
ENDBRANCH  29  30
ENDBRANCH  27  29
ENDBRANCH  25  27
ENDBRANCH   7  25
TORSDOF 6
ENDMDL
MODEL 6
REMARK VINA RESULT:      -6.5      3.139      6.956
REMARK  Name = 
REMARK  9 active torsions:
REMARK  status: ('A' for Active; 'I' for Inactive)
REMARK    1  A    between atoms: C_1  and  C_2
REMARK    2  A    between atoms: C_5  and  C_6
REMARK    3  A    between atoms: C_7  and  C_8
REMARK    4  A    between atoms: C_14  and  N_15
REMARK    5  A    between atoms: C_14  and  C_20
REMARK    6  A    between atoms: N_15  and  CA_16
REMARK    7  A    between atoms: CA_16  and  CB_17
REMARK    8  A    between atoms: CA_16  and  C_18
REMARK    9  A    between atoms: C_18  and  O_19
REMARK                            x       y       z     vdW  Elec       q    Type
REMARK                         _______ _______ _______ _____ _____    ______ ____
ROOT
ATOM      1  C   UNK A   0       1.703   7.878  19.964  0.00  0.00    +0.000 A 
ATOM      2  C   UNK A   0       1.764   8.010  21.371  0.00  0.00    +0.000 A 
ATOM      3  C   UNK A   0       1.150   9.065  22.045  0.00  0.00    +0.000 A 
ATOM      4  C   UNK A   0       0.429   9.951  21.288  0.00  0.00    +0.000 A 
ATOM      5  C   UNK A   0       0.340   9.863  19.899  0.00  0.00    +0.000 A 
ATOM      6  C   UNK A   0       1.008   8.853  19.224  0.00  0.00    +0.000 A 
ATOM      7  C   UNK A   0      -0.586  10.958  19.378  0.00  0.00    +0.000 C 
ATOM      8  C   UNK A   0      -1.102  11.560  20.742  0.00  0.00    +0.000 C 
ATOM      9  O   UNK A   0      -2.017  12.352  20.936  0.00  0.00    +0.000 OA
ATOM     10  N   UNK A   0      -0.378  10.969  21.763  0.00  0.00    +0.000 N 
ATOM     11  H   UNK A   0      -0.556  11.171  22.737  0.00  0.00    +0.000 HD
ENDROOT
BRANCH   1  18
ATOM     12  C   UNK A   0       1.413   4.628  20.651  0.00  0.00    +0.000 C 
ATOM     13  C   UNK A   0       2.165   5.321  19.573  0.00  0.00    +0.000 A 
ATOM     14  N   UNK A   0       2.893   4.590  18.721  0.00  0.00    +0.000 NA
ATOM     15  O   UNK A   0       3.508   5.490  17.881  0.00  0.00    +0.000 OA
ATOM     16  C   UNK A   0       3.154   6.758  18.222  0.00  0.00    +0.000 A 
ATOM     17  C   UNK A   0       3.758   7.818  17.387  0.00  0.00    +0.000 C 
ATOM     18  C   UNK A   0       2.283   6.719  19.295  0.00  0.00    +0.000 A 
ENDBRANCH   1  18
BRANCH   7  19
ATOM     19  C   UNK A   0       0.247  11.980  18.508  0.00  0.00    +0.000 C 
ATOM     20  C   UNK A   0      -0.385  13.377  18.320  0.00  0.00    +0.000 C 
ATOM     21  C   UNK A   0      -0.140  14.364  19.461  0.00  0.00    +0.000 C 
ATOM     22  C   UNK A   0       1.312  14.434  19.921  0.00  0.00    +0.000 C 
ATOM     23  C   UNK A   0       1.975  13.072  20.086  0.00  0.00    +0.000 C 
ATOM     24  C   UNK A   0       1.741  12.169  18.883  0.00  0.00    +0.000 C 
ENDBRANCH   7  19
BRANCH   7  25
ATOM     25  N   ALA A   1      -1.715  10.411  18.582  0.00  0.00    +0.000 NA
ATOM     26  H   ALA A   1      -2.311   9.807  19.141  0.00  0.00    +0.000 HD
BRANCH  25  27
ATOM     27  CA  ALA A   1      -2.506  11.288  17.689  0.00  0.00    +0.000 C 
ATOM     28  CB  ALA A   1      -3.956  11.547  18.097  0.00  0.00    +0.000 C 
BRANCH  27  29
ATOM     29  C   ALA A   1      -2.533  10.673  16.259  0.00  0.00    +0.000 C 
BRANCH  29  30
ATOM     30  O   ALA A   1      -3.154  11.527  15.304  0.00  0.00    +0.000 OA
ATOM     31  H   ALA A   1      -3.011  11.118  14.428  0.00  0.00    +0.000 HD
ENDBRANCH  29  30
ENDBRANCH  27  29
ENDBRANCH  25  27
ENDBRANCH   7  25
TORSDOF 6
ENDMDL
MODEL 7
REMARK VINA RESULT:      -6.3      9.246     12.265
REMARK  Name = 
REMARK  9 active torsions:
REMARK  status: ('A' for Active; 'I' for Inactive)
REMARK    1  A    between atoms: C_1  and  C_2
REMARK    2  A    between atoms: C_5  and  C_6
REMARK    3  A    between atoms: C_7  and  C_8
REMARK    4  A    between atoms: C_14  and  N_15
REMARK    5  A    between atoms: C_14  and  C_20
REMARK    6  A    between atoms: N_15  and  CA_16
REMARK    7  A    between atoms: CA_16  and  CB_17
REMARK    8  A    between atoms: CA_16  and  C_18
REMARK    9  A    between atoms: C_18  and  O_19
REMARK                            x       y       z     vdW  Elec       q    Type
REMARK                         _______ _______ _______ _____ _____    ______ ____
ROOT
ATOM      1  C   UNK A   0       8.380  14.593  23.918  0.00  0.00    +0.000 A 
ATOM      2  C   UNK A   0       9.173  15.701  24.300  0.00  0.00    +0.000 A 
ATOM      3  C   UNK A   0      10.212  16.179  23.502  0.00  0.00    +0.000 A 
ATOM      4  C   UNK A   0      10.403  15.563  22.294  0.00  0.00    +0.000 A 
ATOM      5  C   UNK A   0       9.649  14.467  21.874  0.00  0.00    +0.000 A 
ATOM      6  C   UNK A   0       8.661  13.950  22.698  0.00  0.00    +0.000 A 
ATOM      7  C   UNK A   0      10.072  14.068  20.464  0.00  0.00    +0.000 C 
ATOM      8  C   UNK A   0      11.084  15.233  20.135  0.00  0.00    +0.000 C 
ATOM      9  O   UNK A   0      11.594  15.528  19.061  0.00  0.00    +0.000 OA
ATOM     10  N   UNK A   0      11.266  15.971  21.292  0.00  0.00    +0.000 N 
ATOM     11  H   UNK A   0      11.849  16.796  21.320  0.00  0.00    +0.000 HD
ENDROOT
BRANCH   1  18
ATOM     12  C   UNK A   0       5.139  14.395  23.160  0.00  0.00    +0.000 C 
ATOM     13  C   UNK A   0       5.854  14.074  24.422  0.00  0.00    +0.000 A 
ATOM     14  N   UNK A   0       5.144  13.661  25.479  0.00  0.00    +0.000 NA
ATOM     15  O   UNK A   0       6.051  13.491  26.500  0.00  0.00    +0.000 OA
ATOM     16  C   UNK A   0       7.302  13.798  26.064  0.00  0.00    +0.000 A 
ATOM     17  C   UNK A   0       8.367  13.654  27.079  0.00  0.00    +0.000 C 
ATOM     18  C   UNK A   0       7.247  14.168  24.732  0.00  0.00    +0.000 A 
ENDBRANCH   1  18
BRANCH   7  19
ATOM     19  C   UNK A   0      10.741  12.638  20.502  0.00  0.00    +0.000 C 
ATOM     20  C   UNK A   0       9.776  11.439  20.376  0.00  0.00    +0.000 C 
ATOM     21  C   UNK A   0       9.384  11.063  18.948  0.00  0.00    +0.000 C 
ATOM     22  C   UNK A   0      10.560  10.972  17.983  0.00  0.00    +0.000 C 
ATOM     23  C   UNK A   0      11.549  12.125  18.103  0.00  0.00    +0.000 C 
ATOM     24  C   UNK A   0      11.942  12.397  19.549  0.00  0.00    +0.000 C 
ENDBRANCH   7  19
BRANCH   7  25
ATOM     25  N   ALA A   1       8.933  14.074  19.510  0.00  0.00    +0.000 NA
ATOM     26  H   ALA A   1       8.358  13.242  19.606  0.00  0.00    +0.000 HD
BRANCH  25  27
ATOM     27  CA  ALA A   1       8.113  15.291  19.319  0.00  0.00    +0.000 C 
ATOM     28  CB  ALA A   1       6.681  15.238  19.852  0.00  0.00    +0.000 C 
BRANCH  27  29
ATOM     29  C   ALA A   1       8.026  15.618  17.799  0.00  0.00    +0.000 C 
BRANCH  29  30
ATOM     30  O   ALA A   1       9.306  15.700  17.180  0.00  0.00    +0.000 OA
ATOM     31  H   ALA A   1       9.437  14.862  16.696  0.00  0.00    +0.000 HD
ENDBRANCH  29  30
ENDBRANCH  27  29
ENDBRANCH  25  27
ENDBRANCH   7  25
TORSDOF 6
ENDMDL
MODEL 8
REMARK VINA RESULT:      -6.3      2.455      3.429
REMARK  Name = 
REMARK  9 active torsions:
REMARK  status: ('A' for Active; 'I' for Inactive)
REMARK    1  A    between atoms: C_1  and  C_2
REMARK    2  A    between atoms: C_5  and  C_6
REMARK    3  A    between atoms: C_7  and  C_8
REMARK    4  A    between atoms: C_14  and  N_15
REMARK    5  A    between atoms: C_14  and  C_20
REMARK    6  A    between atoms: N_15  and  CA_16
REMARK    7  A    between atoms: CA_16  and  CB_17
REMARK    8  A    between atoms: CA_16  and  C_18
REMARK    9  A    between atoms: C_18  and  O_19
REMARK                            x       y       z     vdW  Elec       q    Type
REMARK                         _______ _______ _______ _____ _____    ______ ____
ROOT
ATOM      1  C   UNK A   0      -1.922  11.557  18.461  0.00  0.00    +0.000 A 
ATOM      2  C   UNK A   0      -1.264  10.383  18.897  0.00  0.00    +0.000 A 
ATOM      3  C   UNK A   0      -0.043  10.425  19.571  0.00  0.00    +0.000 A 
ATOM      4  C   UNK A   0       0.473  11.664  19.846  0.00  0.00    +0.000 A 
ATOM      5  C   UNK A   0      -0.138  12.848  19.435  0.00  0.00    +0.000 A 
ATOM      6  C   UNK A   0      -1.316  12.803  18.706  0.00  0.00    +0.000 A 
ATOM      7  C   UNK A   0       0.658  14.040  19.957  0.00  0.00    +0.000 C 
ATOM      8  C   UNK A   0       1.725  13.294  20.850  0.00  0.00    +0.000 C 
ATOM      9  O   UNK A   0       2.513  13.765  21.661  0.00  0.00    +0.000 OA
ATOM     10  N   UNK A   0       1.581  11.935  20.629  0.00  0.00    +0.000 N 
ATOM     11  H   UNK A   0       2.135  11.247  21.120  0.00  0.00    +0.000 HD
ENDROOT
BRANCH   1  18
ATOM     12  C   UNK A   0      -4.929  12.334  19.676  0.00  0.00    +0.000 C 
ATOM     13  C   UNK A   0      -4.535  11.820  18.339  0.00  0.00    +0.000 A 
ATOM     14  N   UNK A   0      -5.489  11.575  17.433  0.00  0.00    +0.000 NA
ATOM     15  O   UNK A   0      -4.842  11.069  16.329  0.00  0.00    +0.000 OA
ATOM     16  C   UNK A   0      -3.504  11.008  16.564  0.00  0.00    +0.000 A 
ATOM     17  C   UNK A   0      -2.700  10.474  15.445  0.00  0.00    +0.000 C 
ATOM     18  C   UNK A   0      -3.238  11.487  17.835  0.00  0.00    +0.000 A 
ENDBRANCH   1  18
BRANCH   7  19
ATOM     19  C   UNK A   0       1.287  14.825  18.740  0.00  0.00    +0.000 C 
ATOM     20  C   UNK A   0       1.540  16.332  18.968  0.00  0.00    +0.000 C 
ATOM     21  C   UNK A   0       2.846  16.675  19.683  0.00  0.00    +0.000 C 
ATOM     22  C   UNK A   0       4.068  15.953  19.126  0.00  0.00    +0.000 C 
ATOM     23  C   UNK A   0       3.843  14.470  18.860  0.00  0.00    +0.000 C 
ATOM     24  C   UNK A   0       2.556  14.214  18.088  0.00  0.00    +0.000 C 
ENDBRANCH   7  19
BRANCH   7  25
ATOM     25  N   ALA A   1      -0.171  14.956  20.782  0.00  0.00    +0.000 NA
ATOM     26  H   ALA A   1      -0.682  15.620  20.208  0.00  0.00    +0.000 HD
BRANCH  25  27
ATOM     27  CA  ALA A   1      -1.004  14.432  21.889  0.00  0.00    +0.000 C 
ATOM     28  CB  ALA A   1      -2.516  14.606  21.745  0.00  0.00    +0.000 C 
BRANCH  27  29
ATOM     29  C   ALA A   1      -0.586  15.125  23.218  0.00  0.00    +0.000 C 
BRANCH  29  30
ATOM     30  O   ALA A   1       0.724  15.680  23.161  0.00  0.00    +0.000 OA
ATOM     31  H   ALA A   1       1.010  15.820  24.084  0.00  0.00    +0.000 HD
ENDBRANCH  29  30
ENDBRANCH  27  29
ENDBRANCH  25  27
ENDBRANCH   7  25
TORSDOF 6
ENDMDL
MODEL 9
REMARK VINA RESULT:      -6.3      9.186     12.071
REMARK  Name = 
REMARK  9 active torsions:
REMARK  status: ('A' for Active; 'I' for Inactive)
REMARK    1  A    between atoms: C_1  and  C_2
REMARK    2  A    between atoms: C_5  and  C_6
REMARK    3  A    between atoms: C_7  and  C_8
REMARK    4  A    between atoms: C_14  and  N_15
REMARK    5  A    between atoms: C_14  and  C_20
REMARK    6  A    between atoms: N_15  and  CA_16
REMARK    7  A    between atoms: CA_16  and  CB_17
REMARK    8  A    between atoms: CA_16  and  C_18
REMARK    9  A    between atoms: C_18  and  O_19
REMARK                            x       y       z     vdW  Elec       q    Type
REMARK                         _______ _______ _______ _____ _____    ______ ____
ROOT
ATOM      1  C   UNK A   0       8.567  14.266  22.239  0.00  0.00    +0.000 A 
ATOM      2  C   UNK A   0       9.396  15.176  22.935  0.00  0.00    +0.000 A 
ATOM      3  C   UNK A   0      10.545  15.720  22.362  0.00  0.00    +0.000 A 
ATOM      4  C   UNK A   0      10.813  15.379  21.062  0.00  0.00    +0.000 A 
ATOM      5  C   UNK A   0      10.026  14.486  20.335  0.00  0.00    +0.000 A 
ATOM      6  C   UNK A   0       8.923  13.892  20.930  0.00  0.00    +0.000 A 
ATOM      7  C   UNK A   0      10.562  14.378  18.911  0.00  0.00    +0.000 C 
ATOM      8  C   UNK A   0      11.687  15.484  18.951  0.00  0.00    +0.000 C 
ATOM      9  O   UNK A   0      12.325  15.965  18.023  0.00  0.00    +0.000 OA
ATOM     10  N   UNK A   0      11.803  15.919  20.260  0.00  0.00    +0.000 N 
ATOM     11  H   UNK A   0      12.439  16.656  20.530  0.00  0.00    +0.000 HD
ENDROOT
BRANCH   1  18
ATOM     12  C   UNK A   0       5.509  15.595  22.234  0.00  0.00    +0.000 C 
ATOM     13  C   UNK A   0       6.008  14.333  22.836  0.00  0.00    +0.000 A 
ATOM     14  N   UNK A   0       5.158  13.568  23.532  0.00  0.00    +0.000 NA
ATOM     15  O   UNK A   0       5.901  12.511  24.005  0.00  0.00    +0.000 OA
ATOM     16  C   UNK A   0       7.192  12.634  23.599  0.00  0.00    +0.000 A 
ATOM     17  C   UNK A   0       8.093  11.552  24.052  0.00  0.00    +0.000 C 
ATOM     18  C   UNK A   0       7.327  13.779  22.833  0.00  0.00    +0.000 A 
ENDBRANCH   1  18
BRANCH   7  19
ATOM     19  C   UNK A   0      11.115  12.919  18.668  0.00  0.00    +0.000 C 
ATOM     20  C   UNK A   0      11.385  12.080  19.936  0.00  0.00    +0.000 C 
ATOM     21  C   UNK A   0      10.166  11.369  20.521  0.00  0.00    +0.000 C 
ATOM     22  C   UNK A   0       9.328  10.620  19.491  0.00  0.00    +0.000 C 
ATOM     23  C   UNK A   0       9.070  11.409  18.213  0.00  0.00    +0.000 C 
ATOM     24  C   UNK A   0      10.341  12.034  17.655  0.00  0.00    +0.000 C 
ENDBRANCH   7  19
BRANCH   7  25
ATOM     25  N   ALA A   1       9.532  14.711  17.894  0.00  0.00    +0.000 NA
ATOM     26  H   ALA A   1       9.389  13.947  17.240  0.00  0.00    +0.000 HD
BRANCH  25  27
ATOM     27  CA  ALA A   1       8.252  15.340  18.291  0.00  0.00    +0.000 C 
ATOM     28  CB  ALA A   1       7.003  14.874  17.543  0.00  0.00    +0.000 C 
BRANCH  27  29
ATOM     29  C   ALA A   1       8.357  16.881  18.097  0.00  0.00    +0.000 C 
BRANCH  29  30
ATOM     30  O   ALA A   1       7.169  17.567  18.480  0.00  0.00    +0.000 OA
ATOM     31  H   ALA A   1       6.536  17.463  17.744  0.00  0.00    +0.000 HD
ENDBRANCH  29  30
ENDBRANCH  27  29
ENDBRANCH  25  27
ENDBRANCH   7  25
TORSDOF 6
ENDMDL
