MODEL 1
REMARK VINA RESULT:      -8.1      0.000      0.000
REMARK  Name = 
REMARK  6 active torsions:
REMARK  status: ('A' for Active; 'I' for Inactive)
REMARK    1  A    between atoms: C_1  and  C_2
REMARK    2  A    between atoms: C_4  and  O_5
REMARK    3  A    between atoms: C_6  and  C_7
REMARK    4  A    between atoms: C_7  and  N_8
REMARK    5  A    between atoms: C_12  and  C_14
REMARK    6  A    between atoms: C_27  and  C_28
REMARK                            x       y       z     vdW  Elec       q    Type
REMARK                         _______ _______ _______ _____ _____    ______ ____
ROOT
ATOM      1  N   UNL     1       0.658  10.444  18.553  0.00  0.00    +0.000 NA
ATOM      2  C   UNL     1       0.768  10.004  19.957  0.00  0.00    +0.000 C 
ATOM      3  C   UNL     1       0.963   8.492  20.184  0.00  0.00    +0.000 C 
ATOM      4  N   UNL     1       1.971   7.841  19.325  0.00  0.00    +0.000 N 
ATOM      5  C   UNL     1       2.350   6.558  19.744  0.00  0.00    +0.000 C 
ATOM      6  O   UNL     1       1.973   6.155  20.854  0.00  0.00    +0.000 OA
ATOM      7  C   UNL     1       2.031   8.361  17.952  0.00  0.00    +0.000 C 
ATOM      8  C   UNL     1       1.828   9.892  17.835  0.00  0.00    +0.000 C 
ENDROOT
BRANCH   5   9
ATOM      9  C   UNL     1       3.224   5.598  18.877  0.00  0.00    +0.000 C 
ATOM     10  C   UNL     1       4.386   6.323  18.161  0.00  0.00    +0.000 C 
ATOM     11  C   UNL     1       5.232   5.335  17.337  0.00  0.00    +0.000 C 
ATOM     12  C   UNL     1       5.882   4.321  18.289  0.00  0.00    +0.000 C 
ATOM     13  C   UNL     1       4.791   3.553  19.047  0.00  0.00    +0.000 C 
ATOM     14  C   UNL     1       3.921   2.794  18.036  0.00  0.00    +0.000 C 
ATOM     15  C   UNL     1       3.250   3.790  17.082  0.00  0.00    +0.000 C 
ATOM     16  C   UNL     1       4.328   4.593  16.335  0.00  0.00    +0.000 C 
ATOM     17  C   UNL     1       2.374   4.774  17.881  0.00  0.00    +0.000 C 
ATOM     18  C   UNL     1       3.906   4.544  19.828  0.00  0.00    +0.000 C 
ENDBRANCH   5   9
BRANCH   1  19
ATOM     19  C   UNL     1      -0.605  10.027  17.904  0.00  0.00    +0.000 C 
BRANCH  19  24
ATOM     20  C   UNL     1      -5.552  12.782  19.463  0.00  0.00    +0.000 C 
ATOM     21  C   UNL     1      -4.265  12.102  19.092  0.00  0.00    +0.000 A 
ATOM     22  C   UNL     1      -4.260  11.168  18.051  0.00  0.00    +0.000 A 
ATOM     23  C   UNL     1      -3.082  10.511  17.687  0.00  0.00    +0.000 A 
ATOM     24  C   UNL     1      -1.876  10.723  18.368  0.00  0.00    +0.000 A 
ATOM     25  C   UNL     1      -1.874  11.699  19.379  0.00  0.00    +0.000 A 
ATOM     26  C   UNL     1      -3.045  12.404  19.736  0.00  0.00    +0.000 A 
ATOM     27  C   UNL     1      -2.968  13.503  20.763  0.00  0.00    +0.000 C 
BRANCH  23  28
ATOM     28  O   UNL     1      -3.094   9.657  16.615  0.00  0.00    +0.000 OA
ATOM     29  H   UNL     1      -2.176   9.479  16.352  0.00  0.00    +0.000 HD
ENDBRANCH  23  28
ENDBRANCH  19  24
ENDBRANCH   1  19
TORSDOF 4
ENDMDL
MODEL 2
REMARK VINA RESULT:      -8.0      0.825      1.017
REMARK  Name = 
REMARK  6 active torsions:
REMARK  status: ('A' for Active; 'I' for Inactive)
REMARK    1  A    between atoms: C_1  and  C_2
REMARK    2  A    between atoms: C_4  and  O_5
REMARK    3  A    between atoms: C_6  and  C_7
REMARK    4  A    between atoms: C_7  and  N_8
REMARK    5  A    between atoms: C_12  and  C_14
REMARK    6  A    between atoms: C_27  and  C_28
REMARK                            x       y       z     vdW  Elec       q    Type
REMARK                         _______ _______ _______ _____ _____    ______ ____
ROOT
ATOM      1  N   UNL     1       1.125  10.252  18.563  0.00  0.00    +0.000 NA
ATOM      2  C   UNL     1       1.132   9.917  20.000  0.00  0.00    +0.000 C 
ATOM      3  C   UNL     1       1.026   8.420  20.351  0.00  0.00    +0.000 C 
ATOM      4  N   UNL     1       1.898   7.518  19.574  0.00  0.00    +0.000 N 
ATOM      5  C   UNL     1       2.015   6.225  20.103  0.00  0.00    +0.000 C 
ATOM      6  O   UNL     1       1.556   5.996  21.230  0.00  0.00    +0.000 OA
ATOM      7  C   UNL     1       2.072   7.900  18.166  0.00  0.00    +0.000 C 
ATOM      8  C   UNL     1       2.173   9.427  17.921  0.00  0.00    +0.000 C 
ENDROOT
BRANCH   5   9
ATOM      9  C   UNL     1       2.696   5.045  19.338  0.00  0.00    +0.000 C 
ATOM     10  C   UNL     1       4.229   5.204  19.228  0.00  0.00    +0.000 C 
ATOM     11  C   UNL     1       4.858   4.010  18.487  0.00  0.00    +0.000 C 
ATOM     12  C   UNL     1       4.617   2.733  19.304  0.00  0.00    +0.000 C 
ATOM     13  C   UNL     1       3.108   2.500  19.464  0.00  0.00    +0.000 C 
ATOM     14  C   UNL     1       2.481   2.323  18.075  0.00  0.00    +0.000 C 
ATOM     15  C   UNL     1       2.699   3.594  17.244  0.00  0.00    +0.000 C 
ATOM     16  C   UNL     1       4.206   3.863  17.100  0.00  0.00    +0.000 C 
ATOM     17  C   UNL     1       2.053   4.801  17.952  0.00  0.00    +0.000 C 
ATOM     18  C   UNL     1       2.465   3.719  20.154  0.00  0.00    +0.000 C 
ENDBRANCH   5   9
BRANCH   1  19
ATOM     19  C   UNL     1      -0.189  10.034  17.916  0.00  0.00    +0.000 C 
BRANCH  19  24
ATOM     20  C   UNL     1      -4.828  13.017  19.933  0.00  0.00    +0.000 C 
ATOM     21  C   UNL     1      -3.615  12.279  19.441  0.00  0.00    +0.000 A 
ATOM     22  C   UNL     1      -3.764  11.302  18.452  0.00  0.00    +0.000 A 
ATOM     23  C   UNL     1      -2.659  10.590  17.978  0.00  0.00    +0.000 A 
ATOM     24  C   UNL     1      -1.373  10.791  18.497  0.00  0.00    +0.000 A 
ATOM     25  C   UNL     1      -1.219  11.810  19.454  0.00  0.00    +0.000 A 
ATOM     26  C   UNL     1      -2.318  12.568  19.917  0.00  0.00    +0.000 A 
ATOM     27  C   UNL     1      -2.084  13.706  20.875  0.00  0.00    +0.000 C 
BRANCH  23  28
ATOM     28  O   UNL     1      -2.826   9.692  16.957  0.00  0.00    +0.000 OA
ATOM     29  H   UNL     1      -3.250   8.895  17.314  0.00  0.00    +0.000 HD
ENDBRANCH  23  28
ENDBRANCH  19  24
ENDBRANCH   1  19
TORSDOF 4
ENDMDL
MODEL 3
REMARK VINA RESULT:      -7.9      5.612      9.203
REMARK  Name = 
REMARK  6 active torsions:
REMARK  status: ('A' for Active; 'I' for Inactive)
REMARK    1  A    between atoms: C_1  and  C_2
REMARK    2  A    between atoms: C_4  and  O_5
REMARK    3  A    between atoms: C_6  and  C_7
REMARK    4  A    between atoms: C_7  and  N_8
REMARK    5  A    between atoms: C_12  and  C_14
REMARK    6  A    between atoms: C_27  and  C_28
REMARK                            x       y       z     vdW  Elec       q    Type
REMARK                         _______ _______ _______ _____ _____    ______ ____
ROOT
ATOM      1  N   UNL     1       6.740   6.009  15.991  0.00  0.00    +0.000 NA
ATOM      2  C   UNL     1       6.417   7.115  16.912  0.00  0.00    +0.000 C 
ATOM      3  C   UNL     1       5.011   7.089  17.541  0.00  0.00    +0.000 C 
ATOM      4  N   UNL     1       4.574   5.785  18.076  0.00  0.00    +0.000 N 
ATOM      5  C   UNL     1       3.443   5.845  18.903  0.00  0.00    +0.000 C 
ATOM      6  O   UNL     1       3.024   6.954  19.263  0.00  0.00    +0.000 OA
ATOM      7  C   UNL     1       5.017   4.624  17.291  0.00  0.00    +0.000 C 
ATOM      8  C   UNL     1       6.446   4.749  16.708  0.00  0.00    +0.000 C 
ENDROOT
BRANCH   5   9
ATOM      9  C   UNL     1       2.674   4.578  19.396  0.00  0.00    +0.000 C 
ATOM     10  C   UNL     1       1.804   3.935  18.292  0.00  0.00    +0.000 C 
ATOM     11  C   UNL     1       1.083   2.680  18.817  0.00  0.00    +0.000 C 
ATOM     12  C   UNL     1       2.131   1.628  19.204  0.00  0.00    +0.000 C 
ATOM     13  C   UNL     1       3.046   2.189  20.301  0.00  0.00    +0.000 C 
ATOM     14  C   UNL     1       2.197   2.518  21.537  0.00  0.00    +0.000 C 
ATOM     15  C   UNL     1       1.150   3.580  21.176  0.00  0.00    +0.000 C 
ATOM     16  C   UNL     1       0.243   3.047  20.054  0.00  0.00    +0.000 C 
ATOM     17  C   UNL     1       1.848   4.858  20.674  0.00  0.00    +0.000 C 
ATOM     18  C   UNL     1       3.726   3.478  19.800  0.00  0.00    +0.000 C 
ENDBRANCH   5   9
BRANCH   1  19
ATOM     19  C   UNL     1       5.998   6.075  14.711  0.00  0.00    +0.000 C 
BRANCH  19  24
ATOM     20  C   UNL     1       7.213   2.002  10.658  0.00  0.00    +0.000 C 
ATOM     21  C   UNL     1       6.861   3.035  11.691  0.00  0.00    +0.000 A 
ATOM     22  C   UNL     1       7.869   3.847  12.219  0.00  0.00    +0.000 A 
ATOM     23  C   UNL     1       7.577   4.811  13.187  0.00  0.00    +0.000 A 
ATOM     24  C   UNL     1       6.283   4.977  13.697  0.00  0.00    +0.000 A 
ATOM     25  C   UNL     1       5.263   4.195  13.127  0.00  0.00    +0.000 A 
ATOM     26  C   UNL     1       5.531   3.243  12.118  0.00  0.00    +0.000 A 
ATOM     27  C   UNL     1       4.390   2.497  11.479  0.00  0.00    +0.000 C 
BRANCH  23  28
ATOM     28  O   UNL     1       8.574   5.640  13.631  0.00  0.00    +0.000 OA
ATOM     29  H   UNL     1       8.786   5.403  14.548  0.00  0.00    +0.000 HD
ENDBRANCH  23  28
ENDBRANCH  19  24
ENDBRANCH   1  19
TORSDOF 4
ENDMDL
MODEL 4
REMARK VINA RESULT:      -7.9      5.631      9.245
REMARK  Name = 
REMARK  6 active torsions:
REMARK  status: ('A' for Active; 'I' for Inactive)
REMARK    1  A    between atoms: C_1  and  C_2
REMARK    2  A    between atoms: C_4  and  O_5
REMARK    3  A    between atoms: C_6  and  C_7
REMARK    4  A    between atoms: C_7  and  N_8
REMARK    5  A    between atoms: C_12  and  C_14
REMARK    6  A    between atoms: C_27  and  C_28
REMARK                            x       y       z     vdW  Elec       q    Type
REMARK                         _______ _______ _______ _____ _____    ______ ____
ROOT
ATOM      1  N   UNL     1       6.742   6.024  15.982  0.00  0.00    +0.000 NA
ATOM      2  C   UNL     1       6.418   7.132  16.901  0.00  0.00    +0.000 C 
ATOM      3  C   UNL     1       5.027   7.083  17.562  0.00  0.00    +0.000 C 
ATOM      4  N   UNL     1       4.629   5.775  18.118  0.00  0.00    +0.000 N 
ATOM      5  C   UNL     1       3.517   5.819  18.971  0.00  0.00    +0.000 C 
ATOM      6  O   UNL     1       3.083   6.923  19.331  0.00  0.00    +0.000 OA
ATOM      7  C   UNL     1       5.077   4.616  17.334  0.00  0.00    +0.000 C 
ATOM      8  C   UNL     1       6.490   4.765  16.716  0.00  0.00    +0.000 C 
ENDROOT
BRANCH   5   9
ATOM      9  C   UNL     1       2.785   4.542  19.492  0.00  0.00    +0.000 C 
ATOM     10  C   UNL     1       1.828   4.834  20.670  0.00  0.00    +0.000 C 
ATOM     11  C   UNL     1       1.115   3.551  21.135  0.00  0.00    +0.000 C 
ATOM     12  C   UNL     1       0.238   3.026  19.991  0.00  0.00    +0.000 C 
ATOM     13  C   UNL     1       1.114   2.710  18.772  0.00  0.00    +0.000 C 
ATOM     14  C   UNL     1       2.129   1.625  19.154  0.00  0.00    +0.000 C 
ATOM     15  C   UNL     1       3.027   2.134  20.289  0.00  0.00    +0.000 C 
ATOM     16  C   UNL     1       2.162   2.487  21.511  0.00  0.00    +0.000 C 
ATOM     17  C   UNL     1       3.775   3.403  19.838  0.00  0.00    +0.000 C 
ATOM     18  C   UNL     1       1.875   3.979  18.337  0.00  0.00    +0.000 C 
ENDBRANCH   5   9
BRANCH   1  19
ATOM     19  C   UNL     1       5.969   6.063  14.719  0.00  0.00    +0.000 C 
BRANCH  19  24
ATOM     20  C   UNL     1       7.213   2.005  10.660  0.00  0.00    +0.000 C 
ATOM     21  C   UNL     1       6.853   3.034  11.694  0.00  0.00    +0.000 A 
ATOM     22  C   UNL     1       7.857   3.849  12.227  0.00  0.00    +0.000 A 
ATOM     23  C   UNL     1       7.558   4.810  13.196  0.00  0.00    +0.000 A 
ATOM     24  C   UNL     1       6.262   4.969  13.703  0.00  0.00    +0.000 A 
ATOM     25  C   UNL     1       5.247   4.184  13.129  0.00  0.00    +0.000 A 
ATOM     26  C   UNL     1       5.522   3.235  12.119  0.00  0.00    +0.000 A 
ATOM     27  C   UNL     1       4.386   2.486  11.474  0.00  0.00    +0.000 C 
BRANCH  23  28
ATOM     28  O   UNL     1       8.550   5.642  13.645  0.00  0.00    +0.000 OA
ATOM     29  H   UNL     1       8.164   6.270  14.277  0.00  0.00    +0.000 HD
ENDBRANCH  23  28
ENDBRANCH  19  24
ENDBRANCH   1  19
TORSDOF 4
ENDMDL
MODEL 5
REMARK VINA RESULT:      -7.9      5.656      9.199
REMARK  Name = 
REMARK  6 active torsions:
REMARK  status: ('A' for Active; 'I' for Inactive)
REMARK    1  A    between atoms: C_1  and  C_2
REMARK    2  A    between atoms: C_4  and  O_5
REMARK    3  A    between atoms: C_6  and  C_7
REMARK    4  A    between atoms: C_7  and  N_8
REMARK    5  A    between atoms: C_12  and  C_14
REMARK    6  A    between atoms: C_27  and  C_28
REMARK                            x       y       z     vdW  Elec       q    Type
REMARK                         _______ _______ _______ _____ _____    ______ ____
ROOT
ATOM      1  N   UNL     1       6.824   6.032  15.994  0.00  0.00    +0.000 NA
ATOM      2  C   UNL     1       6.484   7.114  16.937  0.00  0.00    +0.000 C 
ATOM      3  C   UNL     1       5.079   7.051  17.568  0.00  0.00    +0.000 C 
ATOM      4  N   UNL     1       4.665   5.730  18.078  0.00  0.00    +0.000 N 
ATOM      5  C   UNL     1       3.536   5.754  18.907  0.00  0.00    +0.000 C 
ATOM      6  O   UNL     1       3.098   6.848  19.289  0.00  0.00    +0.000 OA
ATOM      7  C   UNL     1       5.127   4.592  17.270  0.00  0.00    +0.000 C 
ATOM      8  C   UNL     1       6.553   4.753  16.687  0.00  0.00    +0.000 C 
ENDROOT
BRANCH   5   9
ATOM      9  C   UNL     1       2.790   4.465  19.377  0.00  0.00    +0.000 C 
ATOM     10  C   UNL     1       3.750   3.363  19.880  0.00  0.00    +0.000 C 
ATOM     11  C   UNL     1       2.970   2.122  20.351  0.00  0.00    +0.000 C 
ATOM     12  C   UNL     1       2.095   2.509  21.551  0.00  0.00    +0.000 C 
ATOM     13  C   UNL     1       1.106   3.607  21.136  0.00  0.00    +0.000 C 
ATOM     14  C   UNL     1       0.203   3.069  20.019  0.00  0.00    +0.000 C 
ATOM     15  C   UNL     1       1.057   2.688  18.802  0.00  0.00    +0.000 C 
ATOM     16  C   UNL     1       2.076   1.610  19.207  0.00  0.00    +0.000 C 
ATOM     17  C   UNL     1       1.826   3.921  18.294  0.00  0.00    +0.000 C 
ATOM     18  C   UNL     1       1.882   4.831  20.610  0.00  0.00    +0.000 C 
ENDBRANCH   5   9
BRANCH   1  19
ATOM     19  C   UNL     1       6.078   6.109  14.717  0.00  0.00    +0.000 C 
BRANCH  19  24
ATOM     20  C   UNL     1       7.204   2.012  10.663  0.00  0.00    +0.000 C 
ATOM     21  C   UNL     1       6.874   3.052  11.696  0.00  0.00    +0.000 A 
ATOM     22  C   UNL     1       7.897   3.858  12.206  0.00  0.00    +0.000 A 
ATOM     23  C   UNL     1       7.626   4.828  13.175  0.00  0.00    +0.000 A 
ATOM     24  C   UNL     1       6.340   5.006  13.703  0.00  0.00    +0.000 A 
ATOM     25  C   UNL     1       5.307   4.229  13.151  0.00  0.00    +0.000 A 
ATOM     26  C   UNL     1       5.553   3.271  12.143  0.00  0.00    +0.000 A 
ATOM     27  C   UNL     1       4.397   2.531  11.523  0.00  0.00    +0.000 C 
BRANCH  23  28
ATOM     28  O   UNL     1       8.635   5.652  13.601  0.00  0.00    +0.000 OA
ATOM     29  H   UNL     1       9.412   5.503  13.038  0.00  0.00    +0.000 HD
ENDBRANCH  23  28
ENDBRANCH  19  24
ENDBRANCH   1  19
TORSDOF 4
ENDMDL
MODEL 6
REMARK VINA RESULT:      -7.9      0.198      1.460
REMARK  Name = 
REMARK  6 active torsions:
REMARK  status: ('A' for Active; 'I' for Inactive)
REMARK    1  A    between atoms: C_1  and  C_2
REMARK    2  A    between atoms: C_4  and  O_5
REMARK    3  A    between atoms: C_6  and  C_7
REMARK    4  A    between atoms: C_7  and  N_8
REMARK    5  A    between atoms: C_12  and  C_14
REMARK    6  A    between atoms: C_27  and  C_28
REMARK                            x       y       z     vdW  Elec       q    Type
REMARK                         _______ _______ _______ _____ _____    ______ ____
ROOT
ATOM      1  N   UNL     1       0.853  10.394  18.612  0.00  0.00    +0.000 NA
ATOM      2  C   UNL     1       0.869   9.942  20.016  0.00  0.00    +0.000 C 
ATOM      3  C   UNL     1       0.993   8.422  20.241  0.00  0.00    +0.000 C 
ATOM      4  N   UNL     1       2.021   7.738  19.433  0.00  0.00    +0.000 N 
ATOM      5  C   UNL     1       2.327   6.438  19.861  0.00  0.00    +0.000 C 
ATOM      6  O   UNL     1       1.875   6.044  20.946  0.00  0.00    +0.000 OA
ATOM      7  C   UNL     1       2.175   8.263  18.069  0.00  0.00    +0.000 C 
ATOM      8  C   UNL     1       2.038   9.802  17.953  0.00  0.00    +0.000 C 
ENDROOT
BRANCH   5   9
ATOM      9  C   UNL     1       3.210   5.450  19.035  0.00  0.00    +0.000 C 
ATOM     10  C   UNL     1       3.773   4.289  19.887  0.00  0.00    +0.000 C 
ATOM     11  C   UNL     1       4.618   3.332  19.028  0.00  0.00    +0.000 C 
ATOM     12  C   UNL     1       3.716   2.686  17.967  0.00  0.00    +0.000 C 
ATOM     13  C   UNL     1       3.111   3.776  17.072  0.00  0.00    +0.000 C 
ATOM     14  C   UNL     1       4.246   4.529  16.365  0.00  0.00    +0.000 C 
ATOM     15  C   UNL     1       5.153   5.194  17.408  0.00  0.00    +0.000 C 
ATOM     16  C   UNL     1       5.745   4.119  18.335  0.00  0.00    +0.000 C 
ATOM     17  C   UNL     1       4.336   6.180  18.263  0.00  0.00    +0.000 C 
ATOM     18  C   UNL     1       2.311   4.771  17.936  0.00  0.00    +0.000 C 
ENDBRANCH   5   9
BRANCH   1  19
ATOM     19  C   UNL     1      -0.389  10.029  17.892  0.00  0.00    +0.000 C 
BRANCH  19  24
ATOM     20  C   UNL     1      -5.382  12.707  19.435  0.00  0.00    +0.000 C 
ATOM     21  C   UNL     1      -4.084  12.048  19.068  0.00  0.00    +0.000 A 
ATOM     22  C   UNL     1      -4.064  11.101  18.038  0.00  0.00    +0.000 A 
ATOM     23  C   UNL     1      -2.875  10.462  17.677  0.00  0.00    +0.000 A 
ATOM     24  C   UNL     1      -1.671  10.707  18.352  0.00  0.00    +0.000 A 
ATOM     25  C   UNL     1      -1.684  11.695  19.351  0.00  0.00    +0.000 A 
ATOM     26  C   UNL     1      -2.868  12.382  19.703  0.00  0.00    +0.000 A 
ATOM     27  C   UNL     1      -2.808  13.494  20.716  0.00  0.00    +0.000 C 
BRANCH  23  28
ATOM     28  O   UNL     1      -2.874   9.595  16.617  0.00  0.00    +0.000 OA
ATOM     29  H   UNL     1      -2.234   8.888  16.797  0.00  0.00    +0.000 HD
ENDBRANCH  23  28
ENDBRANCH  19  24
ENDBRANCH   1  19
TORSDOF 4
ENDMDL
MODEL 7
REMARK VINA RESULT:      -7.7      0.832      1.411
REMARK  Name = 
REMARK  6 active torsions:
REMARK  status: ('A' for Active; 'I' for Inactive)
REMARK    1  A    between atoms: C_1  and  C_2
REMARK    2  A    between atoms: C_4  and  O_5
REMARK    3  A    between atoms: C_6  and  C_7
REMARK    4  A    between atoms: C_7  and  N_8
REMARK    5  A    between atoms: C_12  and  C_14
REMARK    6  A    between atoms: C_27  and  C_28
REMARK                            x       y       z     vdW  Elec       q    Type
REMARK                         _______ _______ _______ _____ _____    ______ ____
ROOT
ATOM      1  N   UNL     1       1.147  10.198  18.513  0.00  0.00    +0.000 NA
ATOM      2  C   UNL     1       1.166   9.894  19.957  0.00  0.00    +0.000 C 
ATOM      3  C   UNL     1       1.039   8.408  20.342  0.00  0.00    +0.000 C 
ATOM      4  N   UNL     1       1.885   7.473  19.575  0.00  0.00    +0.000 N 
ATOM      5  C   UNL     1       1.986   6.190  20.131  0.00  0.00    +0.000 C 
ATOM      6  O   UNL     1       1.536   5.994  21.269  0.00  0.00    +0.000 OA
ATOM      7  C   UNL     1       2.049   7.822  18.157  0.00  0.00    +0.000 C 
ATOM      8  C   UNL     1       2.173   9.341  17.878  0.00  0.00    +0.000 C 
ENDROOT
BRANCH   5   9
ATOM      9  C   UNL     1       2.637   4.982  19.385  0.00  0.00    +0.000 C 
ATOM     10  C   UNL     1       2.175   4.863  17.915  0.00  0.00    +0.000 C 
ATOM     11  C   UNL     1       2.857   3.673  17.215  0.00  0.00    +0.000 C 
ATOM     12  C   UNL     1       4.371   3.923  17.169  0.00  0.00    +0.000 C 
ATOM     13  C   UNL     1       4.915   4.057  18.598  0.00  0.00    +0.000 C 
ATOM     14  C   UNL     1       4.653   2.749  19.356  0.00  0.00    +0.000 C 
ATOM     15  C   UNL     1       3.143   2.486  19.426  0.00  0.00    +0.000 C 
ATOM     16  C   UNL     1       2.573   2.380  18.002  0.00  0.00    +0.000 C 
ATOM     17  C   UNL     1       2.440   3.650  20.148  0.00  0.00    +0.000 C 
ATOM     18  C   UNL     1       4.193   5.211  19.322  0.00  0.00    +0.000 C 
ENDBRANCH   5   9
BRANCH   1  19
ATOM     19  C   UNL     1      -0.178   9.989  17.886  0.00  0.00    +0.000 C 
BRANCH  19  24
ATOM     20  C   UNL     1      -4.744  13.027  19.984  0.00  0.00    +0.000 C 
ATOM     21  C   UNL     1      -3.551  12.270  19.476  0.00  0.00    +0.000 A 
ATOM     22  C   UNL     1      -3.695  11.427  18.369  0.00  0.00    +0.000 A 
ATOM     23  C   UNL     1      -2.608  10.702  17.876  0.00  0.00    +0.000 A 
ATOM     24  C   UNL     1      -1.348  10.753  18.487  0.00  0.00    +0.000 A 
ATOM     25  C   UNL     1      -1.194  11.640  19.566  0.00  0.00    +0.000 A 
ATOM     26  C   UNL     1      -2.271  12.413  20.055  0.00  0.00    +0.000 A 
ATOM     27  C   UNL     1      -2.030  13.413  21.154  0.00  0.00    +0.000 C 
BRANCH  23  28
ATOM     28  O   UNL     1      -2.764   9.942  16.747  0.00  0.00    +0.000 OA
ATOM     29  H   UNL     1      -2.230  10.331  16.036  0.00  0.00    +0.000 HD
ENDBRANCH  23  28
ENDBRANCH  19  24
ENDBRANCH   1  19
TORSDOF 4
ENDMDL
MODEL 8
REMARK VINA RESULT:      -7.7      0.912      1.622
REMARK  Name = 
REMARK  6 active torsions:
REMARK  status: ('A' for Active; 'I' for Inactive)
REMARK    1  A    between atoms: C_1  and  C_2
REMARK    2  A    between atoms: C_4  and  O_5
REMARK    3  A    between atoms: C_6  and  C_7
REMARK    4  A    between atoms: C_7  and  N_8
REMARK    5  A    between atoms: C_12  and  C_14
REMARK    6  A    between atoms: C_27  and  C_28
REMARK                            x       y       z     vdW  Elec       q    Type
REMARK                         _______ _______ _______ _____ _____    ______ ____
ROOT
ATOM      1  N   UNL     1       0.648  10.305  18.712  0.00  0.00    +0.000 NA
ATOM      2  C   UNL     1       0.713   9.593  20.002  0.00  0.00    +0.000 C 
ATOM      3  C   UNL     1       1.165   8.121  19.945  0.00  0.00    +0.000 C 
ATOM      4  N   UNL     1       2.349   7.847  19.107  0.00  0.00    +0.000 N 
ATOM      5  C   UNL     1       2.921   6.583  19.306  0.00  0.00    +0.000 C 
ATOM      6  O   UNL     1       2.530   5.891  20.256  0.00  0.00    +0.000 OA
ATOM      7  C   UNL     1       2.432   8.657  17.884  0.00  0.00    +0.000 C 
ATOM      8  C   UNL     1       1.959  10.123  18.050  0.00  0.00    +0.000 C 
ENDROOT
BRANCH   5   9
ATOM      9  C   UNL     1       4.033   5.992  18.382  0.00  0.00    +0.000 C 
ATOM     10  C   UNL     1       5.153   5.276  19.170  0.00  0.00    +0.000 C 
ATOM     11  C   UNL     1       6.214   4.692  18.219  0.00  0.00    +0.000 C 
ATOM     12  C   UNL     1       5.557   3.620  17.338  0.00  0.00    +0.000 C 
ATOM     13  C   UNL     1       4.424   4.250  16.517  0.00  0.00    +0.000 C 
ATOM     14  C   UNL     1       5.011   5.341  15.612  0.00  0.00    +0.000 C 
ATOM     15  C   UNL     1       5.662   6.432  16.473  0.00  0.00    +0.000 C 
ATOM     16  C   UNL     1       6.780   5.813  17.328  0.00  0.00    +0.000 C 
ATOM     17  C   UNL     1       4.613   7.052  17.415  0.00  0.00    +0.000 C 
ATOM     18  C   UNL     1       3.389   4.886  17.465  0.00  0.00    +0.000 C 
ENDBRANCH   5   9
BRANCH   1  19
ATOM     19  C   UNL     1      -0.453   9.839  17.838  0.00  0.00    +0.000 C 
BRANCH  19  24
ATOM     20  C   UNL     1      -5.703  12.403  18.438  0.00  0.00    +0.000 C 
ATOM     21  C   UNL     1      -4.346  11.769  18.318  0.00  0.00    +0.000 A 
ATOM     22  C   UNL     1      -4.078  10.926  17.236  0.00  0.00    +0.000 A 
ATOM     23  C   UNL     1      -2.829  10.313  17.099  0.00  0.00    +0.000 A 
ATOM     24  C   UNL     1      -1.816  10.481  18.053  0.00  0.00    +0.000 A 
ATOM     25  C   UNL     1      -2.072  11.370  19.111  0.00  0.00    +0.000 A 
ATOM     26  C   UNL     1      -3.314  12.030  19.245  0.00  0.00    +0.000 A 
ATOM     27  C   UNL     1      -3.504  13.040  20.346  0.00  0.00    +0.000 C 
BRANCH  23  28
ATOM     28  O   UNL     1      -2.573   9.551  15.990  0.00  0.00    +0.000 OA
ATOM     29  H   UNL     1      -2.444  10.144  15.232  0.00  0.00    +0.000 HD
ENDBRANCH  23  28
ENDBRANCH  19  24
ENDBRANCH   1  19
TORSDOF 4
ENDMDL
MODEL 9
REMARK VINA RESULT:      -7.7      0.905      1.826
REMARK  Name = 
REMARK  6 active torsions:
REMARK  status: ('A' for Active; 'I' for Inactive)
REMARK    1  A    between atoms: C_1  and  C_2
REMARK    2  A    between atoms: C_4  and  O_5
REMARK    3  A    between atoms: C_6  and  C_7
REMARK    4  A    between atoms: C_7  and  N_8
REMARK    5  A    between atoms: C_12  and  C_14
REMARK    6  A    between atoms: C_27  and  C_28
REMARK                            x       y       z     vdW  Elec       q    Type
REMARK                         _______ _______ _______ _____ _____    ______ ____
ROOT
ATOM      1  N   UNL     1       0.713  10.281  18.763  0.00  0.00    +0.000 NA
ATOM      2  C   UNL     1       0.791   9.572  20.054  0.00  0.00    +0.000 C 
ATOM      3  C   UNL     1       1.217   8.092  19.995  0.00  0.00    +0.000 C 
ATOM      4  N   UNL     1       2.380   7.796  19.136  0.00  0.00    +0.000 N 
ATOM      5  C   UNL     1       2.936   6.523  19.328  0.00  0.00    +0.000 C 
ATOM      6  O   UNL     1       2.550   5.841  20.289  0.00  0.00    +0.000 OA
ATOM      7  C   UNL     1       2.455   8.600  17.909  0.00  0.00    +0.000 C 
ATOM      8  C   UNL     1       2.009  10.075  18.078  0.00  0.00    +0.000 C 
ENDROOT
BRANCH   5   9
ATOM      9  C   UNL     1       4.020   5.910  18.387  0.00  0.00    +0.000 C 
ATOM     10  C   UNL     1       3.433   4.915  17.360  0.00  0.00    +0.000 C 
ATOM     11  C   UNL     1       4.534   4.353  16.441  0.00  0.00    +0.000 C 
ATOM     12  C   UNL     1       5.136   5.505  15.625  0.00  0.00    +0.000 C 
ATOM     13  C   UNL     1       5.744   6.548  16.573  0.00  0.00    +0.000 C 
ATOM     14  C   UNL     1       6.860   5.886  17.393  0.00  0.00    +0.000 C 
ATOM     15  C   UNL     1       6.277   4.739  18.228  0.00  0.00    +0.000 C 
ATOM     16  C   UNL     1       5.635   3.698  17.296  0.00  0.00    +0.000 C 
ATOM     17  C   UNL     1       5.191   5.280  19.178  0.00  0.00    +0.000 C 
ATOM     18  C   UNL     1       4.657   7.070  17.534  0.00  0.00    +0.000 C 
ENDBRANCH   5   9
BRANCH   1  19
ATOM     19  C   UNL     1      -0.411   9.830  17.912  0.00  0.00    +0.000 C 
BRANCH  19  24
ATOM     20  C   UNL     1      -5.614  12.463  18.613  0.00  0.00    +0.000 C 
ATOM     21  C   UNL     1      -4.268  11.813  18.467  0.00  0.00    +0.000 A 
ATOM     22  C   UNL     1      -4.039  10.947  17.392  0.00  0.00    +0.000 A 
ATOM     23  C   UNL     1      -2.802  10.319  17.232  0.00  0.00    +0.000 A 
ATOM     24  C   UNL     1      -1.760  10.491  18.153  0.00  0.00    +0.000 A 
ATOM     25  C   UNL     1      -1.976  11.401  19.203  0.00  0.00    +0.000 A 
ATOM     26  C   UNL     1      -3.206  12.078  19.360  0.00  0.00    +0.000 A 
ATOM     27  C   UNL     1      -3.354  13.109  20.447  0.00  0.00    +0.000 C 
BRANCH  23  28
ATOM     28  O   UNL     1      -2.585   9.535  16.129  0.00  0.00    +0.000 OA
ATOM     29  H   UNL     1      -2.510   8.611  16.418  0.00  0.00    +0.000 HD
ENDBRANCH  23  28
ENDBRANCH  19  24
ENDBRANCH   1  19
TORSDOF 4
ENDMDL
