MODEL 1
REMARK VINA RESULT:      -8.4      0.000      0.000
REMARK  Name = 
REMARK  6 active torsions:
REMARK  status: ('A' for Active; 'I' for Inactive)
REMARK    1  A    between atoms: C_1  and  O_2
REMARK    2  A    between atoms: O_2  and  C_3
REMARK    3  A    between atoms: C_8  and  C_9
REMARK    4  A    between atoms: C_9  and  N_10
REMARK    5  A    between atoms: N_10  and  C_11
REMARK    6  A    between atoms: C_13  and  C_14
REMARK                            x       y       z     vdW  Elec       q    Type
REMARK                         _______ _______ _______ _____ _____    ______ ____
ROOT
ATOM      1  C   UNL     1       5.530   4.409  17.738  0.00  0.00    +0.000 A 
ATOM      2  N   UNL     1       4.889   4.344  16.562  0.00  0.00    +0.000 NA
ATOM      3  C   UNL     1       5.191   5.266  15.655  0.00  0.00    +0.000 A 
ATOM      4  N   UNL     1       5.561   6.496  15.964  0.00  0.00    +0.000 NA
ATOM      5  C   UNL     1       6.305   6.576  17.035  0.00  0.00    +0.000 A 
ATOM      6  C   UNL     1       7.159   7.662  17.054  0.00  0.00    +0.000 A 
ATOM      7  C   UNL     1       8.152   7.815  18.001  0.00  0.00    +0.000 A 
ATOM      8  C   UNL     1       8.232   6.889  19.027  0.00  0.00    +0.000 A 
ATOM      9  C   UNL     1       7.353   5.770  19.069  0.00  0.00    +0.000 A 
ATOM     10  C   UNL     1       6.396   5.542  18.019  0.00  0.00    +0.000 A 
ENDROOT
BRANCH   3  11
ATOM     11  C   UNL     1       6.026   4.726  14.583  0.00  0.00    +0.000 A 
ATOM     12  C   UNL     1       7.254   5.217  14.060  0.00  0.00    +0.000 A 
ATOM     13  C   UNL     1       7.456   4.560  12.870  0.00  0.00    +0.000 A 
ATOM     14  O   UNL     1       6.420   3.727  12.599  0.00  0.00    +0.000 OA
ATOM     15  C   UNL     1       5.548   3.847  13.627  0.00  0.00    +0.000 A 
ENDBRANCH   3  11
BRANCH   1  16
ATOM     16  N   UNL     1       5.384   3.272  18.576  0.00  0.00    +0.000 N 
ATOM     17  H   UNL     1       6.185   2.666  18.408  0.00  0.00    +0.000 HD
BRANCH  16  18
ATOM     18  C   UNL     1       4.129   2.447  18.343  0.00  0.00    +0.000 C 
BRANCH  18  24
ATOM     19  C   UNL     1       1.717   3.007  19.113  0.00  0.00    +0.000 A 
ATOM     20  C   UNL     1       0.789   3.215  20.154  0.00  0.00    +0.000 A 
ATOM     21  C   UNL     1       1.141   2.986  21.480  0.00  0.00    +0.000 A 
ATOM     22  C   UNL     1       2.440   2.603  21.781  0.00  0.00    +0.000 A 
ATOM     23  C   UNL     1       3.383   2.437  20.760  0.00  0.00    +0.000 A 
ATOM     24  C   UNL     1       3.041   2.598  19.405  0.00  0.00    +0.000 A 
BRANCH  19  26
ATOM     25  C   UNL     1       1.359   4.618  17.430  0.00  0.00    +0.000 C 
ATOM     26  O   UNL     1       1.379   3.237  17.799  0.00  0.00    +0.000 OA
ENDBRANCH  19  26
ENDBRANCH  18  24
ENDBRANCH  16  18
ENDBRANCH   1  16
TORSDOF 5
ENDMDL
MODEL 2
REMARK VINA RESULT:      -8.4      1.083      1.117
REMARK  Name = 
REMARK  6 active torsions:
REMARK  status: ('A' for Active; 'I' for Inactive)
REMARK    1  A    between atoms: C_1  and  O_2
REMARK    2  A    between atoms: O_2  and  C_3
REMARK    3  A    between atoms: C_8  and  C_9
REMARK    4  A    between atoms: C_9  and  N_10
REMARK    5  A    between atoms: N_10  and  C_11
REMARK    6  A    between atoms: C_13  and  C_14
REMARK                            x       y       z     vdW  Elec       q    Type
REMARK                         _______ _______ _______ _____ _____    ______ ____
ROOT
ATOM      1  C   UNL     1       5.127   4.018  16.993  0.00  0.00    +0.000 A 
ATOM      2  N   UNL     1       4.741   4.250  15.730  0.00  0.00    +0.000 NA
ATOM      3  C   UNL     1       5.324   5.257  15.092  0.00  0.00    +0.000 A 
ATOM      4  N   UNL     1       5.757   6.348  15.699  0.00  0.00    +0.000 NA
ATOM      5  C   UNL     1       6.268   6.134  16.883  0.00  0.00    +0.000 A 
ATOM      6  C   UNL     1       7.215   7.062  17.269  0.00  0.00    +0.000 A 
ATOM      7  C   UNL     1       8.001   6.903  18.393  0.00  0.00    +0.000 A 
ATOM      8  C   UNL     1       7.762   5.815  19.215  0.00  0.00    +0.000 A 
ATOM      9  C   UNL     1       6.775   4.848  18.875  0.00  0.00    +0.000 A 
ATOM     10  C   UNL     1       6.037   4.945  17.644  0.00  0.00    +0.000 A 
ENDROOT
BRANCH   3  11
ATOM     11  C   UNL     1       6.299   4.790  14.107  0.00  0.00    +0.000 A 
ATOM     12  C   UNL     1       7.475   5.429  13.625  0.00  0.00    +0.000 A 
ATOM     13  C   UNL     1       7.848   4.745  12.492  0.00  0.00    +0.000 A 
ATOM     14  O   UNL     1       6.964   3.753  12.216  0.00  0.00    +0.000 OA
ATOM     15  C   UNL     1       6.017   3.798  13.183  0.00  0.00    +0.000 A 
ENDBRANCH   3  11
BRANCH   1  16
ATOM     16  N   UNL     1       4.684   2.790  17.551  0.00  0.00    +0.000 N 
ATOM     17  H   UNL     1       5.006   2.043  16.936  0.00  0.00    +0.000 HD
BRANCH  16  18
ATOM     18  C   UNL     1       3.178   2.644  17.698  0.00  0.00    +0.000 C 
BRANCH  18  24
ATOM     19  C   UNL     1       2.049   4.438  19.192  0.00  0.00    +0.000 A 
ATOM     20  C   UNL     1       1.617   4.866  20.464  0.00  0.00    +0.000 A 
ATOM     21  C   UNL     1       1.686   4.018  21.564  0.00  0.00    +0.000 A 
ATOM     22  C   UNL     1       2.242   2.755  21.414  0.00  0.00    +0.000 A 
ATOM     23  C   UNL     1       2.714   2.335  20.165  0.00  0.00    +0.000 A 
ATOM     24  C   UNL     1       2.600   3.145  19.021  0.00  0.00    +0.000 A 
BRANCH  19  26
ATOM     25  C   UNL     1       2.696   6.504  18.261  0.00  0.00    +0.000 C 
ATOM     26  O   UNL     1       1.989   5.272  18.099  0.00  0.00    +0.000 OA
ENDBRANCH  19  26
ENDBRANCH  18  24
ENDBRANCH  16  18
ENDBRANCH   1  16
TORSDOF 5
ENDMDL
MODEL 3
REMARK VINA RESULT:      -8.4      1.154      1.909
REMARK  Name = 
REMARK  6 active torsions:
REMARK  status: ('A' for Active; 'I' for Inactive)
REMARK    1  A    between atoms: C_1  and  O_2
REMARK    2  A    between atoms: O_2  and  C_3
REMARK    3  A    between atoms: C_8  and  C_9
REMARK    4  A    between atoms: C_9  and  N_10
REMARK    5  A    between atoms: N_10  and  C_11
REMARK    6  A    between atoms: C_13  and  C_14
REMARK                            x       y       z     vdW  Elec       q    Type
REMARK                         _______ _______ _______ _____ _____    ______ ____
ROOT
ATOM      1  C   UNL     1       5.152   4.053  17.005  0.00  0.00    +0.000 A 
ATOM      2  N   UNL     1       4.747   4.257  15.743  0.00  0.00    +0.000 NA
ATOM      3  C   UNL     1       5.304   5.265  15.083  0.00  0.00    +0.000 A 
ATOM      4  N   UNL     1       5.723   6.374  15.668  0.00  0.00    +0.000 NA
ATOM      5  C   UNL     1       6.251   6.187  16.848  0.00  0.00    +0.000 A 
ATOM      6  C   UNL     1       7.185   7.139  17.210  0.00  0.00    +0.000 A 
ATOM      7  C   UNL     1       7.987   7.012  18.326  0.00  0.00    +0.000 A 
ATOM      8  C   UNL     1       7.779   5.932  19.167  0.00  0.00    +0.000 A 
ATOM      9  C   UNL     1       6.805   4.942  18.854  0.00  0.00    +0.000 A 
ATOM     10  C   UNL     1       6.051   5.006  17.630  0.00  0.00    +0.000 A 
ENDROOT
BRANCH   3  11
ATOM     11  C   UNL     1       6.275   4.801  14.093  0.00  0.00    +0.000 A 
ATOM     12  C   UNL     1       7.454   5.438  13.616  0.00  0.00    +0.000 A 
ATOM     13  C   UNL     1       7.823   4.761  12.477  0.00  0.00    +0.000 A 
ATOM     14  O   UNL     1       6.934   3.776  12.194  0.00  0.00    +0.000 OA
ATOM     15  C   UNL     1       5.988   3.818  13.161  0.00  0.00    +0.000 A 
ENDBRANCH   3  11
BRANCH   1  16
ATOM     16  N   UNL     1       4.739   2.825  17.586  0.00  0.00    +0.000 N 
ATOM     17  H   UNL     1       5.108   2.074  17.005  0.00  0.00    +0.000 HD
BRANCH  16  18
ATOM     18  C   UNL     1       3.235   2.625  17.690  0.00  0.00    +0.000 C 
BRANCH  18  24
ATOM     19  C   UNL     1       3.369   2.545  20.278  0.00  0.00    +0.000 A 
ATOM     20  C   UNL     1       2.735   2.646  21.534  0.00  0.00    +0.000 A 
ATOM     21  C   UNL     1       1.404   3.039  21.632  0.00  0.00    +0.000 A 
ATOM     22  C   UNL     1       0.681   3.279  20.472  0.00  0.00    +0.000 A 
ATOM     23  C   UNL     1       1.287   3.140  19.219  0.00  0.00    +0.000 A 
ATOM     24  C   UNL     1       2.647   2.806  19.089  0.00  0.00    +0.000 A 
BRANCH  19  26
ATOM     25  C   UNL     1       5.109   1.243  21.190  0.00  0.00    +0.000 C 
ATOM     26  O   UNL     1       4.684   2.152  20.171  0.00  0.00    +0.000 OA
ENDBRANCH  19  26
ENDBRANCH  18  24
ENDBRANCH  16  18
ENDBRANCH   1  16
TORSDOF 5
ENDMDL
MODEL 4
REMARK VINA RESULT:      -8.3      4.002      6.074
REMARK  Name = 
REMARK  6 active torsions:
REMARK  status: ('A' for Active; 'I' for Inactive)
REMARK    1  A    between atoms: C_1  and  O_2
REMARK    2  A    between atoms: O_2  and  C_3
REMARK    3  A    between atoms: C_8  and  C_9
REMARK    4  A    between atoms: C_9  and  N_10
REMARK    5  A    between atoms: N_10  and  C_11
REMARK    6  A    between atoms: C_13  and  C_14
REMARK                            x       y       z     vdW  Elec       q    Type
REMARK                         _______ _______ _______ _____ _____    ______ ____
ROOT
ATOM      1  C   UNL     1       3.003   5.825  19.639  0.00  0.00    +0.000 A 
ATOM      2  N   UNL     1       4.254   6.057  19.212  0.00  0.00    +0.000 NA
ATOM      3  C   UNL     1       4.881   5.060  18.602  0.00  0.00    +0.000 A 
ATOM      4  N   UNL     1       4.669   3.787  18.884  0.00  0.00    +0.000 NA
ATOM      5  C   UNL     1       3.426   3.503  19.171  0.00  0.00    +0.000 A 
ATOM      6  C   UNL     1       3.061   2.201  18.892  0.00  0.00    +0.000 A 
ATOM      7  C   UNL     1       1.752   1.764  18.945  0.00  0.00    +0.000 A 
ATOM      8  C   UNL     1       0.781   2.646  19.388  0.00  0.00    +0.000 A 
ATOM      9  C   UNL     1       1.114   3.990  19.718  0.00  0.00    +0.000 A 
ATOM     10  C   UNL     1       2.455   4.483  19.549  0.00  0.00    +0.000 A 
ENDROOT
BRANCH   3  11
ATOM     11  C   UNL     1       4.958   5.266  17.156  0.00  0.00    +0.000 A 
ATOM     12  C   UNL     1       5.326   4.350  16.131  0.00  0.00    +0.000 A 
ATOM     13  C   UNL     1       5.560   5.106  15.006  0.00  0.00    +0.000 A 
ATOM     14  O   UNL     1       5.402   6.427  15.273  0.00  0.00    +0.000 OA
ATOM     15  C   UNL     1       5.059   6.520  16.579  0.00  0.00    +0.000 A 
ENDBRANCH   3  11
BRANCH   1  16
ATOM     16  N   UNL     1       2.274   6.974  20.045  0.00  0.00    +0.000 N 
ATOM     17  H   UNL     1       1.303   6.690  20.169  0.00  0.00    +0.000 HD
BRANCH  16  18
ATOM     18  C   UNL     1       2.289   8.137  19.066  0.00  0.00    +0.000 C 
BRANCH  18  24
ATOM     19  C   UNL     1       0.631   9.543  20.478  0.00  0.00    +0.000 A 
ATOM     20  C   UNL     1      -0.485  10.402  20.548  0.00  0.00    +0.000 A 
ATOM     21  C   UNL     1      -1.078  10.897  19.391  0.00  0.00    +0.000 A 
ATOM     22  C   UNL     1      -0.595  10.492  18.155  0.00  0.00    +0.000 A 
ATOM     23  C   UNL     1       0.485   9.606  18.073  0.00  0.00    +0.000 A 
ATOM     24  C   UNL     1       1.146   9.138  19.224  0.00  0.00    +0.000 A 
BRANCH  19  26
ATOM     25  C   UNL     1       0.538   9.381  22.828  0.00  0.00    +0.000 C 
ATOM     26  O   UNL     1       1.221   9.044  21.618  0.00  0.00    +0.000 OA
ENDBRANCH  19  26
ENDBRANCH  18  24
ENDBRANCH  16  18
ENDBRANCH   1  16
TORSDOF 5
ENDMDL
MODEL 5
REMARK VINA RESULT:      -8.3      3.773      5.929
REMARK  Name = 
REMARK  6 active torsions:
REMARK  status: ('A' for Active; 'I' for Inactive)
REMARK    1  A    between atoms: C_1  and  O_2
REMARK    2  A    between atoms: O_2  and  C_3
REMARK    3  A    between atoms: C_8  and  C_9
REMARK    4  A    between atoms: C_9  and  N_10
REMARK    5  A    between atoms: N_10  and  C_11
REMARK    6  A    between atoms: C_13  and  C_14
REMARK                            x       y       z     vdW  Elec       q    Type
REMARK                         _______ _______ _______ _____ _____    ______ ____
ROOT
ATOM      1  C   UNL     1       3.505   5.425  19.694  0.00  0.00    +0.000 A 
ATOM      2  N   UNL     1       4.844   5.483  19.638  0.00  0.00    +0.000 NA
ATOM      3  C   UNL     1       5.477   4.415  19.168  0.00  0.00    +0.000 A 
ATOM      4  N   UNL     1       5.028   3.181  19.311  0.00  0.00    +0.000 NA
ATOM      5  C   UNL     1       3.728   3.074  19.232  0.00  0.00    +0.000 A 
ATOM      6  C   UNL     1       3.284   1.842  18.794  0.00  0.00    +0.000 A 
ATOM      7  C   UNL     1       1.966   1.596  18.464  0.00  0.00    +0.000 A 
ATOM      8  C   UNL     1       1.037   2.601  18.673  0.00  0.00    +0.000 A 
ATOM      9  C   UNL     1       1.441   3.878  19.155  0.00  0.00    +0.000 A 
ATOM     10  C   UNL     1       2.830   4.177  19.385  0.00  0.00    +0.000 A 
ENDROOT
BRANCH   3  11
ATOM     11  C   UNL     1       5.980   4.631  17.811  0.00  0.00    +0.000 A 
ATOM     12  C   UNL     1       5.336   4.405  16.563  0.00  0.00    +0.000 A 
ATOM     13  C   UNL     1       6.325   4.442  15.608  0.00  0.00    +0.000 A 
ATOM     14  O   UNL     1       7.540   4.634  16.181  0.00  0.00    +0.000 OA
ATOM     15  C   UNL     1       7.328   4.726  17.515  0.00  0.00    +0.000 A 
ENDBRANCH   3  11
BRANCH   1  16
ATOM     16  N   UNL     1       2.852   6.660  19.948  0.00  0.00    +0.000 N 
ATOM     17  H   UNL     1       2.052   6.463  20.548  0.00  0.00    +0.000 HD
BRANCH  16  18
ATOM     18  C   UNL     1       2.333   7.390  18.719  0.00  0.00    +0.000 C 
BRANCH  18  24
ATOM     19  C   UNL     1       1.082   9.200  20.090  0.00  0.00    +0.000 A 
ATOM     20  C   UNL     1       0.591  10.517  20.206  0.00  0.00    +0.000 A 
ATOM     21  C   UNL     1       0.882  11.474  19.239  0.00  0.00    +0.000 A 
ATOM     22  C   UNL     1       1.617  11.108  18.121  0.00  0.00    +0.000 A 
ATOM     23  C   UNL     1       2.072   9.792  17.974  0.00  0.00    +0.000 A 
ATOM     24  C   UNL     1       1.849   8.818  18.963  0.00  0.00    +0.000 A 
BRANCH  19  26
ATOM     25  C   UNL     1      -0.358   8.535  21.833  0.00  0.00    +0.000 C 
ATOM     26  O   UNL     1       0.795   8.245  21.039  0.00  0.00    +0.000 OA
ENDBRANCH  19  26
ENDBRANCH  18  24
ENDBRANCH  16  18
ENDBRANCH   1  16
TORSDOF 5
ENDMDL
MODEL 6
REMARK VINA RESULT:      -8.2      3.948      5.703
REMARK  Name = 
REMARK  6 active torsions:
REMARK  status: ('A' for Active; 'I' for Inactive)
REMARK    1  A    between atoms: C_1  and  O_2
REMARK    2  A    between atoms: O_2  and  C_3
REMARK    3  A    between atoms: C_8  and  C_9
REMARK    4  A    between atoms: C_9  and  N_10
REMARK    5  A    between atoms: N_10  and  C_11
REMARK    6  A    between atoms: C_13  and  C_14
REMARK                            x       y       z     vdW  Elec       q    Type
REMARK                         _______ _______ _______ _____ _____    ______ ____
ROOT
ATOM      1  C   UNL     1       3.495   5.621  19.501  0.00  0.00    +0.000 A 
ATOM      2  N   UNL     1       4.833   5.703  19.556  0.00  0.00    +0.000 NA
ATOM      3  C   UNL     1       5.521   4.612  19.240  0.00  0.00    +0.000 A 
ATOM      4  N   UNL     1       5.079   3.386  19.455  0.00  0.00    +0.000 NA
ATOM      5  C   UNL     1       3.792   3.243  19.275  0.00  0.00    +0.000 A 
ATOM      6  C   UNL     1       3.408   1.967  18.913  0.00  0.00    +0.000 A 
ATOM      7  C   UNL     1       2.127   1.664  18.495  0.00  0.00    +0.000 A 
ATOM      8  C   UNL     1       1.169   2.662  18.531  0.00  0.00    +0.000 A 
ATOM      9  C   UNL     1       1.510   3.986  18.928  0.00  0.00    +0.000 A 
ATOM     10  C   UNL     1       2.868   4.335  19.249  0.00  0.00    +0.000 A 
ENDROOT
BRANCH   3  11
ATOM     11  C   UNL     1       6.137   4.717  17.918  0.00  0.00    +0.000 A 
ATOM     12  C   UNL     1       5.582   4.441  16.638  0.00  0.00    +0.000 A 
ATOM     13  C   UNL     1       6.643   4.373  15.766  0.00  0.00    +0.000 A 
ATOM     14  O   UNL     1       7.818   4.547  16.422  0.00  0.00    +0.000 OA
ATOM     15  C   UNL     1       7.508   4.733  17.726  0.00  0.00    +0.000 A 
ENDBRANCH   3  11
BRANCH   1  16
ATOM     16  N   UNL     1       2.805   6.858  19.585  0.00  0.00    +0.000 N 
ATOM     17  H   UNL     1       3.494   7.578  19.796  0.00  0.00    +0.000 HD
BRANCH  16  18
ATOM     18  C   UNL     1       1.725   6.932  20.653  0.00  0.00    +0.000 C 
BRANCH  18  24
ATOM     19  C   UNL     1       1.041   9.314  19.889  0.00  0.00    +0.000 A 
ATOM     20  C   UNL     1       0.576  10.607  20.205  0.00  0.00    +0.000 A 
ATOM     21  C   UNL     1       0.172  10.924  21.498  0.00  0.00    +0.000 A 
ATOM     22  C   UNL     1       0.283   9.968  22.498  0.00  0.00    +0.000 A 
ATOM     23  C   UNL     1       0.784   8.694  22.205  0.00  0.00    +0.000 A 
ATOM     24  C   UNL     1       1.141   8.323  20.896  0.00  0.00    +0.000 A 
BRANCH  19  26
ATOM     25  C   UNL     1       1.972  10.096  17.870  0.00  0.00    +0.000 C 
ATOM     26  O   UNL     1       1.448   8.993  18.614  0.00  0.00    +0.000 OA
ENDBRANCH  19  26
ENDBRANCH  18  24
ENDBRANCH  16  18
ENDBRANCH   1  16
TORSDOF 5
ENDMDL
MODEL 7
REMARK VINA RESULT:      -8.2      4.031      5.804
REMARK  Name = 
REMARK  6 active torsions:
REMARK  status: ('A' for Active; 'I' for Inactive)
REMARK    1  A    between atoms: C_1  and  O_2
REMARK    2  A    between atoms: O_2  and  C_3
REMARK    3  A    between atoms: C_8  and  C_9
REMARK    4  A    between atoms: C_9  and  N_10
REMARK    5  A    between atoms: N_10  and  C_11
REMARK    6  A    between atoms: C_13  and  C_14
REMARK                            x       y       z     vdW  Elec       q    Type
REMARK                         _______ _______ _______ _____ _____    ______ ____
ROOT
ATOM      1  C   UNL     1       3.234   5.509  19.879  0.00  0.00    +0.000 A 
ATOM      2  N   UNL     1       4.476   5.660  19.395  0.00  0.00    +0.000 NA
ATOM      3  C   UNL     1       4.918   4.730  18.558  0.00  0.00    +0.000 A 
ATOM      4  N   UNL     1       4.546   3.464  18.616  0.00  0.00    +0.000 NA
ATOM      5  C   UNL     1       3.296   3.289  18.953  0.00  0.00    +0.000 A 
ATOM      6  C   UNL     1       2.734   2.123  18.470  0.00  0.00    +0.000 A 
ATOM      7  C   UNL     1       1.383   1.854  18.555  0.00  0.00    +0.000 A 
ATOM      8  C   UNL     1       0.575   2.748  19.237  0.00  0.00    +0.000 A 
ATOM      9  C   UNL     1       1.113   3.948  19.781  0.00  0.00    +0.000 A 
ATOM     10  C   UNL     1       2.498   4.291  19.590  0.00  0.00    +0.000 A 
ENDROOT
BRANCH   3  11
ATOM     11  C   UNL     1       4.934   5.203  17.174  0.00  0.00    +0.000 A 
ATOM     12  C   UNL     1       5.277   4.504  15.984  0.00  0.00    +0.000 A 
ATOM     13  C   UNL     1       5.454   5.461  15.012  0.00  0.00    +0.000 A 
ATOM     14  O   UNL     1       5.284   6.705  15.526  0.00  0.00    +0.000 OA
ATOM     15  C   UNL     1       4.991   6.545  16.838  0.00  0.00    +0.000 A 
ENDBRANCH   3  11
BRANCH   1  16
ATOM     16  N   UNL     1       2.701   6.640  20.553  0.00  0.00    +0.000 N 
ATOM     17  H   UNL     1       2.032   6.296  21.240  0.00  0.00    +0.000 HD
BRANCH  16  18
ATOM     18  C   UNL     1       1.976   7.643  19.671  0.00  0.00    +0.000 C 
BRANCH  18  24
ATOM     19  C   UNL     1       0.401   9.701  19.770  0.00  0.00    +0.000 A 
ATOM     20  C   UNL     1      -0.309  10.656  20.526  0.00  0.00    +0.000 A 
ATOM     21  C   UNL     1      -0.361  10.572  21.914  0.00  0.00    +0.000 A 
ATOM     22  C   UNL     1       0.343   9.565  22.559  0.00  0.00    +0.000 A 
ATOM     23  C   UNL     1       1.086   8.636  21.821  0.00  0.00    +0.000 A 
ATOM     24  C   UNL     1       1.107   8.657  20.415  0.00  0.00    +0.000 A 
BRANCH  19  26
ATOM     25  C   UNL     1      -0.792  10.055  17.768  0.00  0.00    +0.000 C 
ATOM     26  O   UNL     1       0.462   9.780  18.397  0.00  0.00    +0.000 OA
ENDBRANCH  19  26
ENDBRANCH  18  24
ENDBRANCH  16  18
ENDBRANCH   1  16
TORSDOF 5
ENDMDL
MODEL 8
REMARK VINA RESULT:      -8.1      3.797      5.492
REMARK  Name = 
REMARK  6 active torsions:
REMARK  status: ('A' for Active; 'I' for Inactive)
REMARK    1  A    between atoms: C_1  and  O_2
REMARK    2  A    between atoms: O_2  and  C_3
REMARK    3  A    between atoms: C_8  and  C_9
REMARK    4  A    between atoms: C_9  and  N_10
REMARK    5  A    between atoms: N_10  and  C_11
REMARK    6  A    between atoms: C_13  and  C_14
REMARK                            x       y       z     vdW  Elec       q    Type
REMARK                         _______ _______ _______ _____ _____    ______ ____
ROOT
ATOM      1  C   UNL     1       3.005   6.094  18.194  0.00  0.00    +0.000 A 
ATOM      2  N   UNL     1       4.277   6.506  18.304  0.00  0.00    +0.000 NA
ATOM      3  C   UNL     1       5.198   5.577  18.528  0.00  0.00    +0.000 A 
ATOM      4  N   UNL     1       4.962   4.468  19.208  0.00  0.00    +0.000 NA
ATOM      5  C   UNL     1       3.772   3.965  19.013  0.00  0.00    +0.000 A 
ATOM      6  C   UNL     1       3.696   2.599  19.196  0.00  0.00    +0.000 A 
ATOM      7  C   UNL     1       2.580   1.860  18.854  0.00  0.00    +0.000 A 
ATOM      8  C   UNL     1       1.460   2.534  18.397  0.00  0.00    +0.000 A 
ATOM      9  C   UNL     1       1.479   3.946  18.223  0.00  0.00    +0.000 A 
ATOM     10  C   UNL     1       2.678   4.705  18.463  0.00  0.00    +0.000 A 
ENDROOT
BRANCH   3  11
ATOM     11  C   UNL     1       5.991   5.294  17.332  0.00  0.00    +0.000 A 
ATOM     12  C   UNL     1       5.559   4.962  16.019  0.00  0.00    +0.000 A 
ATOM     13  C   UNL     1       6.664   4.473  15.362  0.00  0.00    +0.000 A 
ATOM     14  O   UNL     1       7.740   4.441  16.189  0.00  0.00    +0.000 OA
ATOM     15  C   UNL     1       7.323   4.919  17.385  0.00  0.00    +0.000 A 
ENDBRANCH   3  11
BRANCH   1  16
ATOM     16  N   UNL     1       2.092   7.062  17.699  0.00  0.00    +0.000 N 
ATOM     17  H   UNL     1       2.219   7.112  16.689  0.00  0.00    +0.000 HD
BRANCH  16  18
ATOM     18  C   UNL     1       2.266   8.467  18.251  0.00  0.00    +0.000 C 
BRANCH  18  24
ATOM     19  C   UNL     1       0.341   9.775  19.394  0.00  0.00    +0.000 A 
ATOM     20  C   UNL     1      -0.380  10.112  20.559  0.00  0.00    +0.000 A 
ATOM     21  C   UNL     1      -0.112   9.482  21.770  0.00  0.00    +0.000 A 
ATOM     22  C   UNL     1       0.915   8.551  21.838  0.00  0.00    +0.000 A 
ATOM     23  C   UNL     1       1.666   8.241  20.698  0.00  0.00    +0.000 A 
ATOM     24  C   UNL     1       1.378   8.814  19.446  0.00  0.00    +0.000 A 
BRANCH  19  26
ATOM     25  C   UNL     1      -1.233  10.182  17.687  0.00  0.00    +0.000 C 
ATOM     26  O   UNL     1       0.087  10.398  18.193  0.00  0.00    +0.000 OA
ENDBRANCH  19  26
ENDBRANCH  18  24
ENDBRANCH  16  18
ENDBRANCH   1  16
TORSDOF 5
ENDMDL
MODEL 9
REMARK VINA RESULT:      -8.0      1.212      1.510
REMARK  Name = 
REMARK  6 active torsions:
REMARK  status: ('A' for Active; 'I' for Inactive)
REMARK    1  A    between atoms: C_1  and  O_2
REMARK    2  A    between atoms: O_2  and  C_3
REMARK    3  A    between atoms: C_8  and  C_9
REMARK    4  A    between atoms: C_9  and  N_10
REMARK    5  A    between atoms: N_10  and  C_11
REMARK    6  A    between atoms: C_13  and  C_14
REMARK                            x       y       z     vdW  Elec       q    Type
REMARK                         _______ _______ _______ _____ _____    ______ ____
ROOT
ATOM      1  C   UNL     1       5.653   4.474  17.786  0.00  0.00    +0.000 A 
ATOM      2  N   UNL     1       4.994   4.375  16.622  0.00  0.00    +0.000 NA
ATOM      3  C   UNL     1       5.254   5.293  15.699  0.00  0.00    +0.000 A 
ATOM      4  N   UNL     1       5.594   6.537  15.986  0.00  0.00    +0.000 NA
ATOM      5  C   UNL     1       6.354   6.653  17.043  0.00  0.00    +0.000 A 
ATOM      6  C   UNL     1       7.176   7.763  17.033  0.00  0.00    +0.000 A 
ATOM      7  C   UNL     1       8.180   7.956  17.961  0.00  0.00    +0.000 A 
ATOM      8  C   UNL     1       8.304   7.046  18.997  0.00  0.00    +0.000 A 
ATOM      9  C   UNL     1       7.458   5.904  19.068  0.00  0.00    +0.000 A 
ATOM     10  C   UNL     1       6.490   5.634  18.038  0.00  0.00    +0.000 A 
ENDROOT
BRANCH   3  11
ATOM     11  C   UNL     1       6.087   4.763  14.620  0.00  0.00    +0.000 A 
ATOM     12  C   UNL     1       7.303   5.271  14.084  0.00  0.00    +0.000 A 
ATOM     13  C   UNL     1       7.502   4.614  12.893  0.00  0.00    +0.000 A 
ATOM     14  O   UNL     1       6.475   3.767  12.633  0.00  0.00    +0.000 OA
ATOM     15  C   UNL     1       5.612   3.876  13.669  0.00  0.00    +0.000 A 
ENDBRANCH   3  11
BRANCH   1  16
ATOM     16  N   UNL     1       5.553   3.345  18.641  0.00  0.00    +0.000 N 
ATOM     17  H   UNL     1       5.188   2.573  18.084  0.00  0.00    +0.000 HD
BRANCH  16  18
ATOM     18  C   UNL     1       4.638   3.514  19.843  0.00  0.00    +0.000 C 
BRANCH  18  24
ATOM     19  C   UNL     1       2.111   3.987  20.175  0.00  0.00    +0.000 A 
ATOM     20  C   UNL     1       0.765   3.624  19.959  0.00  0.00    +0.000 A 
ATOM     21  C   UNL     1       0.439   2.556  19.130  0.00  0.00    +0.000 A 
ATOM     22  C   UNL     1       1.456   1.807  18.555  0.00  0.00    +0.000 A 
ATOM     23  C   UNL     1       2.796   2.131  18.798  0.00  0.00    +0.000 A 
ATOM     24  C   UNL     1       3.158   3.243  19.580  0.00  0.00    +0.000 A 
BRANCH  19  26
ATOM     25  C   UNL     1       1.922   6.302  20.578  0.00  0.00    +0.000 C 
ATOM     26  O   UNL     1       2.443   5.038  20.999  0.00  0.00    +0.000 OA
ENDBRANCH  19  26
ENDBRANCH  18  24
ENDBRANCH  16  18
ENDBRANCH   1  16
TORSDOF 5
ENDMDL
