MODEL 1
REMARK VINA RESULT:      -6.5      0.000      0.000
REMARK  Name = 
REMARK  13 active torsions:
REMARK  status: ('A' for Active; 'I' for Inactive)
REMARK    1  A    between atoms: C_1  and  C_2
REMARK    2  A    between atoms: C_2  and  C_3
REMARK    3  A    between atoms: C_3  and  C_4
REMARK    4  A    between atoms: C_4  and  C_5
REMARK    5  A    between atoms: C_5  and  C_6
REMARK    6  A    between atoms: C_6  and  C_7
REMARK    7  A    between atoms: C_7  and  C_8
REMARK    8  A    between atoms: C_8  and  C_9
REMARK    9  A    between atoms: C_9  and  C_10
REMARK   10  A    between atoms: C_10  and  O_11
REMARK   11  A    between atoms: C_14  and  O_15
REMARK   12  A    between atoms: C_16  and  O_17
REMARK   13  A    between atoms: C_18  and  O_19
REMARK                            x       y       z     vdW  Elec       q    Type
REMARK                         _______ _______ _______ _____ _____    ______ ____
ROOT
ATOM      1  C   UNL     1       5.468   4.473  17.895  0.00  0.00    +0.000 C 
ATOM      2  N   UNL     1       6.733   4.263  18.637  0.00  0.00    +0.000 NA
ATOM      3  C   UNL     1       7.208   5.393  19.459  0.00  0.00    +0.000 C 
ATOM      4  C   UNL     1       8.007   6.255  18.530  0.00  0.00    +0.000 C 
ATOM      5  C   UNL     1       7.070   6.715  17.425  0.00  0.00    +0.000 C 
ATOM      6  C   UNL     1       6.268   5.512  16.818  0.00  0.00    +0.000 C 
ATOM      7  H   UNL     1       7.469   3.685  18.179  0.00  0.00    +0.000 HD
ENDROOT
BRANCH   4   8
ATOM      8  O   UNL     1       8.589   7.370  19.207  0.00  0.00    +0.000 OA
ATOM      9  H   UNL     1       8.350   7.291  20.169  0.00  0.00    +0.000 HD
ENDBRANCH   4   8
BRANCH   5  10
ATOM     10  O   UNL     1       7.800   7.387  16.424  0.00  0.00    +0.000 OA
ATOM     11  H   UNL     1       8.240   6.692  15.867  0.00  0.00    +0.000 HD
ENDBRANCH   5  10
BRANCH   6  12
ATOM     12  O   UNL     1       5.625   6.012  15.664  0.00  0.00    +0.000 OA
ATOM     13  H   UNL     1       4.793   6.478  15.924  0.00  0.00    +0.000 HD
ENDBRANCH   6  12
BRANCH   1  14
ATOM     14  C   UNL     1       3.977   4.619  17.215  0.00  0.00    +0.000 C 
BRANCH  14  15
ATOM     15  C   UNL     1       3.057   3.354  17.197  0.00  0.00    +0.000 C 
BRANCH  15  16
ATOM     16  C   UNL     1       1.639   3.696  17.610  0.00  0.00    +0.000 C 
BRANCH  16  17
ATOM     17  C   UNL     1       1.080   2.599  18.483  0.00  0.00    +0.000 C 
BRANCH  17  18
ATOM     18  C   UNL     1       0.650   3.161  19.828  0.00  0.00    +0.000 C 
BRANCH  18  19
ATOM     19  C   UNL     1       1.575   2.603  20.898  0.00  0.00    +0.000 C 
BRANCH  19  21
ATOM     20  C   UNL     1       1.940   5.058  21.028  0.00  0.00    +0.000 C 
ATOM     21  C   UNL     1       2.240   3.719  21.690  0.00  0.00    +0.000 C 
ENDBRANCH  19  21
ENDBRANCH  18  19
ENDBRANCH  17  18
ENDBRANCH  16  17
ENDBRANCH  15  16
ENDBRANCH  14  15
ENDBRANCH   1  14
BRANCH   1  22
ATOM     22  C   UNL     1       4.713   3.723  19.192  0.00  0.00    +0.000 C 
BRANCH  22  23
ATOM     23  O   UNL     1       5.178   2.465  19.684  0.00  0.00    +0.000 OA
ATOM     24  H   UNL     1       5.832   2.641  20.379  0.00  0.00    +0.000 HD
ENDBRANCH  22  23
ENDBRANCH   1  22
TORSDOF 12
ENDMDL
MODEL 2
REMARK VINA RESULT:      -6.4      3.438      6.756
REMARK  Name = 
REMARK  13 active torsions:
REMARK  status: ('A' for Active; 'I' for Inactive)
REMARK    1  A    between atoms: C_1  and  C_2
REMARK    2  A    between atoms: C_2  and  C_3
REMARK    3  A    between atoms: C_3  and  C_4
REMARK    4  A    between atoms: C_4  and  C_5
REMARK    5  A    between atoms: C_5  and  C_6
REMARK    6  A    between atoms: C_6  and  C_7
REMARK    7  A    between atoms: C_7  and  C_8
REMARK    8  A    between atoms: C_8  and  C_9
REMARK    9  A    between atoms: C_9  and  C_10
REMARK   10  A    between atoms: C_10  and  O_11
REMARK   11  A    between atoms: C_14  and  O_15
REMARK   12  A    between atoms: C_16  and  O_17
REMARK   13  A    between atoms: C_18  and  O_19
REMARK                            x       y       z     vdW  Elec       q    Type
REMARK                         _______ _______ _______ _____ _____    ______ ____
ROOT
ATOM      1  C   UNL     1       3.614   4.608  18.319  0.00  0.00    +0.000 C 
ATOM      2  N   UNL     1       2.859   5.249  19.422  0.00  0.00    +0.000 NA
ATOM      3  C   UNL     1       2.552   4.399  20.589  0.00  0.00    +0.000 C 
ATOM      4  C   UNL     1       1.272   3.700  20.248  0.00  0.00    +0.000 C 
ATOM      5  C   UNL     1       1.529   2.873  18.999  0.00  0.00    +0.000 C 
ATOM      6  C   UNL     1       2.231   3.725  17.884  0.00  0.00    +0.000 C 
ATOM      7  H   UNL     1       2.139   5.956  19.165  0.00  0.00    +0.000 HD
ENDROOT
BRANCH   4   8
ATOM      8  O   UNL     1       0.811   2.879  21.322  0.00  0.00    +0.000 OA
ATOM      9  H   UNL     1       1.238   1.988  21.218  0.00  0.00    +0.000 HD
ENDBRANCH   4   8
BRANCH   5  10
ATOM     10  O   UNL     1       0.319   2.328  18.525  0.00  0.00    +0.000 OA
ATOM     11  H   UNL     1       0.103   2.791  17.673  0.00  0.00    +0.000 HD
ENDBRANCH   5  10
BRANCH   6  12
ATOM     12  O   UNL     1       2.201   2.937  16.712  0.00  0.00    +0.000 OA
ATOM     13  H   UNL     1       1.304   2.991  16.299  0.00  0.00    +0.000 HD
ENDBRANCH   6  12
BRANCH   1  14
ATOM     14  C   UNL     1       4.605   3.971  17.172  0.00  0.00    +0.000 C 
BRANCH  14  15
ATOM     15  C   UNL     1       5.080   4.910  16.015  0.00  0.00    +0.000 C 
BRANCH  15  16
ATOM     16  C   UNL     1       6.591   4.924  15.897  0.00  0.00    +0.000 C 
BRANCH  16  17
ATOM     17  C   UNL     1       6.997   4.694  14.462  0.00  0.00    +0.000 C 
BRANCH  17  18
ATOM     18  C   UNL     1       5.873   4.014  13.698  0.00  0.00    +0.000 C 
BRANCH  18  19
ATOM     19  C   UNL     1       6.419   3.548  12.357  0.00  0.00    +0.000 C 
BRANCH  19  21
ATOM     20  C   UNL     1       6.420   1.396  11.114  0.00  0.00    +0.000 C 
ATOM     21  C   UNL     1       5.540   2.464  11.751  0.00  0.00    +0.000 C 
ENDBRANCH  19  21
ENDBRANCH  18  19
ENDBRANCH  17  18
ENDBRANCH  16  17
ENDBRANCH  15  16
ENDBRANCH  14  15
ENDBRANCH   1  14
BRANCH   1  22
ATOM     22  C   UNL     1       4.988   5.254  19.033  0.00  0.00    +0.000 C 
BRANCH  22  23
ATOM     23  O   UNL     1       6.089   4.417  19.391  0.00  0.00    +0.000 OA
ATOM     24  H   UNL     1       6.773   4.519  18.710  0.00  0.00    +0.000 HD
ENDBRANCH  22  23
ENDBRANCH   1  22
TORSDOF 12
ENDMDL
MODEL 3
REMARK VINA RESULT:      -6.3      3.551      6.667
REMARK  Name = 
REMARK  13 active torsions:
REMARK  status: ('A' for Active; 'I' for Inactive)
REMARK    1  A    between atoms: C_1  and  C_2
REMARK    2  A    between atoms: C_2  and  C_3
REMARK    3  A    between atoms: C_3  and  C_4
REMARK    4  A    between atoms: C_4  and  C_5
REMARK    5  A    between atoms: C_5  and  C_6
REMARK    6  A    between atoms: C_6  and  C_7
REMARK    7  A    between atoms: C_7  and  C_8
REMARK    8  A    between atoms: C_8  and  C_9
REMARK    9  A    between atoms: C_9  and  C_10
REMARK   10  A    between atoms: C_10  and  O_11
REMARK   11  A    between atoms: C_14  and  O_15
REMARK   12  A    between atoms: C_16  and  O_17
REMARK   13  A    between atoms: C_18  and  O_19
REMARK                            x       y       z     vdW  Elec       q    Type
REMARK                         _______ _______ _______ _____ _____    ______ ____
ROOT
ATOM      1  C   UNL     1       3.648   4.617  18.389  0.00  0.00    +0.000 C 
ATOM      2  N   UNL     1       2.871   5.249  19.481  0.00  0.00    +0.000 NA
ATOM      3  C   UNL     1       2.550   4.393  20.640  0.00  0.00    +0.000 C 
ATOM      4  C   UNL     1       1.282   3.685  20.275  0.00  0.00    +0.000 C 
ATOM      5  C   UNL     1       1.566   2.863  19.029  0.00  0.00    +0.000 C 
ATOM      6  C   UNL     1       2.280   3.724  17.928  0.00  0.00    +0.000 C 
ATOM      7  H   UNL     1       2.149   5.951  19.214  0.00  0.00    +0.000 HD
ENDROOT
BRANCH   4   8
ATOM      8  O   UNL     1       0.810   2.857  21.339  0.00  0.00    +0.000 OA
ATOM      9  H   UNL     1       1.324   2.007  21.305  0.00  0.00    +0.000 HD
ENDBRANCH   4   8
BRANCH   5  10
ATOM     10  O   UNL     1       0.369   2.310  18.533  0.00  0.00    +0.000 OA
ATOM     11  H   UNL     1      -0.353   2.553  19.171  0.00  0.00    +0.000 HD
ENDBRANCH   5  10
BRANCH   6  12
ATOM     12  O   UNL     1       2.276   2.939  16.754  0.00  0.00    +0.000 OA
ATOM     13  H   UNL     1       1.660   3.337  16.091  0.00  0.00    +0.000 HD
ENDBRANCH   6  12
BRANCH   1  14
ATOM     14  C   UNL     1       4.664   3.990  17.257  0.00  0.00    +0.000 C 
BRANCH  14  15
ATOM     15  C   UNL     1       5.244   4.965  16.179  0.00  0.00    +0.000 C 
BRANCH  15  16
ATOM     16  C   UNL     1       5.068   4.410  14.780  0.00  0.00    +0.000 C 
BRANCH  16  17
ATOM     17  C   UNL     1       6.402   3.963  14.233  0.00  0.00    +0.000 C 
BRANCH  17  18
ATOM     18  C   UNL     1       6.263   3.544  12.779  0.00  0.00    +0.000 C 
BRANCH  18  19
ATOM     19  C   UNL     1       4.865   3.910  12.307  0.00  0.00    +0.000 C 
BRANCH  19  21
ATOM     20  C   UNL     1       3.339   3.617  10.367  0.00  0.00    +0.000 C 
ATOM     21  C   UNL     1       4.362   2.927  11.260  0.00  0.00    +0.000 C 
ENDBRANCH  19  21
ENDBRANCH  18  19
ENDBRANCH  17  18
ENDBRANCH  16  17
ENDBRANCH  15  16
ENDBRANCH  14  15
ENDBRANCH   1  14
BRANCH   1  22
ATOM     22  C   UNL     1       5.005   5.271  19.127  0.00  0.00    +0.000 C 
BRANCH  22  23
ATOM     23  O   UNL     1       6.129   4.451  19.453  0.00  0.00    +0.000 OA
ATOM     24  H   UNL     1       5.793   3.602  19.781  0.00  0.00    +0.000 HD
ENDBRANCH  22  23
ENDBRANCH   1  22
TORSDOF 12
ENDMDL
MODEL 4
REMARK VINA RESULT:      -6.3      2.037      3.581
REMARK  Name = 
REMARK  13 active torsions:
REMARK  status: ('A' for Active; 'I' for Inactive)
REMARK    1  A    between atoms: C_1  and  C_2
REMARK    2  A    between atoms: C_2  and  C_3
REMARK    3  A    between atoms: C_3  and  C_4
REMARK    4  A    between atoms: C_4  and  C_5
REMARK    5  A    between atoms: C_5  and  C_6
REMARK    6  A    between atoms: C_6  and  C_7
REMARK    7  A    between atoms: C_7  and  C_8
REMARK    8  A    between atoms: C_8  and  C_9
REMARK    9  A    between atoms: C_9  and  C_10
REMARK   10  A    between atoms: C_10  and  O_11
REMARK   11  A    between atoms: C_14  and  O_15
REMARK   12  A    between atoms: C_16  and  O_17
REMARK   13  A    between atoms: C_18  and  O_19
REMARK                            x       y       z     vdW  Elec       q    Type
REMARK                         _______ _______ _______ _____ _____    ______ ____
ROOT
ATOM      1  C   UNL     1       4.735   6.117  18.190  0.00  0.00    +0.000 C 
ATOM      2  N   UNL     1       5.148   6.782  16.931  0.00  0.00    +0.000 NA
ATOM      3  C   UNL     1       5.258   5.921  15.738  0.00  0.00    +0.000 C 
ATOM      4  C   UNL     1       6.645   5.355  15.781  0.00  0.00    +0.000 C 
ATOM      5  C   UNL     1       6.765   4.555  17.068  0.00  0.00    +0.000 C 
ATOM      6  C   UNL     1       6.260   5.380  18.303  0.00  0.00    +0.000 C 
ATOM      7  H   UNL     1       5.835   7.562  17.003  0.00  0.00    +0.000 HD
ENDROOT
BRANCH   4   8
ATOM      8  O   UNL     1       6.922   4.540  14.642  0.00  0.00    +0.000 OA
ATOM      9  H   UNL     1       6.574   3.629  14.836  0.00  0.00    +0.000 HD
ENDBRANCH   4   8
BRANCH   5  10
ATOM     10  O   UNL     1       8.099   4.141  17.254  0.00  0.00    +0.000 OA
ATOM     11  H   UNL     1       8.197   3.887  18.209  0.00  0.00    +0.000 HD
ENDBRANCH   5  10
BRANCH   6  12
ATOM     12  O   UNL     1       6.637   4.643  19.447  0.00  0.00    +0.000 OA
ATOM     13  H   UNL     1       6.624   3.676  19.239  0.00  0.00    +0.000 HD
ENDBRANCH   6  12
BRANCH   1  14
ATOM     14  C   UNL     1       4.103   5.435  19.547  0.00  0.00    +0.000 C 
BRANCH  14  15
ATOM     15  C   UNL     1       2.549   5.472  19.725  0.00  0.00    +0.000 C 
BRANCH  15  16
ATOM     16  C   UNL     1       2.129   4.863  21.048  0.00  0.00    +0.000 C 
BRANCH  16  17
ATOM     17  C   UNL     1       1.515   3.504  20.815  0.00  0.00    +0.000 C 
BRANCH  17  18
ATOM     18  C   UNL     1       0.787   3.474  19.482  0.00  0.00    +0.000 C 
BRANCH  18  19
ATOM     19  C   UNL     1       1.136   2.174  18.774  0.00  0.00    +0.000 C 
BRANCH  19  21
ATOM     20  C   UNL     1       3.516   1.553  18.413  0.00  0.00    +0.000 C 
ATOM     21  C   UNL     1       2.340   2.350  17.861  0.00  0.00    +0.000 C 
ENDBRANCH  19  21
ENDBRANCH  18  19
ENDBRANCH  17  18
ENDBRANCH  16  17
ENDBRANCH  15  16
ENDBRANCH  14  15
ENDBRANCH   1  14
BRANCH   1  22
ATOM     22  C   UNL     1       3.177   6.607  17.807  0.00  0.00    +0.000 C 
BRANCH  22  23
ATOM     23  O   UNL     1       2.871   7.989  17.612  0.00  0.00    +0.000 OA
ATOM     24  H   UNL     1       3.205   8.246  16.738  0.00  0.00    +0.000 HD
ENDBRANCH  22  23
ENDBRANCH   1  22
TORSDOF 12
ENDMDL
MODEL 5
REMARK VINA RESULT:      -6.3      2.990      6.261
REMARK  Name = 
REMARK  13 active torsions:
REMARK  status: ('A' for Active; 'I' for Inactive)
REMARK    1  A    between atoms: C_1  and  C_2
REMARK    2  A    between atoms: C_2  and  C_3
REMARK    3  A    between atoms: C_3  and  C_4
REMARK    4  A    between atoms: C_4  and  C_5
REMARK    5  A    between atoms: C_5  and  C_6
REMARK    6  A    between atoms: C_6  and  C_7
REMARK    7  A    between atoms: C_7  and  C_8
REMARK    8  A    between atoms: C_8  and  C_9
REMARK    9  A    between atoms: C_9  and  C_10
REMARK   10  A    between atoms: C_10  and  O_11
REMARK   11  A    between atoms: C_14  and  O_15
REMARK   12  A    between atoms: C_16  and  O_17
REMARK   13  A    between atoms: C_18  and  O_19
REMARK                            x       y       z     vdW  Elec       q    Type
REMARK                         _______ _______ _______ _____ _____    ______ ____
ROOT
ATOM      1  C   UNL     1       3.602   5.050  18.403  0.00  0.00    +0.000 C 
ATOM      2  N   UNL     1       2.377   4.300  18.772  0.00  0.00    +0.000 NA
ATOM      3  C   UNL     1       2.167   4.054  20.212  0.00  0.00    +0.000 C 
ATOM      4  C   UNL     1       2.915   2.792  20.515  0.00  0.00    +0.000 C 
ATOM      5  C   UNL     1       4.378   3.048  20.195  0.00  0.00    +0.000 C 
ATOM      6  C   UNL     1       4.548   3.690  18.774  0.00  0.00    +0.000 C 
ATOM      7  H   UNL     1       2.061   3.548  18.125  0.00  0.00    +0.000 HD
ENDROOT
BRANCH   4   8
ATOM      8  O   UNL     1       2.750   2.389  21.875  0.00  0.00    +0.000 OA
ATOM      9  H   UNL     1       1.844   2.680  22.163  0.00  0.00    +0.000 HD
ENDBRANCH   4   8
BRANCH   5  10
ATOM     10  O   UNL     1       5.110   1.848  20.292  0.00  0.00    +0.000 OA
ATOM     11  H   UNL     1       4.944   1.476  21.198  0.00  0.00    +0.000 HD
ENDBRANCH   5  10
BRANCH   6  12
ATOM     12  O   UNL     1       5.932   3.660  18.493  0.00  0.00    +0.000 OA
ATOM     13  H   UNL     1       6.443   3.843  19.320  0.00  0.00    +0.000 HD
ENDBRANCH   6  12
BRANCH   1  14
ATOM     14  C   UNL     1       4.853   6.035  17.990  0.00  0.00    +0.000 C 
BRANCH  14  15
ATOM     15  C   UNL     1       4.924   6.541  16.512  0.00  0.00    +0.000 C 
BRANCH  15  16
ATOM     16  C   UNL     1       5.183   5.400  15.548  0.00  0.00    +0.000 C 
BRANCH  16  17
ATOM     17  C   UNL     1       6.668   5.236  15.333  0.00  0.00    +0.000 C 
BRANCH  17  18
ATOM     18  C   UNL     1       6.942   4.662  13.953  0.00  0.00    +0.000 C 
BRANCH  18  19
ATOM     19  C   UNL     1       5.800   3.726  13.589  0.00  0.00    +0.000 C 
BRANCH  19  21
ATOM     20  C   UNL     1       4.496   3.244  11.528  0.00  0.00    +0.000 C 
ATOM     21  C   UNL     1       5.893   3.283  12.136  0.00  0.00    +0.000 C 
ENDBRANCH  19  21
ENDBRANCH  18  19
ENDBRANCH  17  18
ENDBRANCH  16  17
ENDBRANCH  15  16
ENDBRANCH  14  15
ENDBRANCH   1  14
BRANCH   1  22
ATOM     22  C   UNL     1       2.629   6.416  18.399  0.00  0.00    +0.000 C 
BRANCH  22  23
ATOM     23  O   UNL     1       2.460   7.199  19.582  0.00  0.00    +0.000 OA
ATOM     24  H   UNL     1       3.087   7.938  19.542  0.00  0.00    +0.000 HD
ENDBRANCH  22  23
ENDBRANCH   1  22
TORSDOF 12
ENDMDL
MODEL 6
REMARK VINA RESULT:      -6.2      0.880      1.630
REMARK  Name = 
REMARK  13 active torsions:
REMARK  status: ('A' for Active; 'I' for Inactive)
REMARK    1  A    between atoms: C_1  and  C_2
REMARK    2  A    between atoms: C_2  and  C_3
REMARK    3  A    between atoms: C_3  and  C_4
REMARK    4  A    between atoms: C_4  and  C_5
REMARK    5  A    between atoms: C_5  and  C_6
REMARK    6  A    between atoms: C_6  and  C_7
REMARK    7  A    between atoms: C_7  and  C_8
REMARK    8  A    between atoms: C_8  and  C_9
REMARK    9  A    between atoms: C_9  and  C_10
REMARK   10  A    between atoms: C_10  and  O_11
REMARK   11  A    between atoms: C_14  and  O_15
REMARK   12  A    between atoms: C_16  and  O_17
REMARK   13  A    between atoms: C_18  and  O_19
REMARK                            x       y       z     vdW  Elec       q    Type
REMARK                         _______ _______ _______ _____ _____    ______ ____
ROOT
ATOM      1  C   UNL     1       5.381   4.324  17.704  0.00  0.00    +0.000 C 
ATOM      2  N   UNL     1       6.601   4.068  18.506  0.00  0.00    +0.000 NA
ATOM      3  C   UNL     1       7.032   5.152  19.411  0.00  0.00    +0.000 C 
ATOM      4  C   UNL     1       7.887   6.053  18.574  0.00  0.00    +0.000 C 
ATOM      5  C   UNL     1       7.018   6.576  17.442  0.00  0.00    +0.000 C 
ATOM      6  C   UNL     1       6.247   5.410  16.729  0.00  0.00    +0.000 C 
ATOM      7  H   UNL     1       7.359   3.509  18.063  0.00  0.00    +0.000 HD
ENDROOT
BRANCH   4   8
ATOM      8  O   UNL     1       8.434   7.128  19.339  0.00  0.00    +0.000 OA
ATOM      9  H   UNL     1       7.783   7.342  20.059  0.00  0.00    +0.000 HD
ENDBRANCH   4   8
BRANCH   5  10
ATOM     10  O   UNL     1       7.808   7.291  16.520  0.00  0.00    +0.000 OA
ATOM     11  H   UNL     1       8.308   6.623  15.982  0.00  0.00    +0.000 HD
ENDBRANCH   5  10
BRANCH   6  12
ATOM     12  O   UNL     1       5.674   5.973  15.567  0.00  0.00    +0.000 OA
ATOM     13  H   UNL     1       6.287   5.848  14.801  0.00  0.00    +0.000 HD
ENDBRANCH   6  12
BRANCH   1  14
ATOM     14  C   UNL     1       3.933   4.516  16.948  0.00  0.00    +0.000 C 
BRANCH  14  15
ATOM     15  C   UNL     1       2.720   5.003  17.807  0.00  0.00    +0.000 C 
BRANCH  15  16
ATOM     16  C   UNL     1       2.928   6.420  18.305  0.00  0.00    +0.000 C 
BRANCH  16  17
ATOM     17  C   UNL     1       2.500   6.526  19.748  0.00  0.00    +0.000 C 
BRANCH  17  18
ATOM     18  C   UNL     1       1.585   5.369  20.114  0.00  0.00    +0.000 C 
BRANCH  18  19
ATOM     19  C   UNL     1       2.183   4.645  21.309  0.00  0.00    +0.000 C 
BRANCH  19  21
ATOM     20  C   UNL     1       0.930   2.870  20.101  0.00  0.00    +0.000 C 
ATOM     21  C   UNL     1       1.733   3.192  21.355  0.00  0.00    +0.000 C 
ENDBRANCH  19  21
ENDBRANCH  18  19
ENDBRANCH  17  18
ENDBRANCH  16  17
ENDBRANCH  15  16
ENDBRANCH  14  15
ENDBRANCH   1  14
BRANCH   1  22
ATOM     22  C   UNL     1       4.549   3.516  18.916  0.00  0.00    +0.000 C 
BRANCH  22  23
ATOM     23  O   UNL     1       5.033   2.276  19.436  0.00  0.00    +0.000 OA
ATOM     24  H   UNL     1       5.966   2.397  19.671  0.00  0.00    +0.000 HD
ENDBRANCH  22  23
ENDBRANCH   1  22
TORSDOF 12
ENDMDL
MODEL 7
REMARK VINA RESULT:      -6.0      0.598      1.046
REMARK  Name = 
REMARK  13 active torsions:
REMARK  status: ('A' for Active; 'I' for Inactive)
REMARK    1  A    between atoms: C_1  and  C_2
REMARK    2  A    between atoms: C_2  and  C_3
REMARK    3  A    between atoms: C_3  and  C_4
REMARK    4  A    between atoms: C_4  and  C_5
REMARK    5  A    between atoms: C_5  and  C_6
REMARK    6  A    between atoms: C_6  and  C_7
REMARK    7  A    between atoms: C_7  and  C_8
REMARK    8  A    between atoms: C_8  and  C_9
REMARK    9  A    between atoms: C_9  and  C_10
REMARK   10  A    between atoms: C_10  and  O_11
REMARK   11  A    between atoms: C_14  and  O_15
REMARK   12  A    between atoms: C_16  and  O_17
REMARK   13  A    between atoms: C_18  and  O_19
REMARK                            x       y       z     vdW  Elec       q    Type
REMARK                         _______ _______ _______ _____ _____    ______ ____
ROOT
ATOM      1  C   UNL     1       5.567   4.413  17.767  0.00  0.00    +0.000 C 
ATOM      2  N   UNL     1       6.791   4.241  18.584  0.00  0.00    +0.000 NA
ATOM      3  C   UNL     1       7.186   5.387  19.427  0.00  0.00    +0.000 C 
ATOM      4  C   UNL     1       8.016   6.265  18.542  0.00  0.00    +0.000 C 
ATOM      5  C   UNL     1       7.135   6.696  17.380  0.00  0.00    +0.000 C 
ATOM      6  C   UNL     1       6.403   5.469  16.733  0.00  0.00    +0.000 C 
ATOM      7  H   UNL     1       7.568   3.681  18.174  0.00  0.00    +0.000 HD
ENDROOT
BRANCH   4   8
ATOM      8  O   UNL     1       8.527   7.398  19.246  0.00  0.00    +0.000 OA
ATOM      9  H   UNL     1       8.203   7.336  20.183  0.00  0.00    +0.000 HD
ENDBRANCH   4   8
BRANCH   5  10
ATOM     10  O   UNL     1       7.906   7.382  16.420  0.00  0.00    +0.000 OA
ATOM     11  H   UNL     1       8.854   7.128  16.570  0.00  0.00    +0.000 HD
ENDBRANCH   5  10
BRANCH   6  12
ATOM     12  O   UNL     1       5.817   5.947  15.540  0.00  0.00    +0.000 OA
ATOM     13  H   UNL     1       5.724   6.930  15.587  0.00  0.00    +0.000 HD
ENDBRANCH   6  12
BRANCH   1  14
ATOM     14  C   UNL     1       4.116   4.517  16.998  0.00  0.00    +0.000 C 
BRANCH  14  15
ATOM     15  C   UNL     1       3.033   3.441  17.338  0.00  0.00    +0.000 C 
BRANCH  15  16
ATOM     16  C   UNL     1       1.650   4.056  17.421  0.00  0.00    +0.000 C 
BRANCH  16  17
ATOM     17  C   UNL     1       1.117   3.935  18.828  0.00  0.00    +0.000 C 
BRANCH  17  18
ATOM     18  C   UNL     1       1.542   5.134  19.658  0.00  0.00    +0.000 C 
BRANCH  18  19
ATOM     19  C   UNL     1       1.929   4.644  21.045  0.00  0.00    +0.000 C 
BRANCH  19  21
ATOM     20  C   UNL     1       2.532   2.332  21.730  0.00  0.00    +0.000 C 
ATOM     21  C   UNL     1       1.389   3.246  21.306  0.00  0.00    +0.000 C 
ENDBRANCH  19  21
ENDBRANCH  18  19
ENDBRANCH  17  18
ENDBRANCH  16  17
ENDBRANCH  15  16
ENDBRANCH  14  15
ENDBRANCH   1  14
BRANCH   1  22
ATOM     22  C   UNL     1       4.756   3.650  19.021  0.00  0.00    +0.000 C 
BRANCH  22  23
ATOM     23  O   UNL     1       5.294   2.477  19.635  0.00  0.00    +0.000 OA
ATOM     24  H   UNL     1       4.551   1.932  19.936  0.00  0.00    +0.000 HD
ENDBRANCH  22  23
ENDBRANCH   1  22
TORSDOF 12
ENDMDL
MODEL 8
REMARK VINA RESULT:      -6.0      3.106      6.113
REMARK  Name = 
REMARK  13 active torsions:
REMARK  status: ('A' for Active; 'I' for Inactive)
REMARK    1  A    between atoms: C_1  and  C_2
REMARK    2  A    between atoms: C_2  and  C_3
REMARK    3  A    between atoms: C_3  and  C_4
REMARK    4  A    between atoms: C_4  and  C_5
REMARK    5  A    between atoms: C_5  and  C_6
REMARK    6  A    between atoms: C_6  and  C_7
REMARK    7  A    between atoms: C_7  and  C_8
REMARK    8  A    between atoms: C_8  and  C_9
REMARK    9  A    between atoms: C_9  and  C_10
REMARK   10  A    between atoms: C_10  and  O_11
REMARK   11  A    between atoms: C_14  and  O_15
REMARK   12  A    between atoms: C_16  and  O_17
REMARK   13  A    between atoms: C_18  and  O_19
REMARK                            x       y       z     vdW  Elec       q    Type
REMARK                         _______ _______ _______ _____ _____    ______ ____
ROOT
ATOM      1  C   UNL     1       4.705   5.234  18.703  0.00  0.00    +0.000 C 
ATOM      2  N   UNL     1       4.597   4.079  19.625  0.00  0.00    +0.000 NA
ATOM      3  C   UNL     1       4.382   2.758  19.002  0.00  0.00    +0.000 C 
ATOM      4  C   UNL     1       2.899   2.636  18.828  0.00  0.00    +0.000 C 
ATOM      5  C   UNL     1       2.458   3.768  17.916  0.00  0.00    +0.000 C 
ATOM      6  C   UNL     1       3.038   5.145  18.392  0.00  0.00    +0.000 C 
ATOM      7  H   UNL     1       4.128   4.238  20.542  0.00  0.00    +0.000 HD
ENDROOT
BRANCH   4   8
ATOM      8  O   UNL     1       2.531   1.367  18.286  0.00  0.00    +0.000 OA
ATOM      9  H   UNL     1       2.963   1.287  17.395  0.00  0.00    +0.000 HD
ENDBRANCH   4   8
BRANCH   5  10
ATOM     10  O   UNL     1       1.050   3.814  17.852  0.00  0.00    +0.000 OA
ATOM     11  H   UNL     1       0.760   3.076  17.254  0.00  0.00    +0.000 HD
ENDBRANCH   5  10
BRANCH   6  12
ATOM     12  O   UNL     1       2.379   6.134  17.629  0.00  0.00    +0.000 OA
ATOM     13  H   UNL     1       2.395   6.995  18.115  0.00  0.00    +0.000 HD
ENDBRANCH   6  12
BRANCH   1  14
ATOM     14  C   UNL     1       5.011   6.495  17.692  0.00  0.00    +0.000 C 
BRANCH  14  15
ATOM     15  C   UNL     1       5.900   6.222  16.434  0.00  0.00    +0.000 C 
BRANCH  15  16
ATOM     16  C   UNL     1       5.213   5.280  15.465  0.00  0.00    +0.000 C 
BRANCH  16  17
ATOM     17  C   UNL     1       6.042   4.031  15.289  0.00  0.00    +0.000 C 
BRANCH  17  18
ATOM     18  C   UNL     1       6.394   3.833  13.824  0.00  0.00    +0.000 C 
BRANCH  18  19
ATOM     19  C   UNL     1       5.117   3.938  13.005  0.00  0.00    +0.000 C 
BRANCH  19  21
ATOM     20  C   UNL     1       3.859   3.142  11.015  0.00  0.00    +0.000 C 
ATOM     21  C   UNL     1       5.181   3.057  11.767  0.00  0.00    +0.000 C 
ENDBRANCH  19  21
ENDBRANCH  18  19
ENDBRANCH  17  18
ENDBRANCH  16  17
ENDBRANCH  15  16
ENDBRANCH  14  15
ENDBRANCH   1  14
BRANCH   1  22
ATOM     22  C   UNL     1       6.365   5.020  18.807  0.00  0.00    +0.000 C 
BRANCH  22  23
ATOM     23  O   UNL     1       7.078   5.384  19.991  0.00  0.00    +0.000 OA
ATOM     24  H   UNL     1       7.106   4.608  20.572  0.00  0.00    +0.000 HD
ENDBRANCH  22  23
ENDBRANCH   1  22
TORSDOF 12
ENDMDL
MODEL 9
REMARK VINA RESULT:      -6.0      3.557      6.811
REMARK  Name = 
REMARK  13 active torsions:
REMARK  status: ('A' for Active; 'I' for Inactive)
REMARK    1  A    between atoms: C_1  and  C_2
REMARK    2  A    between atoms: C_2  and  C_3
REMARK    3  A    between atoms: C_3  and  C_4
REMARK    4  A    between atoms: C_4  and  C_5
REMARK    5  A    between atoms: C_5  and  C_6
REMARK    6  A    between atoms: C_6  and  C_7
REMARK    7  A    between atoms: C_7  and  C_8
REMARK    8  A    between atoms: C_8  and  C_9
REMARK    9  A    between atoms: C_9  and  C_10
REMARK   10  A    between atoms: C_10  and  O_11
REMARK   11  A    between atoms: C_14  and  O_15
REMARK   12  A    between atoms: C_16  and  O_17
REMARK   13  A    between atoms: C_18  and  O_19
REMARK                            x       y       z     vdW  Elec       q    Type
REMARK                         _______ _______ _______ _____ _____    ______ ____
ROOT
ATOM      1  C   UNL     1       3.480   4.744  17.859  0.00  0.00    +0.000 C 
ATOM      2  N   UNL     1       2.122   5.110  18.330  0.00  0.00    +0.000 NA
ATOM      3  C   UNL     1       1.800   4.774  19.731  0.00  0.00    +0.000 C 
ATOM      4  C   UNL     1       1.305   3.361  19.699  0.00  0.00    +0.000 C 
ATOM      5  C   UNL     1       2.435   2.500  19.158  0.00  0.00    +0.000 C 
ATOM      6  C   UNL     1       3.035   3.106  17.842  0.00  0.00    +0.000 C 
ATOM      7  H   UNL     1       1.340   5.034  17.646  0.00  0.00    +0.000 HD
ENDROOT
BRANCH   4   8
ATOM      8  O   UNL     1       0.891   2.913  20.990  0.00  0.00    +0.000 OA
ATOM      9  H   UNL     1       0.185   3.535  21.308  0.00  0.00    +0.000 HD
ENDBRANCH   4   8
BRANCH   5  10
ATOM     10  O   UNL     1       1.975   1.186  18.939  0.00  0.00    +0.000 OA
ATOM     11  H   UNL     1       1.136   1.078  19.459  0.00  0.00    +0.000 HD
ENDBRANCH   5  10
BRANCH   6  12
ATOM     12  O   UNL     1       3.893   2.117  17.311  0.00  0.00    +0.000 OA
ATOM     13  H   UNL     1       3.638   1.231  17.667  0.00  0.00    +0.000 HD
ENDBRANCH   6  12
BRANCH   1  14
ATOM     14  C   UNL     1       5.035   4.516  17.376  0.00  0.00    +0.000 C 
BRANCH  14  15
ATOM     15  C   UNL     1       5.456   5.085  15.981  0.00  0.00    +0.000 C 
BRANCH  15  16
ATOM     16  C   UNL     1       6.001   3.994  15.080  0.00  0.00    +0.000 C 
BRANCH  16  17
ATOM     17  C   UNL     1       5.320   4.051  13.734  0.00  0.00    +0.000 C 
BRANCH  17  18
ATOM     18  C   UNL     1       6.217   3.452  12.664  0.00  0.00    +0.000 C 
BRANCH  18  19
ATOM     19  C   UNL     1       5.336   2.770  11.628  0.00  0.00    +0.000 C 
BRANCH  19  21
ATOM     20  C   UNL     1       3.544   3.706  10.182  0.00  0.00    +0.000 C 
ATOM     21  C   UNL     1       3.937   3.367  11.615  0.00  0.00    +0.000 C 
ENDBRANCH  19  21
ENDBRANCH  18  19
ENDBRANCH  17  18
ENDBRANCH  16  17
ENDBRANCH  15  16
ENDBRANCH  14  15
ENDBRANCH   1  14
BRANCH   1  22
ATOM     22  C   UNL     1       3.914   6.320  18.237  0.00  0.00    +0.000 C 
BRANCH  22  23
ATOM     23  O   UNL     1       3.400   7.422  17.486  0.00  0.00    +0.000 OA
ATOM     24  H   UNL     1       4.143   7.832  17.016  0.00  0.00    +0.000 HD
ENDBRANCH  22  23
ENDBRANCH   1  22
TORSDOF 12
ENDMDL
