MODEL 1
REMARK VINA RESULT:      -5.9      0.000      0.000
REMARK  Name = 
REMARK  13 active torsions:
REMARK  status: ('A' for Active; 'I' for Inactive)
REMARK    1  A    between atoms: C_1  and  C_2
REMARK    2  A    between atoms: C_2  and  C_3
REMARK    3  A    between atoms: C_3  and  C_4
REMARK    4  A    between atoms: C_4  and  N_5
REMARK    5  A    between atoms: C_6  and  N_7
REMARK    6  A    between atoms: C_8  and  N_9
REMARK    7  A    between atoms: N_9  and  C_10
REMARK    8  A    between atoms: C_10  and  C_11
REMARK    9  A    between atoms: C_11  and  O_12
REMARK   10  A    between atoms: O_12  and  C_13
REMARK   11  A    between atoms: C_14  and  C_16
REMARK   12  A    between atoms: N_18  and  C_19
REMARK   13  A    between atoms: C_19  and  C_20
REMARK                            x       y       z     vdW  Elec       q    Type
REMARK                         _______ _______ _______ _____ _____    ______ ____
ROOT
ATOM      1  N   UNL     1      -1.511  12.592  22.385  0.00  0.00    +0.000 N 
ATOM      2  C   UNL     1      -0.822  13.752  22.810  0.00  0.00    +0.000 C 
ATOM      3  O   UNL     1      -0.986  14.228  23.930  0.00  0.00    +0.000 OA
ENDROOT
BRANCH   2   4
ATOM      4  C   UNL     1       0.166  14.456  21.875  0.00  0.00    +0.000 A 
ATOM      5  N   UNL     1       1.409  14.090  21.949  0.00  0.00    +0.000 NA
ATOM      6  N   UNL     1       2.331  14.642  21.097  0.00  0.00    +0.000 N 
ATOM      7  C   UNL     1       2.012  15.514  20.064  0.00  0.00    +0.000 A 
ATOM      8  O   UNL     1       2.836  15.993  19.286  0.00  0.00    +0.000 OA
ATOM      9  C   UNL     1       0.598  15.912  19.958  0.00  0.00    +0.000 A 
ATOM     10  C   UNL     1       0.192  16.758  18.913  0.00  0.00    +0.000 A 
ATOM     11  C   UNL     1      -1.110  17.249  18.881  0.00  0.00    +0.000 A 
ATOM     12  C   UNL     1      -1.985  16.942  19.919  0.00  0.00    +0.000 A 
ATOM     13  C   UNL     1      -1.590  16.065  20.938  0.00  0.00    +0.000 A 
ATOM     14  C   UNL     1      -0.309  15.497  20.929  0.00  0.00    +0.000 A 
BRANCH   6  15
ATOM     15  C   UNL     1       3.720  14.245  21.306  0.00  0.00    +0.000 C 
ATOM     16  C   UNL     1       4.312  14.837  22.575  0.00  0.00    +0.000 C 
ENDBRANCH   6  15
ENDBRANCH   2   4
BRANCH   1  19
ATOM     17  N   UNL     1      -1.434  11.397  18.900  0.00  0.00    +0.000 N 
ATOM     18  C   UNL     1      -1.856  12.096  20.035  0.00  0.00    +0.000 A 
ATOM     19  C   UNL     1      -1.216  11.895  21.217  0.00  0.00    +0.000 A 
ATOM     20  C   UNL     1      -0.185  10.823  21.294  0.00  0.00    +0.000 A 
ATOM     21  O   UNL     1       0.549  10.709  22.269  0.00  0.00    +0.000 OA
ATOM     22  N   UNL     1      -0.103  10.000  20.219  0.00  0.00    +0.000 N 
ATOM     23  C   UNL     1      -0.552  10.322  18.975  0.00  0.00    +0.000 A 
ATOM     24  O   UNL     1      -0.156   9.668  18.014  0.00  0.00    +0.000 OA
ATOM     25  H   UNL     1       0.575   9.259  20.259  0.00  0.00    +0.000 HD
BRANCH  18  26
ATOM     26  N   UNL     1      -2.944  12.964  19.960  0.00  0.00    +0.000 N 
ATOM     27  H   UNL     1      -3.696  12.544  19.424  0.00  0.00    +0.000 HD
ATOM     28  H   UNL     1      -2.684  13.830  19.490  0.00  0.00    +0.000 HD
ENDBRANCH  18  26
BRANCH  17  29
ATOM     29  C   UNL     1      -1.932  11.756  17.565  0.00  0.00    +0.000 C 
BRANCH  29  30
ATOM     30  C   UNL     1      -3.053  10.842  17.049  0.00  0.00    +0.000 C 
BRANCH  30  32
ATOM     31  C   UNL     1      -5.386  11.086  17.947  0.00  0.00    +0.000 C 
ATOM     32  C   UNL     1      -4.399  11.551  16.885  0.00  0.00    +0.000 C 
ENDBRANCH  30  32
ENDBRANCH  29  30
ENDBRANCH  17  29
ENDBRANCH   1  19
BRANCH   1  33
ATOM     33  C   UNL     1      -2.586  12.138  23.281  0.00  0.00    +0.000 C 
BRANCH  33  34
ATOM     34  C   UNL     1      -3.956  12.836  23.299  0.00  0.00    +0.000 C 
BRANCH  34  35
ATOM     35  O   UNL     1      -4.843  12.350  22.287  0.00  0.00    +0.000 OA
ATOM     36  C   UNL     1      -6.161  12.868  22.501  0.00  0.00    +0.000 C 
ENDBRANCH  34  35
ENDBRANCH  33  34
ENDBRANCH   1  33
TORSDOF 10
ENDMDL
MODEL 2
REMARK VINA RESULT:      -5.7      0.771      1.022
REMARK  Name = 
REMARK  13 active torsions:
REMARK  status: ('A' for Active; 'I' for Inactive)
REMARK    1  A    between atoms: C_1  and  C_2
REMARK    2  A    between atoms: C_2  and  C_3
REMARK    3  A    between atoms: C_3  and  C_4
REMARK    4  A    between atoms: C_4  and  N_5
REMARK    5  A    between atoms: C_6  and  N_7
REMARK    6  A    between atoms: C_8  and  N_9
REMARK    7  A    between atoms: N_9  and  C_10
REMARK    8  A    between atoms: C_10  and  C_11
REMARK    9  A    between atoms: C_11  and  O_12
REMARK   10  A    between atoms: O_12  and  C_13
REMARK   11  A    between atoms: C_14  and  C_16
REMARK   12  A    between atoms: N_18  and  C_19
REMARK   13  A    between atoms: C_19  and  C_20
REMARK                            x       y       z     vdW  Elec       q    Type
REMARK                         _______ _______ _______ _____ _____    ______ ____
ROOT
ATOM      1  N   UNL     1      -1.533  12.601  22.372  0.00  0.00    +0.000 N 
ATOM      2  C   UNL     1      -0.862  13.768  22.806  0.00  0.00    +0.000 C 
ATOM      3  O   UNL     1      -1.049  14.244  23.922  0.00  0.00    +0.000 OA
ENDROOT
BRANCH   2   4
ATOM      4  C   UNL     1       0.132  14.481  21.885  0.00  0.00    +0.000 A 
ATOM      5  N   UNL     1       1.375  14.116  21.967  0.00  0.00    +0.000 NA
ATOM      6  N   UNL     1       2.304  14.676  21.128  0.00  0.00    +0.000 N 
ATOM      7  C   UNL     1       1.993  15.556  20.099  0.00  0.00    +0.000 A 
ATOM      8  O   UNL     1       2.823  16.041  19.332  0.00  0.00    +0.000 OA
ATOM      9  C   UNL     1       0.579  15.952  19.983  0.00  0.00    +0.000 A 
ATOM     10  C   UNL     1       0.181  16.805  18.941  0.00  0.00    +0.000 A 
ATOM     11  C   UNL     1      -1.122  17.294  18.901  0.00  0.00    +0.000 A 
ATOM     12  C   UNL     1      -2.005  16.978  19.929  0.00  0.00    +0.000 A 
ATOM     13  C   UNL     1      -1.618  16.095  20.944  0.00  0.00    +0.000 A 
ATOM     14  C   UNL     1      -0.336  15.529  20.943  0.00  0.00    +0.000 A 
BRANCH   6  15
ATOM     15  C   UNL     1       3.692  14.280  21.347  0.00  0.00    +0.000 C 
ATOM     16  C   UNL     1       4.298  14.928  22.580  0.00  0.00    +0.000 C 
ENDBRANCH   6  15
ENDBRANCH   2   4
BRANCH   1  19
ATOM     17  N   UNL     1      -1.364  11.424  18.884  0.00  0.00    +0.000 N 
ATOM     18  C   UNL     1      -1.810  12.124  20.009  0.00  0.00    +0.000 A 
ATOM     19  C   UNL     1      -1.213  11.905  21.210  0.00  0.00    +0.000 A 
ATOM     20  C   UNL     1      -0.204  10.814  21.314  0.00  0.00    +0.000 A 
ATOM     21  O   UNL     1       0.495  10.680  22.312  0.00  0.00    +0.000 OA
ATOM     22  N   UNL     1      -0.103   9.995  20.237  0.00  0.00    +0.000 N 
ATOM     23  C   UNL     1      -0.505  10.333  18.982  0.00  0.00    +0.000 A 
ATOM     24  O   UNL     1      -0.089   9.676  18.030  0.00  0.00    +0.000 OA
ATOM     25  H   UNL     1       0.560   9.241  20.295  0.00  0.00    +0.000 HD
BRANCH  18  26
ATOM     26  N   UNL     1      -2.879  13.013  19.904  0.00  0.00    +0.000 N 
ATOM     27  H   UNL     1      -2.810  13.735  20.613  0.00  0.00    +0.000 HD
ATOM     28  H   UNL     1      -3.765  12.530  20.048  0.00  0.00    +0.000 HD
ENDBRANCH  18  26
BRANCH  17  29
ATOM     29  C   UNL     1      -1.811  11.799  17.536  0.00  0.00    +0.000 C 
BRANCH  29  30
ATOM     30  C   UNL     1      -2.962  10.937  16.996  0.00  0.00    +0.000 C 
BRANCH  30  32
ATOM     31  C   UNL     1      -3.063   9.817  14.752  0.00  0.00    +0.000 C 
ATOM     32  C   UNL     1      -3.229  11.130  15.502  0.00  0.00    +0.000 C 
ENDBRANCH  30  32
ENDBRANCH  29  30
ENDBRANCH  17  29
ENDBRANCH   1  19
BRANCH   1  33
ATOM     33  C   UNL     1      -2.617  12.137  23.252  0.00  0.00    +0.000 C 
BRANCH  33  34
ATOM     34  C   UNL     1      -4.045  12.690  23.116  0.00  0.00    +0.000 C 
BRANCH  34  35
ATOM     35  O   UNL     1      -4.391  13.606  24.160  0.00  0.00    +0.000 OA
ATOM     36  C   UNL     1      -4.492  14.934  23.634  0.00  0.00    +0.000 C 
ENDBRANCH  34  35
ENDBRANCH  33  34
ENDBRANCH   1  33
TORSDOF 10
ENDMDL
MODEL 3
REMARK VINA RESULT:      -5.7      1.280      2.962
REMARK  Name = 
REMARK  13 active torsions:
REMARK  status: ('A' for Active; 'I' for Inactive)
REMARK    1  A    between atoms: C_1  and  C_2
REMARK    2  A    between atoms: C_2  and  C_3
REMARK    3  A    between atoms: C_3  and  C_4
REMARK    4  A    between atoms: C_4  and  N_5
REMARK    5  A    between atoms: C_6  and  N_7
REMARK    6  A    between atoms: C_8  and  N_9
REMARK    7  A    between atoms: N_9  and  C_10
REMARK    8  A    between atoms: C_10  and  C_11
REMARK    9  A    between atoms: C_11  and  O_12
REMARK   10  A    between atoms: O_12  and  C_13
REMARK   11  A    between atoms: C_14  and  C_16
REMARK   12  A    between atoms: N_18  and  C_19
REMARK   13  A    between atoms: C_19  and  C_20
REMARK                            x       y       z     vdW  Elec       q    Type
REMARK                         _______ _______ _______ _____ _____    ______ ____
ROOT
ATOM      1  N   UNL     1      -0.762  13.019  22.020  0.00  0.00    +0.000 N 
ATOM      2  C   UNL     1      -0.146  14.284  22.166  0.00  0.00    +0.000 C 
ATOM      3  O   UNL     1      -0.111  14.866  23.246  0.00  0.00    +0.000 OA
ENDROOT
BRANCH   2   4
ATOM      4  C   UNL     1       0.505  14.974  20.964  0.00  0.00    +0.000 A 
ATOM      5  N   UNL     1      -0.287  15.584  20.136  0.00  0.00    +0.000 NA
ATOM      6  N   UNL     1       0.240  16.270  19.073  0.00  0.00    +0.000 N 
ATOM      7  C   UNL     1       1.601  16.451  18.860  0.00  0.00    +0.000 A 
ATOM      8  O   UNL     1       2.075  17.085  17.918  0.00  0.00    +0.000 OA
ATOM      9  C   UNL     1       2.506  15.783  19.813  0.00  0.00    +0.000 A 
ATOM     10  C   UNL     1       3.893  15.956  19.688  0.00  0.00    +0.000 A 
ATOM     11  C   UNL     1       4.760  15.224  20.494  0.00  0.00    +0.000 A 
ATOM     12  C   UNL     1       4.244  14.282  21.380  0.00  0.00    +0.000 A 
ATOM     13  C   UNL     1       2.858  14.143  21.531  0.00  0.00    +0.000 A 
ATOM     14  C   UNL     1       1.978  14.939  20.786  0.00  0.00    +0.000 A 
BRANCH   6  15
ATOM     15  C   UNL     1      -0.721  16.851  18.139  0.00  0.00    +0.000 C 
ATOM     16  C   UNL     1      -1.347  18.131  18.666  0.00  0.00    +0.000 C 
ENDBRANCH   6  15
ENDBRANCH   2   4
BRANCH   1  19
ATOM     17  N   UNL     1      -1.237  11.542  18.678  0.00  0.00    +0.000 N 
ATOM     18  C   UNL     1      -1.476  12.335  19.805  0.00  0.00    +0.000 A 
ATOM     19  C   UNL     1      -0.654  12.226  20.882  0.00  0.00    +0.000 A 
ATOM     20  C   UNL     1       0.382  11.155  20.880  0.00  0.00    +0.000 A 
ATOM     21  O   UNL     1       1.263  11.115  21.732  0.00  0.00    +0.000 OA
ATOM     22  N   UNL     1       0.294  10.247  19.878  0.00  0.00    +0.000 N 
ATOM     23  C   UNL     1      -0.349  10.470  18.699  0.00  0.00    +0.000 A 
ATOM     24  O   UNL     1      -0.109   9.736  17.744  0.00  0.00    +0.000 OA
ATOM     25  H   UNL     1       0.974   9.506  19.869  0.00  0.00    +0.000 HD
BRANCH  18  26
ATOM     26  N   UNL     1      -2.566  13.203  19.834  0.00  0.00    +0.000 N 
ATOM     27  H   UNL     1      -2.265  14.156  19.661  0.00  0.00    +0.000 HD
ATOM     28  H   UNL     1      -3.015  13.189  20.748  0.00  0.00    +0.000 HD
ENDBRANCH  18  26
BRANCH  17  29
ATOM     29  C   UNL     1      -1.944  11.795  17.414  0.00  0.00    +0.000 C 
BRANCH  29  30
ATOM     30  C   UNL     1      -3.220  10.959  17.234  0.00  0.00    +0.000 C 
BRANCH  30  32
ATOM     31  C   UNL     1      -3.369  10.345  14.804  0.00  0.00    +0.000 C 
ATOM     32  C   UNL     1      -3.078   9.833  16.207  0.00  0.00    +0.000 C 
ENDBRANCH  30  32
ENDBRANCH  29  30
ENDBRANCH  17  29
ENDBRANCH   1  19
BRANCH   1  33
ATOM     33  C   UNL     1      -1.539  12.563  23.183  0.00  0.00    +0.000 C 
BRANCH  33  34
ATOM     34  C   UNL     1      -2.986  13.031  23.408  0.00  0.00    +0.000 C 
BRANCH  34  35
ATOM     35  O   UNL     1      -3.927  12.364  22.561  0.00  0.00    +0.000 OA
ATOM     36  C   UNL     1      -5.229  12.933  22.731  0.00  0.00    +0.000 C 
ENDBRANCH  34  35
ENDBRANCH  33  34
ENDBRANCH   1  33
TORSDOF 10
ENDMDL
MODEL 4
REMARK VINA RESULT:      -5.7      2.530      4.618
REMARK  Name = 
REMARK  13 active torsions:
REMARK  status: ('A' for Active; 'I' for Inactive)
REMARK    1  A    between atoms: C_1  and  C_2
REMARK    2  A    between atoms: C_2  and  C_3
REMARK    3  A    between atoms: C_3  and  C_4
REMARK    4  A    between atoms: C_4  and  N_5
REMARK    5  A    between atoms: C_6  and  N_7
REMARK    6  A    between atoms: C_8  and  N_9
REMARK    7  A    between atoms: N_9  and  C_10
REMARK    8  A    between atoms: C_10  and  C_11
REMARK    9  A    between atoms: C_11  and  O_12
REMARK   10  A    between atoms: O_12  and  C_13
REMARK   11  A    between atoms: C_14  and  C_16
REMARK   12  A    between atoms: N_18  and  C_19
REMARK   13  A    between atoms: C_19  and  C_20
REMARK                            x       y       z     vdW  Elec       q    Type
REMARK                         _______ _______ _______ _____ _____    ______ ____
ROOT
ATOM      1  N   UNL     1      -2.468  14.834  23.101  0.00  0.00    +0.000 N 
ATOM      2  C   UNL     1      -1.131  14.382  23.021  0.00  0.00    +0.000 C 
ATOM      3  O   UNL     1      -0.210  14.982  23.568  0.00  0.00    +0.000 OA
ENDROOT
BRANCH   2   4
ATOM      4  C   UNL     1      -0.787  13.110  22.240  0.00  0.00    +0.000 A 
ATOM      5  N   UNL     1      -0.722  12.004  22.917  0.00  0.00    +0.000 NA
ATOM      6  N   UNL     1      -0.476  10.823  22.266  0.00  0.00    +0.000 N 
ATOM      7  C   UNL     1      -0.386  10.699  20.885  0.00  0.00    +0.000 A 
ATOM      8  O   UNL     1      -0.186   9.636  20.299  0.00  0.00    +0.000 OA
ATOM      9  C   UNL     1      -0.485  11.948  20.109  0.00  0.00    +0.000 A 
ATOM     10  C   UNL     1      -0.446  11.898  18.707  0.00  0.00    +0.000 A 
ATOM     11  C   UNL     1      -0.402  13.077  17.969  0.00  0.00    +0.000 A 
ATOM     12  C   UNL     1      -0.340  14.299  18.633  0.00  0.00    +0.000 A 
ATOM     13  C   UNL     1      -0.422  14.347  20.030  0.00  0.00    +0.000 A 
ATOM     14  C   UNL     1      -0.554  13.168  20.775  0.00  0.00    +0.000 A 
BRANCH   6  15
ATOM     15  C   UNL     1      -0.328   9.641  23.109  0.00  0.00    +0.000 C 
ATOM     16  C   UNL     1       1.119   9.195  23.244  0.00  0.00    +0.000 C 
ENDBRANCH   6  15
ENDBRANCH   2   4
BRANCH   1  19
ATOM     17  N   UNL     1      -5.164  13.333  21.087  0.00  0.00    +0.000 N 
ATOM     18  C   UNL     1      -4.104  14.177  21.435  0.00  0.00    +0.000 A 
ATOM     19  C   UNL     1      -3.568  14.093  22.681  0.00  0.00    +0.000 A 
ATOM     20  C   UNL     1      -4.230  13.211  23.682  0.00  0.00    +0.000 A 
ATOM     21  O   UNL     1      -3.702  12.954  24.758  0.00  0.00    +0.000 OA
ATOM     22  N   UNL     1      -5.436  12.705  23.322  0.00  0.00    +0.000 N 
ATOM     23  C   UNL     1      -5.860  12.586  22.034  0.00  0.00    +0.000 A 
ATOM     24  O   UNL     1      -6.802  11.838  21.787  0.00  0.00    +0.000 OA
ATOM     25  H   UNL     1      -5.907  12.121  23.991  0.00  0.00    +0.000 HD
BRANCH  18  26
ATOM     26  N   UNL     1      -3.626  15.116  20.522  0.00  0.00    +0.000 N 
ATOM     27  H   UNL     1      -4.264  15.202  19.737  0.00  0.00    +0.000 HD
ATOM     28  H   UNL     1      -2.723  14.829  20.148  0.00  0.00    +0.000 HD
ENDBRANCH  18  26
BRANCH  17  29
ATOM     29  C   UNL     1      -5.612  13.220  19.692  0.00  0.00    +0.000 C 
BRANCH  29  30
ATOM     30  C   UNL     1      -4.854  12.161  18.877  0.00  0.00    +0.000 C 
BRANCH  30  32
ATOM     31  C   UNL     1      -4.481  11.305  16.546  0.00  0.00    +0.000 C 
ATOM     32  C   UNL     1      -5.511  11.831  17.535  0.00  0.00    +0.000 C 
ENDBRANCH  30  32
ENDBRANCH  29  30
ENDBRANCH  17  29
ENDBRANCH   1  19
BRANCH   1  33
ATOM     33  C   UNL     1      -2.642  16.174  23.685  0.00  0.00    +0.000 C 
BRANCH  33  34
ATOM     34  C   UNL     1      -3.063  16.355  25.153  0.00  0.00    +0.000 C 
BRANCH  34  35
ATOM     35  O   UNL     1      -2.177  15.707  26.071  0.00  0.00    +0.000 OA
ATOM     36  C   UNL     1      -1.144  16.612  26.477  0.00  0.00    +0.000 C 
ENDBRANCH  34  35
ENDBRANCH  33  34
ENDBRANCH   1  33
TORSDOF 10
ENDMDL
MODEL 5
REMARK VINA RESULT:      -5.6      2.252      4.555
REMARK  Name = 
REMARK  13 active torsions:
REMARK  status: ('A' for Active; 'I' for Inactive)
REMARK    1  A    between atoms: C_1  and  C_2
REMARK    2  A    between atoms: C_2  and  C_3
REMARK    3  A    between atoms: C_3  and  C_4
REMARK    4  A    between atoms: C_4  and  N_5
REMARK    5  A    between atoms: C_6  and  N_7
REMARK    6  A    between atoms: C_8  and  N_9
REMARK    7  A    between atoms: N_9  and  C_10
REMARK    8  A    between atoms: C_10  and  C_11
REMARK    9  A    between atoms: C_11  and  O_12
REMARK   10  A    between atoms: O_12  and  C_13
REMARK   11  A    between atoms: C_14  and  C_16
REMARK   12  A    between atoms: N_18  and  C_19
REMARK   13  A    between atoms: C_19  and  C_20
REMARK                            x       y       z     vdW  Elec       q    Type
REMARK                         _______ _______ _______ _____ _____    ______ ____
ROOT
ATOM      1  N   UNL     1      -1.075  12.459  21.697  0.00  0.00    +0.000 N 
ATOM      2  C   UNL     1      -0.284  13.631  21.747  0.00  0.00    +0.000 C 
ATOM      3  O   UNL     1       0.942  13.584  21.769  0.00  0.00    +0.000 OA
ENDROOT
BRANCH   2   4
ATOM      4  C   UNL     1      -0.944  15.013  21.772  0.00  0.00    +0.000 A 
ATOM      5  N   UNL     1      -1.052  15.634  20.637  0.00  0.00    +0.000 NA
ATOM      6  N   UNL     1      -1.685  16.848  20.585  0.00  0.00    +0.000 N 
ATOM      7  C   UNL     1      -2.327  17.439  21.667  0.00  0.00    +0.000 A 
ATOM      8  O   UNL     1      -2.914  18.518  21.616  0.00  0.00    +0.000 OA
ATOM      9  C   UNL     1      -2.232  16.725  22.952  0.00  0.00    +0.000 A 
ATOM     10  C   UNL     1      -2.892  17.237  24.080  0.00  0.00    +0.000 A 
ATOM     11  C   UNL     1      -2.698  16.649  25.327  0.00  0.00    +0.000 A 
ATOM     12  C   UNL     1      -1.805  15.589  25.454  0.00  0.00    +0.000 A 
ATOM     13  C   UNL     1      -1.181  15.053  24.320  0.00  0.00    +0.000 A 
ATOM     14  C   UNL     1      -1.439  15.585  23.049  0.00  0.00    +0.000 A 
BRANCH   6  15
ATOM     15  C   UNL     1      -1.682  17.522  19.290  0.00  0.00    +0.000 C 
ATOM     16  C   UNL     1      -0.623  16.974  18.348  0.00  0.00    +0.000 C 
ENDBRANCH   6  15
ENDBRANCH   2   4
BRANCH   1  19
ATOM     17  N   UNL     1      -4.393  12.498  20.095  0.00  0.00    +0.000 N 
ATOM     18  C   UNL     1      -3.004  12.592  20.233  0.00  0.00    +0.000 A 
ATOM     19  C   UNL     1      -2.447  12.454  21.464  0.00  0.00    +0.000 A 
ATOM     20  C   UNL     1      -3.348  12.359  22.647  0.00  0.00    +0.000 A 
ATOM     21  O   UNL     1      -2.921  12.058  23.755  0.00  0.00    +0.000 OA
ATOM     22  N   UNL     1      -4.660  12.612  22.414  0.00  0.00    +0.000 N 
ATOM     23  C   UNL     1      -5.251  12.517  21.192  0.00  0.00    +0.000 A 
ATOM     24  O   UNL     1      -6.476  12.447  21.129  0.00  0.00    +0.000 OA
ATOM     25  H   UNL     1      -5.282  12.570  23.203  0.00  0.00    +0.000 HD
BRANCH  18  26
ATOM     26  N   UNL     1      -2.206  12.858  19.121  0.00  0.00    +0.000 N 
ATOM     27  H   UNL     1      -1.434  13.464  19.377  0.00  0.00    +0.000 HD
ATOM     28  H   UNL     1      -2.741  13.338  18.399  0.00  0.00    +0.000 HD
ENDBRANCH  18  26
BRANCH  17  29
ATOM     29  C   UNL     1      -5.014  12.400  18.767  0.00  0.00    +0.000 C 
BRANCH  29  30
ATOM     30  C   UNL     1      -5.045  10.974  18.195  0.00  0.00    +0.000 C 
BRANCH  30  32
ATOM     31  C   UNL     1      -3.037   9.733  17.339  0.00  0.00    +0.000 C 
ATOM     32  C   UNL     1      -4.103  10.767  17.007  0.00  0.00    +0.000 C 
ENDBRANCH  30  32
ENDBRANCH  29  30
ENDBRANCH  17  29
ENDBRANCH   1  19
BRANCH   1  33
ATOM     33  C   UNL     1      -0.342  11.200  21.899  0.00  0.00    +0.000 C 
BRANCH  33  34
ATOM     34  C   UNL     1      -0.410  10.063  20.866  0.00  0.00    +0.000 C 
BRANCH  34  35
ATOM     35  O   UNL     1      -0.243  10.522  19.520  0.00  0.00    +0.000 OA
ATOM     36  C   UNL     1       1.063  10.181  19.045  0.00  0.00    +0.000 C 
ENDBRANCH  34  35
ENDBRANCH  33  34
ENDBRANCH   1  33
TORSDOF 10
ENDMDL
MODEL 6
REMARK VINA RESULT:      -5.6      2.331      6.589
REMARK  Name = 
REMARK  13 active torsions:
REMARK  status: ('A' for Active; 'I' for Inactive)
REMARK    1  A    between atoms: C_1  and  C_2
REMARK    2  A    between atoms: C_2  and  C_3
REMARK    3  A    between atoms: C_3  and  C_4
REMARK    4  A    between atoms: C_4  and  N_5
REMARK    5  A    between atoms: C_6  and  N_7
REMARK    6  A    between atoms: C_8  and  N_9
REMARK    7  A    between atoms: N_9  and  C_10
REMARK    8  A    between atoms: C_10  and  C_11
REMARK    9  A    between atoms: C_11  and  O_12
REMARK   10  A    between atoms: O_12  and  C_13
REMARK   11  A    between atoms: C_14  and  C_16
REMARK   12  A    between atoms: N_18  and  C_19
REMARK   13  A    between atoms: C_19  and  C_20
REMARK                            x       y       z     vdW  Elec       q    Type
REMARK                         _______ _______ _______ _____ _____    ______ ____
ROOT
ATOM      1  N   UNL     1      -2.517  14.432  21.179  0.00  0.00    +0.000 N 
ATOM      2  C   UNL     1      -3.882  14.654  20.885  0.00  0.00    +0.000 C 
ATOM      3  O   UNL     1      -4.268  15.685  20.342  0.00  0.00    +0.000 OA
ENDROOT
BRANCH   2   4
ATOM      4  C   UNL     1      -4.935  13.598  21.237  0.00  0.00    +0.000 A 
ATOM      5  N   UNL     1      -5.401  13.615  22.448  0.00  0.00    +0.000 NA
ATOM      6  N   UNL     1      -6.387  12.734  22.809  0.00  0.00    +0.000 N 
ATOM      7  C   UNL     1      -7.015  11.864  21.926  0.00  0.00    +0.000 A 
ATOM      8  O   UNL     1      -7.915  11.088  22.243  0.00  0.00    +0.000 OA
ATOM      9  C   UNL     1      -6.508  11.860  20.542  0.00  0.00    +0.000 A 
ATOM     10  C   UNL     1      -7.121  11.039  19.582  0.00  0.00    +0.000 A 
ATOM     11  C   UNL     1      -6.567  10.923  18.310  0.00  0.00    +0.000 A 
ATOM     12  C   UNL     1      -5.376  11.581  18.018  0.00  0.00    +0.000 A 
ATOM     13  C   UNL     1      -4.790  12.431  18.964  0.00  0.00    +0.000 A 
ATOM     14  C   UNL     1      -5.390  12.621  20.217  0.00  0.00    +0.000 A 
BRANCH   6  15
ATOM     15  C   UNL     1      -6.792  12.756  24.211  0.00  0.00    +0.000 C 
ATOM     16  C   UNL     1      -7.829  13.828  24.504  0.00  0.00    +0.000 C 
ENDBRANCH   6  15
ENDBRANCH   2   4
BRANCH   1  19
ATOM     17  N   UNL     1      -1.007  11.072  21.276  0.00  0.00    +0.000 N 
ATOM     18  C   UNL     1      -1.584  12.234  20.752  0.00  0.00    +0.000 A 
ATOM     19  C   UNL     1      -1.999  13.211  21.600  0.00  0.00    +0.000 A 
ATOM     20  C   UNL     1      -1.965  12.943  23.065  0.00  0.00    +0.000 A 
ATOM     21  O   UNL     1      -2.155  13.835  23.884  0.00  0.00    +0.000 OA
ATOM     22  N   UNL     1      -1.698  11.664  23.429  0.00  0.00    +0.000 N 
ATOM     23  C   UNL     1      -1.066  10.760  22.631  0.00  0.00    +0.000 A 
ATOM     24  O   UNL     1      -0.586   9.751  23.143  0.00  0.00    +0.000 OA
ATOM     25  H   UNL     1      -1.688  11.459  24.413  0.00  0.00    +0.000 HD
BRANCH  18  26
ATOM     26  N   UNL     1      -1.759  12.371  19.376  0.00  0.00    +0.000 N 
ATOM     27  H   UNL     1      -1.332  11.592  18.885  0.00  0.00    +0.000 HD
ATOM     28  H   UNL     1      -1.313  13.223  19.038  0.00  0.00    +0.000 HD
ENDBRANCH  18  26
BRANCH  17  29
ATOM     29  C   UNL     1      -0.331  10.105  20.400  0.00  0.00    +0.000 C 
BRANCH  29  30
ATOM     30  C   UNL     1       1.121  10.476  20.062  0.00  0.00    +0.000 C 
BRANCH  30  32
ATOM     31  C   UNL     1       1.833   9.362  17.927  0.00  0.00    +0.000 C 
ATOM     32  C   UNL     1       1.375  10.666  18.565  0.00  0.00    +0.000 C 
ENDBRANCH  30  32
ENDBRANCH  29  30
ENDBRANCH  17  29
ENDBRANCH   1  19
BRANCH   1  33
ATOM     33  C   UNL     1      -1.639  15.598  20.998  0.00  0.00    +0.000 C 
BRANCH  33  34
ATOM     34  C   UNL     1      -1.057  15.951  19.619  0.00  0.00    +0.000 C 
BRANCH  34  35
ATOM     35  O   UNL     1      -0.229  14.915  19.081  0.00  0.00    +0.000 OA
ATOM     36  C   UNL     1       1.028  14.888  19.766  0.00  0.00    +0.000 C 
ENDBRANCH  34  35
ENDBRANCH  33  34
ENDBRANCH   1  33
TORSDOF 10
ENDMDL
MODEL 7
REMARK VINA RESULT:      -5.5      7.455     10.143
REMARK  Name = 
REMARK  13 active torsions:
REMARK  status: ('A' for Active; 'I' for Inactive)
REMARK    1  A    between atoms: C_1  and  C_2
REMARK    2  A    between atoms: C_2  and  C_3
REMARK    3  A    between atoms: C_3  and  C_4
REMARK    4  A    between atoms: C_4  and  N_5
REMARK    5  A    between atoms: C_6  and  N_7
REMARK    6  A    between atoms: C_8  and  N_9
REMARK    7  A    between atoms: N_9  and  C_10
REMARK    8  A    between atoms: C_10  and  C_11
REMARK    9  A    between atoms: C_11  and  O_12
REMARK   10  A    between atoms: O_12  and  C_13
REMARK   11  A    between atoms: C_14  and  C_16
REMARK   12  A    between atoms: N_18  and  C_19
REMARK   13  A    between atoms: C_19  and  C_20
REMARK                            x       y       z     vdW  Elec       q    Type
REMARK                         _______ _______ _______ _____ _____    ______ ____
ROOT
ATOM      1  N   UNL     1       3.745   3.947  19.587  0.00  0.00    +0.000 N 
ATOM      2  C   UNL     1       2.889   4.963  20.069  0.00  0.00    +0.000 C 
ATOM      3  O   UNL     1       2.167   4.793  21.047  0.00  0.00    +0.000 OA
ENDROOT
BRANCH   2   4
ATOM      4  C   UNL     1       2.837   6.328  19.375  0.00  0.00    +0.000 A 
ATOM      5  N   UNL     1       3.572   6.478  18.316  0.00  0.00    +0.000 NA
ATOM      6  N   UNL     1       3.524   7.656  17.617  0.00  0.00    +0.000 N 
ATOM      7  C   UNL     1       2.651   8.698  17.906  0.00  0.00    +0.000 A 
ATOM      8  O   UNL     1       2.593   9.747  17.266  0.00  0.00    +0.000 OA
ATOM      9  C   UNL     1       1.795   8.523  19.092  0.00  0.00    +0.000 A 
ATOM     10  C   UNL     1       0.856   9.514  19.422  0.00  0.00    +0.000 A 
ATOM     11  C   UNL     1       0.139   9.424  20.612  0.00  0.00    +0.000 A 
ATOM     12  C   UNL     1       0.401   8.379  21.493  0.00  0.00    +0.000 A 
ATOM     13  C   UNL     1       1.306   7.370  21.142  0.00  0.00    +0.000 A 
ATOM     14  C   UNL     1       1.967   7.408  19.907  0.00  0.00    +0.000 A 
BRANCH   6  15
ATOM     15  C   UNL     1       4.448   7.777  16.493  0.00  0.00    +0.000 C 
ATOM     16  C   UNL     1       5.903   7.672  16.918  0.00  0.00    +0.000 C 
ENDBRANCH   6  15
ENDBRANCH   2   4
BRANCH   1  19
ATOM     17  N   UNL     1       5.536   4.336  16.390  0.00  0.00    +0.000 N 
ATOM     18  C   UNL     1       4.501   4.042  17.284  0.00  0.00    +0.000 A 
ATOM     19  C   UNL     1       4.726   4.146  18.620  0.00  0.00    +0.000 A 
ATOM     20  C   UNL     1       6.112   4.424  19.089  0.00  0.00    +0.000 A 
ATOM     21  O   UNL     1       6.349   4.705  20.258  0.00  0.00    +0.000 OA
ATOM     22  N   UNL     1       7.082   4.361  18.143  0.00  0.00    +0.000 N 
ATOM     23  C   UNL     1       6.855   4.491  16.807  0.00  0.00    +0.000 A 
ATOM     24  O   UNL     1       7.803   4.741  16.067  0.00  0.00    +0.000 OA
ATOM     25  H   UNL     1       8.027   4.528  18.443  0.00  0.00    +0.000 HD
BRANCH  18  26
ATOM     26  N   UNL     1       3.264   3.613  16.807  0.00  0.00    +0.000 N 
ATOM     27  H   UNL     1       2.571   4.348  16.909  0.00  0.00    +0.000 HD
ATOM     28  H   UNL     1       2.931   2.808  17.336  0.00  0.00    +0.000 HD
ENDBRANCH  18  26
BRANCH  17  29
ATOM     29  C   UNL     1       5.275   4.470  14.950  0.00  0.00    +0.000 C 
BRANCH  29  30
ATOM     30  C   UNL     1       5.850   3.326  14.102  0.00  0.00    +0.000 C 
BRANCH  30  32
ATOM     31  C   UNL     1       5.077   3.045  11.729  0.00  0.00    +0.000 C 
ATOM     32  C   UNL     1       6.100   3.708  12.642  0.00  0.00    +0.000 C 
ENDBRANCH  30  32
ENDBRANCH  29  30
ENDBRANCH  17  29
ENDBRANCH   1  19
BRANCH   1  33
ATOM     33  C   UNL     1       3.546   2.621  20.193  0.00  0.00    +0.000 C 
BRANCH  33  34
ATOM     34  C   UNL     1       2.725   1.533  19.480  0.00  0.00    +0.000 C 
BRANCH  34  35
ATOM     35  O   UNL     1       1.807   2.066  18.522  0.00  0.00    +0.000 OA
ATOM     36  C   UNL     1       0.544   2.325  19.144  0.00  0.00    +0.000 C 
ENDBRANCH  34  35
ENDBRANCH  33  34
ENDBRANCH   1  33
TORSDOF 10
ENDMDL
MODEL 8
REMARK VINA RESULT:      -5.5      7.768     11.919
REMARK  Name = 
REMARK  13 active torsions:
REMARK  status: ('A' for Active; 'I' for Inactive)
REMARK    1  A    between atoms: C_1  and  C_2
REMARK    2  A    between atoms: C_2  and  C_3
REMARK    3  A    between atoms: C_3  and  C_4
REMARK    4  A    between atoms: C_4  and  N_5
REMARK    5  A    between atoms: C_6  and  N_7
REMARK    6  A    between atoms: C_8  and  N_9
REMARK    7  A    between atoms: N_9  and  C_10
REMARK    8  A    between atoms: C_10  and  C_11
REMARK    9  A    between atoms: C_11  and  O_12
REMARK   10  A    between atoms: O_12  and  C_13
REMARK   11  A    between atoms: C_14  and  C_16
REMARK   12  A    between atoms: N_18  and  C_19
REMARK   13  A    between atoms: C_19  and  C_20
REMARK                            x       y       z     vdW  Elec       q    Type
REMARK                         _______ _______ _______ _____ _____    ______ ____
ROOT
ATOM      1  N   UNL     1       4.734   4.492  16.379  0.00  0.00    +0.000 N 
ATOM      2  C   UNL     1       3.429   4.244  16.864  0.00  0.00    +0.000 C 
ATOM      3  O   UNL     1       2.663   3.470  16.296  0.00  0.00    +0.000 OA
ENDROOT
BRANCH   2   4
ATOM      4  C   UNL     1       2.926   4.941  18.131  0.00  0.00    +0.000 A 
ATOM      5  N   UNL     1       2.720   6.221  18.056  0.00  0.00    +0.000 NA
ATOM      6  N   UNL     1       2.215   6.892  19.139  0.00  0.00    +0.000 N 
ATOM      7  C   UNL     1       1.800   6.276  20.313  0.00  0.00    +0.000 A 
ATOM      8  O   UNL     1       1.326   6.875  21.277  0.00  0.00    +0.000 OA
ATOM      9  C   UNL     1       2.005   4.819  20.394  0.00  0.00    +0.000 A 
ATOM     10  C   UNL     1       1.571   4.120  21.531  0.00  0.00    +0.000 A 
ATOM     11  C   UNL     1       1.881   2.771  21.679  0.00  0.00    +0.000 A 
ATOM     12  C   UNL     1       2.669   2.139  20.722  0.00  0.00    +0.000 A 
ATOM     13  C   UNL     1       3.064   2.828  19.568  0.00  0.00    +0.000 A 
ATOM     14  C   UNL     1       2.682   4.162  19.371  0.00  0.00    +0.000 A 
BRANCH   6  15
ATOM     15  C   UNL     1       2.100   8.341  19.003  0.00  0.00    +0.000 C 
ATOM     16  C   UNL     1       1.617   8.763  17.625  0.00  0.00    +0.000 C 
ENDBRANCH   6  15
ENDBRANCH   2   4
BRANCH   1  19
ATOM     17  N   UNL     1       6.996   7.115  17.635  0.00  0.00    +0.000 N 
ATOM     18  C   UNL     1       6.057   6.477  16.818  0.00  0.00    +0.000 A 
ATOM     19  C   UNL     1       5.708   5.190  17.084  0.00  0.00    +0.000 A 
ATOM     20  C   UNL     1       6.452   4.457  18.146  0.00  0.00    +0.000 A 
ATOM     21  O   UNL     1       6.075   3.365  18.555  0.00  0.00    +0.000 OA
ATOM     22  N   UNL     1       7.555   5.077  18.635  0.00  0.00    +0.000 N 
ATOM     23  C   UNL     1       7.774   6.418  18.556  0.00  0.00    +0.000 A 
ATOM     24  O   UNL     1       8.618   6.925  19.291  0.00  0.00    +0.000 OA
ATOM     25  H   UNL     1       8.081   4.591  19.339  0.00  0.00    +0.000 HD
BRANCH  18  26
ATOM     26  N   UNL     1       5.512   7.144  15.723  0.00  0.00    +0.000 N 
ATOM     27  H   UNL     1       4.506   7.015  15.695  0.00  0.00    +0.000 HD
ATOM     28  H   UNL     1       5.889   6.776  14.851  0.00  0.00    +0.000 HD
ENDBRANCH  18  26
BRANCH  17  29
ATOM     29  C   UNL     1       7.223   8.563  17.535  0.00  0.00    +0.000 C 
BRANCH  29  30
ATOM     30  C   UNL     1       8.564   9.028  18.121  0.00  0.00    +0.000 C 
BRANCH  30  32
ATOM     31  C   UNL     1       9.657  10.961  19.295  0.00  0.00    +0.000 C 
ATOM     32  C   UNL     1       8.723  10.549  18.165  0.00  0.00    +0.000 C 
ENDBRANCH  30  32
ENDBRANCH  29  30
ENDBRANCH  17  29
ENDBRANCH   1  19
BRANCH   1  33
ATOM     33  C   UNL     1       5.022   3.940  15.045  0.00  0.00    +0.000 C 
BRANCH  33  34
ATOM     34  C   UNL     1       6.446   3.954  14.467  0.00  0.00    +0.000 C 
BRANCH  34  35
ATOM     35  O   UNL     1       6.486   3.629  13.074  0.00  0.00    +0.000 OA
ATOM     36  C   UNL     1       5.157   3.571  12.546  0.00  0.00    +0.000 C 
ENDBRANCH  34  35
ENDBRANCH  33  34
ENDBRANCH   1  33
TORSDOF 10
ENDMDL
MODEL 9
REMARK VINA RESULT:      -5.5      2.627      4.779
REMARK  Name = 
REMARK  13 active torsions:
REMARK  status: ('A' for Active; 'I' for Inactive)
REMARK    1  A    between atoms: C_1  and  C_2
REMARK    2  A    between atoms: C_2  and  C_3
REMARK    3  A    between atoms: C_3  and  C_4
REMARK    4  A    between atoms: C_4  and  N_5
REMARK    5  A    between atoms: C_6  and  N_7
REMARK    6  A    between atoms: C_8  and  N_9
REMARK    7  A    between atoms: N_9  and  C_10
REMARK    8  A    between atoms: C_10  and  C_11
REMARK    9  A    between atoms: C_11  and  O_12
REMARK   10  A    between atoms: O_12  and  C_13
REMARK   11  A    between atoms: C_14  and  C_16
REMARK   12  A    between atoms: N_18  and  C_19
REMARK   13  A    between atoms: C_19  and  C_20
REMARK                            x       y       z     vdW  Elec       q    Type
REMARK                         _______ _______ _______ _____ _____    ______ ____
ROOT
ATOM      1  N   UNL     1      -2.551  14.487  23.204  0.00  0.00    +0.000 N 
ATOM      2  C   UNL     1      -1.189  14.226  22.929  0.00  0.00    +0.000 C 
ATOM      3  O   UNL     1      -0.286  14.732  23.589  0.00  0.00    +0.000 OA
ENDROOT
BRANCH   2   4
ATOM      4  C   UNL     1      -0.793  13.290  21.783  0.00  0.00    +0.000 A 
ATOM      5  N   UNL     1      -0.559  13.839  20.630  0.00  0.00    +0.000 NA
ATOM      6  N   UNL     1      -0.144  13.062  19.580  0.00  0.00    +0.000 N 
ATOM      7  C   UNL     1       0.149  11.708  19.681  0.00  0.00    +0.000 A 
ATOM      8  O   UNL     1       0.542  11.014  18.744  0.00  0.00    +0.000 OA
ATOM      9  C   UNL     1      -0.089  11.085  20.995  0.00  0.00    +0.000 A 
ATOM     10  C   UNL     1       0.225   9.730  21.187  0.00  0.00    +0.000 A 
ATOM     11  C   UNL     1      -0.121   9.097  22.378  0.00  0.00    +0.000 A 
ATOM     12  C   UNL     1      -0.828   9.801  23.348  0.00  0.00    +0.000 A 
ATOM     13  C   UNL     1      -1.102  11.163  23.171  0.00  0.00    +0.000 A 
ATOM     14  C   UNL     1      -0.680  11.828  22.012  0.00  0.00    +0.000 A 
BRANCH   6  15
ATOM     15  C   UNL     1       0.009  13.740  18.296  0.00  0.00    +0.000 C 
ATOM     16  C   UNL     1       1.331  14.479  18.179  0.00  0.00    +0.000 C 
ENDBRANCH   6  15
ENDBRANCH   2   4
BRANCH   1  19
ATOM     17  N   UNL     1      -5.077  13.196  20.853  0.00  0.00    +0.000 N 
ATOM     18  C   UNL     1      -4.054  14.002  21.363  0.00  0.00    +0.000 A 
ATOM     19  C   UNL     1      -3.610  13.790  22.630  0.00  0.00    +0.000 A 
ATOM     20  C   UNL     1      -4.333  12.806  23.482  0.00  0.00    +0.000 A 
ATOM     21  O   UNL     1      -3.882  12.439  24.561  0.00  0.00    +0.000 OA
ATOM     22  N   UNL     1      -5.503  12.336  22.984  0.00  0.00    +0.000 N 
ATOM     23  C   UNL     1      -5.831  12.352  21.663  0.00  0.00    +0.000 A 
ATOM     24  O   UNL     1      -6.745  11.630  21.270  0.00  0.00    +0.000 OA
ATOM     25  H   UNL     1      -6.015  11.684  23.552  0.00  0.00    +0.000 HD
BRANCH  18  26
ATOM     26  N   UNL     1      -3.522  15.033  20.590  0.00  0.00    +0.000 N 
ATOM     27  H   UNL     1      -4.108  15.858  20.649  0.00  0.00    +0.000 HD
ATOM     28  H   UNL     1      -3.476  14.762  19.609  0.00  0.00    +0.000 HD
ENDBRANCH  18  26
BRANCH  17  29
ATOM     29  C   UNL     1      -5.420  13.228  19.424  0.00  0.00    +0.000 C 
BRANCH  29  30
ATOM     30  C   UNL     1      -4.752  12.120  18.596  0.00  0.00    +0.000 C 
BRANCH  30  32
ATOM     31  C   UNL     1      -6.555  12.850  17.007  0.00  0.00    +0.000 C 
ATOM     32  C   UNL     1      -5.311  11.990  17.177  0.00  0.00    +0.000 C 
ENDBRANCH  30  32
ENDBRANCH  29  30
ENDBRANCH  17  29
ENDBRANCH   1  19
BRANCH   1  33
ATOM     33  C   UNL     1      -2.799  15.564  24.176  0.00  0.00    +0.000 C 
BRANCH  33  34
ATOM     34  C   UNL     1      -2.832  17.038  23.740  0.00  0.00    +0.000 C 
BRANCH  34  35
ATOM     35  O   UNL     1      -3.899  17.775  24.347  0.00  0.00    +0.000 OA
ATOM     36  C   UNL     1      -4.833  16.875  24.953  0.00  0.00    +0.000 C 
ENDBRANCH  34  35
ENDBRANCH  33  34
ENDBRANCH   1  33
TORSDOF 10
ENDMDL
