MODEL 1
REMARK VINA RESULT:      -7.4      0.000      0.000
REMARK  Name = 
REMARK  5 active torsions:
REMARK  status: ('A' for Active; 'I' for Inactive)
REMARK    1  A    between atoms: C_1  and  O_2
REMARK    2  A    between atoms: O_2  and  C_3
REMARK    3  A    between atoms: C_6  and  C_7
REMARK    4  A    between atoms: C_24  and  C_25
REMARK    5  A    between atoms: C_26  and  C_27
REMARK                            x       y       z     vdW  Elec       q    Type
REMARK                         _______ _______ _______ _____ _____    ______ ____
ROOT
ATOM      1  C   UNL     1      -1.818  12.859  22.097  0.00  0.00    +0.000 C 
ATOM      2  C   UNL     1      -1.572  13.765  23.754  0.00  0.00    +0.000 A 
ATOM      3  C   UNL     1      -3.047  14.178  24.267  0.00  0.00    +0.000 A 
ATOM      4  O   UNL     1      -3.203  15.574  24.511  0.00  0.00    +0.000 OA
ATOM      5  C   UNL     1      -3.073  16.040  23.226  0.00  0.00    +0.000 A 
ATOM      6  C   UNL     1      -3.161  17.349  22.808  0.00  0.00    +0.000 A 
ATOM      7  C   UNL     1      -3.008  17.611  21.442  0.00  0.00    +0.000 A 
ATOM      8  C   UNL     1      -2.791  16.576  20.524  0.00  0.00    +0.000 A 
ATOM      9  C   UNL     1      -2.714  15.258  20.962  0.00  0.00    +0.000 A 
ATOM     10  C   UNL     1      -2.825  14.963  22.334  0.00  0.00    +0.000 A 
ATOM     11  C   UNL     1      -2.707  13.296  23.455  0.00  0.00    +0.000 A 
ATOM     12  O   UNL     1      -2.969  12.123  23.823  0.00  0.00    +0.000 OA
ATOM     13  C   UNL     1      -4.543  13.581  23.092  0.00  0.00    +0.000 C 
ATOM     14  O   UNL     1      -5.714  13.874  23.219  0.00  0.00    +0.000 OA
ATOM     15  N   UNL     1      -3.664  12.845  21.799  0.00  0.00    +0.000 N 
ATOM     16  C   UNL     1      -4.259  12.512  20.608  0.00  0.00    +0.000 A 
ATOM     17  N   UNL     1      -3.607  12.306  19.490  0.00  0.00    +0.000 NA
ATOM     18  C   UNL     1      -4.484  11.826  18.530  0.00  0.00    +0.000 A 
ATOM     19  C   UNL     1      -3.953  11.464  17.190  0.00  0.00    +0.000 C 
ATOM     20  C   UNL     1      -5.777  11.632  18.985  0.00  0.00    +0.000 A 
ATOM     21  C   UNL     1      -6.912  10.909  18.365  0.00  0.00    +0.000 C 
ATOM     22  S   UNL     1      -5.941  12.301  20.551  0.00  0.00    +0.000 S 
ENDROOT
BRANCH   1  26
ATOM     23  C   UNL     1       0.314   9.114  21.711  0.00  0.00    +0.000 A 
ATOM     24  C   UNL     1       0.107   9.917  20.593  0.00  0.00    +0.000 A 
ATOM     25  C   UNL     1      -0.600  11.108  20.703  0.00  0.00    +0.000 A 
ATOM     26  C   UNL     1      -1.128  11.507  21.932  0.00  0.00    +0.000 A 
ATOM     27  C   UNL     1      -0.921  10.695  23.060  0.00  0.00    +0.000 A 
ATOM     28  C   UNL     1      -0.199   9.503  22.948  0.00  0.00    +0.000 A 
BRANCH  23  30
ATOM     29  C   UNL     1       1.755   7.946  20.255  0.00  0.00    +0.000 C 
ATOM     30  O   UNL     1       0.997   7.961  21.453  0.00  0.00    +0.000 OA
ENDBRANCH  23  30
ENDBRANCH   1  26
TORSDOF 2
ENDMDL
MODEL 2
REMARK VINA RESULT:      -7.2      3.763      5.423
REMARK  Name = 
REMARK  5 active torsions:
REMARK  status: ('A' for Active; 'I' for Inactive)
REMARK    1  A    between atoms: C_1  and  O_2
REMARK    2  A    between atoms: O_2  and  C_3
REMARK    3  A    between atoms: C_6  and  C_7
REMARK    4  A    between atoms: C_24  and  C_25
REMARK    5  A    between atoms: C_26  and  C_27
REMARK                            x       y       z     vdW  Elec       q    Type
REMARK                         _______ _______ _______ _____ _____    ______ ____
ROOT
ATOM      1  C   UNL     1      -0.187  13.752  20.405  0.00  0.00    +0.000 C 
ATOM      2  C   UNL     1      -1.285  14.877  21.481  0.00  0.00    +0.000 A 
ATOM      3  C   UNL     1      -1.870  13.943  22.662  0.00  0.00    +0.000 A 
ATOM      4  O   UNL     1      -3.293  13.932  22.737  0.00  0.00    +0.000 OA
ATOM      5  C   UNL     1      -3.574  13.309  21.547  0.00  0.00    +0.000 A 
ATOM      6  C   UNL     1      -4.819  12.982  21.058  0.00  0.00    +0.000 A 
ATOM      7  C   UNL     1      -4.886  12.334  19.819  0.00  0.00    +0.000 A 
ATOM      8  C   UNL     1      -3.725  12.011  19.107  0.00  0.00    +0.000 A 
ATOM      9  C   UNL     1      -2.475  12.339  19.619  0.00  0.00    +0.000 A 
ATOM     10  C   UNL     1      -2.373  13.025  20.844  0.00  0.00    +0.000 A 
ATOM     11  C   UNL     1      -0.865  13.778  21.944  0.00  0.00    +0.000 A 
ATOM     12  O   UNL     1       0.227  13.786  22.567  0.00  0.00    +0.000 OA
ATOM     13  C   UNL     1      -1.235  12.053  22.632  0.00  0.00    +0.000 C 
ATOM     14  O   UNL     1      -1.628  11.155  23.346  0.00  0.00    +0.000 OA
ATOM     15  N   UNL     1      -0.270  12.060  21.197  0.00  0.00    +0.000 N 
ATOM     16  C   UNL     1       0.172  10.902  20.610  0.00  0.00    +0.000 A 
ATOM     17  N   UNL     1       0.572  10.812  19.365  0.00  0.00    +0.000 NA
ATOM     18  C   UNL     1       1.108   9.553  19.145  0.00  0.00    +0.000 A 
ATOM     19  C   UNL     1       1.683   9.241  17.811  0.00  0.00    +0.000 C 
ATOM     20  C   UNL     1       1.145   8.746  20.269  0.00  0.00    +0.000 A 
ATOM     21  C   UNL     1       1.857   7.468  20.508  0.00  0.00    +0.000 C 
ATOM     22  S   UNL     1       0.264   9.484  21.536  0.00  0.00    +0.000 S 
ENDROOT
BRANCH   1  26
ATOM     23  C   UNL     1       3.816  15.011  19.356  0.00  0.00    +0.000 A 
ATOM     24  C   UNL     1       3.608  14.212  20.477  0.00  0.00    +0.000 A 
ATOM     25  C   UNL     1       2.323  13.825  20.836  0.00  0.00    +0.000 A 
ATOM     26  C   UNL     1       1.222  14.248  20.089  0.00  0.00    +0.000 A 
ATOM     27  C   UNL     1       1.432  15.056  18.959  0.00  0.00    +0.000 A 
ATOM     28  C   UNL     1       2.728  15.433  18.593  0.00  0.00    +0.000 A 
BRANCH  23  30
ATOM     29  C   UNL     1       5.700  14.825  17.949  0.00  0.00    +0.000 C 
ATOM     30  O   UNL     1       5.124  15.339  19.138  0.00  0.00    +0.000 OA
ENDBRANCH  23  30
ENDBRANCH   1  26
TORSDOF 2
ENDMDL
MODEL 3
REMARK VINA RESULT:      -7.2      2.897      4.447
REMARK  Name = 
REMARK  5 active torsions:
REMARK  status: ('A' for Active; 'I' for Inactive)
REMARK    1  A    between atoms: C_1  and  O_2
REMARK    2  A    between atoms: O_2  and  C_3
REMARK    3  A    between atoms: C_6  and  C_7
REMARK    4  A    between atoms: C_24  and  C_25
REMARK    5  A    between atoms: C_26  and  C_27
REMARK                            x       y       z     vdW  Elec       q    Type
REMARK                         _______ _______ _______ _____ _____    ______ ____
ROOT
ATOM      1  C   UNL     1      -1.299  12.377  22.710  0.00  0.00    +0.000 C 
ATOM      2  C   UNL     1      -3.172  12.300  23.049  0.00  0.00    +0.000 A 
ATOM      3  C   UNL     1      -3.824  13.559  22.275  0.00  0.00    +0.000 A 
ATOM      4  O   UNL     1      -4.578  14.426  23.117  0.00  0.00    +0.000 OA
ATOM      5  C   UNL     1      -3.562  14.912  23.903  0.00  0.00    +0.000 A 
ATOM      6  C   UNL     1      -3.669  15.840  24.914  0.00  0.00    +0.000 A 
ATOM      7  C   UNL     1      -2.500  16.210  25.589  0.00  0.00    +0.000 A 
ATOM      8  C   UNL     1      -1.258  15.670  25.237  0.00  0.00    +0.000 A 
ATOM      9  C   UNL     1      -1.166  14.741  24.207  0.00  0.00    +0.000 A 
ATOM     10  C   UNL     1      -2.326  14.317  23.533  0.00  0.00    +0.000 A 
ATOM     11  C   UNL     1      -2.735  12.985  22.081  0.00  0.00    +0.000 A 
ATOM     12  O   UNL     1      -2.637  12.419  20.963  0.00  0.00    +0.000 OA
ATOM     13  C   UNL     1      -2.532  14.668  21.237  0.00  0.00    +0.000 C 
ATOM     14  O   UNL     1      -2.777  15.716  20.678  0.00  0.00    +0.000 OA
ATOM     15  N   UNL     1      -1.044  13.878  21.625  0.00  0.00    +0.000 N 
ATOM     16  C   UNL     1       0.175  14.443  21.350  0.00  0.00    +0.000 A 
ATOM     17  N   UNL     1       1.298  14.093  21.929  0.00  0.00    +0.000 NA
ATOM     18  C   UNL     1       2.355  14.735  21.304  0.00  0.00    +0.000 A 
ATOM     19  C   UNL     1       3.740  14.444  21.757  0.00  0.00    +0.000 C 
ATOM     20  C   UNL     1       1.989  15.516  20.221  0.00  0.00    +0.000 A 
ATOM     21  C   UNL     1       2.819  16.135  19.161  0.00  0.00    +0.000 C 
ATOM     22  S   UNL     1       0.284  15.644  20.156  0.00  0.00    +0.000 S 
ENDROOT
BRANCH   1  26
ATOM     23  C   UNL     1       0.780   8.815  21.403  0.00  0.00    +0.000 A 
ATOM     24  C   UNL     1       0.615   9.886  20.529  0.00  0.00    +0.000 A 
ATOM     25  C   UNL     1      -0.075  11.023  20.932  0.00  0.00    +0.000 A 
ATOM     26  C   UNL     1      -0.627  11.099  22.212  0.00  0.00    +0.000 A 
ATOM     27  C   UNL     1      -0.461  10.018  23.093  0.00  0.00    +0.000 A 
ATOM     28  C   UNL     1       0.244   8.880  22.689  0.00  0.00    +0.000 A 
BRANCH  23  30
ATOM     29  C   UNL     1       1.954   7.940  19.554  0.00  0.00    +0.000 C 
ATOM     30  O   UNL     1       1.451   7.754  20.866  0.00  0.00    +0.000 OA
ENDBRANCH  23  30
ENDBRANCH   1  26
TORSDOF 2
ENDMDL
MODEL 4
REMARK VINA RESULT:      -7.2      0.763      1.126
REMARK  Name = 
REMARK  5 active torsions:
REMARK  status: ('A' for Active; 'I' for Inactive)
REMARK    1  A    between atoms: C_1  and  O_2
REMARK    2  A    between atoms: O_2  and  C_3
REMARK    3  A    between atoms: C_6  and  C_7
REMARK    4  A    between atoms: C_24  and  C_25
REMARK    5  A    between atoms: C_26  and  C_27
REMARK                            x       y       z     vdW  Elec       q    Type
REMARK                         _______ _______ _______ _____ _____    ______ ____
ROOT
ATOM      1  C   UNL     1      -2.121  13.471  22.417  0.00  0.00    +0.000 C 
ATOM      2  C   UNL     1      -2.082  14.482  24.030  0.00  0.00    +0.000 A 
ATOM      3  C   UNL     1      -3.621  14.687  24.474  0.00  0.00    +0.000 A 
ATOM      4  O   UNL     1      -3.998  16.052  24.637  0.00  0.00    +0.000 OA
ATOM      5  C   UNL     1      -3.889  16.471  23.334  0.00  0.00    +0.000 A 
ATOM      6  C   UNL     1      -4.159  17.728  22.844  0.00  0.00    +0.000 A 
ATOM      7  C   UNL     1      -3.994  17.945  21.471  0.00  0.00    +0.000 A 
ATOM      8  C   UNL     1      -3.586  16.913  20.618  0.00  0.00    +0.000 A 
ATOM      9  C   UNL     1      -3.326  15.646  21.128  0.00  0.00    +0.000 A 
ATOM     10  C   UNL     1      -3.445  15.403  22.509  0.00  0.00    +0.000 A 
ATOM     11  C   UNL     1      -3.119  13.830  23.721  0.00  0.00    +0.000 A 
ATOM     12  O   UNL     1      -3.213  12.649  24.143  0.00  0.00    +0.000 OA
ATOM     13  C   UNL     1      -4.962  13.811  23.285  0.00  0.00    +0.000 C 
ATOM     14  O   UNL     1      -6.167  13.926  23.359  0.00  0.00    +0.000 OA
ATOM     15  N   UNL     1      -3.930  13.158  22.062  0.00  0.00    +0.000 N 
ATOM     16  C   UNL     1      -4.420  12.681  20.872  0.00  0.00    +0.000 A 
ATOM     17  N   UNL     1      -3.701  12.524  19.788  0.00  0.00    +0.000 NA
ATOM     18  C   UNL     1      -4.455  11.869  18.828  0.00  0.00    +0.000 A 
ATOM     19  C   UNL     1      -3.823  11.530  17.527  0.00  0.00    +0.000 C 
ATOM     20  C   UNL     1      -5.720  11.500  19.252  0.00  0.00    +0.000 A 
ATOM     21  C   UNL     1      -6.707  10.582  18.635  0.00  0.00    +0.000 C 
ATOM     22  S   UNL     1      -6.047  12.210  20.773  0.00  0.00    +0.000 S 
ENDROOT
BRANCH   1  26
ATOM     23  C   UNL     1       0.301   9.905  22.050  0.00  0.00    +0.000 A 
ATOM     24  C   UNL     1      -0.692   9.976  23.022  0.00  0.00    +0.000 A 
ATOM     25  C   UNL     1      -1.456  11.127  23.165  0.00  0.00    +0.000 A 
ATOM     26  C   UNL     1      -1.227  12.235  22.347  0.00  0.00    +0.000 A 
ATOM     27  C   UNL     1      -0.223  12.164  21.366  0.00  0.00    +0.000 A 
ATOM     28  C   UNL     1       0.537  10.999  21.218  0.00  0.00    +0.000 A 
BRANCH  23  30
ATOM     29  C   UNL     1       1.345   8.226  20.763  0.00  0.00    +0.000 C 
ATOM     30  O   UNL     1       0.993   8.728  22.042  0.00  0.00    +0.000 OA
ENDBRANCH  23  30
ENDBRANCH   1  26
TORSDOF 2
ENDMDL
MODEL 5
REMARK VINA RESULT:      -7.1      3.916      5.661
REMARK  Name = 
REMARK  5 active torsions:
REMARK  status: ('A' for Active; 'I' for Inactive)
REMARK    1  A    between atoms: C_1  and  O_2
REMARK    2  A    between atoms: O_2  and  C_3
REMARK    3  A    between atoms: C_6  and  C_7
REMARK    4  A    between atoms: C_24  and  C_25
REMARK    5  A    between atoms: C_26  and  C_27
REMARK                            x       y       z     vdW  Elec       q    Type
REMARK                         _______ _______ _______ _____ _____    ______ ____
ROOT
ATOM      1  C   UNL     1       0.257  13.364  19.959  0.00  0.00    +0.000 C 
ATOM      2  C   UNL     1      -0.855  14.592  20.898  0.00  0.00    +0.000 A 
ATOM      3  C   UNL     1      -1.550  13.753  22.091  0.00  0.00    +0.000 A 
ATOM      4  O   UNL     1      -2.974  13.801  22.077  0.00  0.00    +0.000 OA
ATOM      5  C   UNL     1      -3.209  13.119  20.908  0.00  0.00    +0.000 A 
ATOM      6  C   UNL     1      -4.434  12.812  20.361  0.00  0.00    +0.000 A 
ATOM      7  C   UNL     1      -4.452  12.095  19.160  0.00  0.00    +0.000 A 
ATOM      8  C   UNL     1      -3.265  11.685  18.541  0.00  0.00    +0.000 A 
ATOM      9  C   UNL     1      -2.036  11.995  19.112  0.00  0.00    +0.000 A 
ATOM     10  C   UNL     1      -1.980  12.748  20.300  0.00  0.00    +0.000 A 
ATOM     11  C   UNL     1      -0.511  13.507  21.448  0.00  0.00    +0.000 A 
ATOM     12  O   UNL     1       0.540  13.510  22.137  0.00  0.00    +0.000 OA
ATOM     13  C   UNL     1      -0.994  11.841  22.208  0.00  0.00    +0.000 C 
ATOM     14  O   UNL     1      -1.467  11.002  22.945  0.00  0.00    +0.000 OA
ATOM     15  N   UNL     1       0.055  11.726  20.839  0.00  0.00    +0.000 N 
ATOM     16  C   UNL     1       0.483  10.519  20.347  0.00  0.00    +0.000 A 
ATOM     17  N   UNL     1       0.954  10.340  19.138  0.00  0.00    +0.000 NA
ATOM     18  C   UNL     1       1.449   9.051  19.024  0.00  0.00    +0.000 A 
ATOM     19  C   UNL     1       2.090   8.638  17.748  0.00  0.00    +0.000 C 
ATOM     20  C   UNL     1       1.384   8.310  20.192  0.00  0.00    +0.000 A 
ATOM     21  C   UNL     1       2.026   7.023  20.547  0.00  0.00    +0.000 C 
ATOM     22  S   UNL     1       0.459   9.155  21.357  0.00  0.00    +0.000 S 
ENDROOT
BRANCH   1  26
ATOM     23  C   UNL     1       4.293  14.759  19.268  0.00  0.00    +0.000 A 
ATOM     24  C   UNL     1       3.486  14.400  18.193  0.00  0.00    +0.000 A 
ATOM     25  C   UNL     1       2.198  13.926  18.407  0.00  0.00    +0.000 A 
ATOM     26  C   UNL     1       1.702  13.785  19.704  0.00  0.00    +0.000 A 
ATOM     27  C   UNL     1       2.517  14.146  20.790  0.00  0.00    +0.000 A 
ATOM     28  C   UNL     1       3.809  14.635  20.571  0.00  0.00    +0.000 A 
BRANCH  23  30
ATOM     29  C   UNL     1       6.092  14.578  17.754  0.00  0.00    +0.000 C 
ATOM     30  O   UNL     1       5.543  15.180  18.914  0.00  0.00    +0.000 OA
ENDBRANCH  23  30
ENDBRANCH   1  26
TORSDOF 2
ENDMDL
MODEL 6
REMARK VINA RESULT:      -7.0      3.313      5.478
REMARK  Name = 
REMARK  5 active torsions:
REMARK  status: ('A' for Active; 'I' for Inactive)
REMARK    1  A    between atoms: C_1  and  O_2
REMARK    2  A    between atoms: O_2  and  C_3
REMARK    3  A    between atoms: C_6  and  C_7
REMARK    4  A    between atoms: C_24  and  C_25
REMARK    5  A    between atoms: C_26  and  C_27
REMARK                            x       y       z     vdW  Elec       q    Type
REMARK                         _______ _______ _______ _____ _____    ______ ____
ROOT
ATOM      1  C   UNL     1      -4.430  12.312  20.041  0.00  0.00    +0.000 C 
ATOM      2  C   UNL     1      -6.252  11.931  20.445  0.00  0.00    +0.000 A 
ATOM      3  C   UNL     1      -6.884  13.301  21.023  0.00  0.00    +0.000 A 
ATOM      4  O   UNL     1      -7.463  13.167  22.318  0.00  0.00    +0.000 OA
ATOM      5  C   UNL     1      -6.328  12.903  23.044  0.00  0.00    +0.000 A 
ATOM      6  C   UNL     1      -6.243  12.701  24.403  0.00  0.00    +0.000 A 
ATOM      7  C   UNL     1      -4.979  12.455  24.950  0.00  0.00    +0.000 A 
ATOM      8  C   UNL     1      -3.833  12.433  24.147  0.00  0.00    +0.000 A 
ATOM      9  C   UNL     1      -3.935  12.648  22.777  0.00  0.00    +0.000 A 
ATOM     10  C   UNL     1      -5.195  12.861  22.188  0.00  0.00    +0.000 A 
ATOM     11  C   UNL     1      -5.874  13.130  20.313  0.00  0.00    +0.000 A 
ATOM     12  O   UNL     1      -5.951  13.643  19.168  0.00  0.00    +0.000 OA
ATOM     13  C   UNL     1      -5.632  14.853  21.059  0.00  0.00    +0.000 C 
ATOM     14  O   UNL     1      -5.853  15.939  21.553  0.00  0.00    +0.000 OA
ATOM     15  N   UNL     1      -4.179  14.109  20.490  0.00  0.00    +0.000 N 
ATOM     16  C   UNL     1      -2.957  14.725  20.590  0.00  0.00    +0.000 A 
ATOM     17  N   UNL     1      -1.808  14.097  20.528  0.00  0.00    +0.000 NA
ATOM     18  C   UNL     1      -0.780  15.026  20.493  0.00  0.00    +0.000 A 
ATOM     19  C   UNL     1       0.619  14.543  20.363  0.00  0.00    +0.000 C 
ATOM     20  C   UNL     1      -1.203  16.344  20.471  0.00  0.00    +0.000 A 
ATOM     21  C   UNL     1      -0.451  17.587  20.177  0.00  0.00    +0.000 C 
ATOM     22  S   UNL     1      -2.888  16.411  20.760  0.00  0.00    +0.000 S 
ENDROOT
BRANCH   1  26
ATOM     23  C   UNL     1      -3.079  10.998  16.146  0.00  0.00    +0.000 A 
ATOM     24  C   UNL     1      -2.175  11.104  17.199  0.00  0.00    +0.000 A 
ATOM     25  C   UNL     1      -2.595  11.550  18.446  0.00  0.00    +0.000 A 
ATOM     26  C   UNL     1      -3.926  11.917  18.655  0.00  0.00    +0.000 A 
ATOM     27  C   UNL     1      -4.838  11.812  17.592  0.00  0.00    +0.000 A 
ATOM     28  C   UNL     1      -4.414  11.351  16.342  0.00  0.00    +0.000 A 
BRANCH  23  30
ATOM     29  C   UNL     1      -3.417   9.980  14.046  0.00  0.00    +0.000 C 
ATOM     30  O   UNL     1      -2.525  10.576  14.973  0.00  0.00    +0.000 OA
ENDBRANCH  23  30
ENDBRANCH   1  26
TORSDOF 2
ENDMDL
MODEL 7
REMARK VINA RESULT:      -7.0      3.129      6.464
REMARK  Name = 
REMARK  5 active torsions:
REMARK  status: ('A' for Active; 'I' for Inactive)
REMARK    1  A    between atoms: C_1  and  O_2
REMARK    2  A    between atoms: O_2  and  C_3
REMARK    3  A    between atoms: C_6  and  C_7
REMARK    4  A    between atoms: C_24  and  C_25
REMARK    5  A    between atoms: C_26  and  C_27
REMARK                            x       y       z     vdW  Elec       q    Type
REMARK                         _______ _______ _______ _____ _____    ______ ____
ROOT
ATOM      1  C   UNL     1       0.052  13.226  20.044  0.00  0.00    +0.000 C 
ATOM      2  C   UNL     1       1.370  11.977  19.468  0.00  0.00    +0.000 A 
ATOM      3  C   UNL     1       0.564  10.726  18.840  0.00  0.00    +0.000 A 
ATOM      4  O   UNL     1       0.879   9.475  19.445  0.00  0.00    +0.000 OA
ATOM      5  C   UNL     1       0.370   9.699  20.700  0.00  0.00    +0.000 A 
ATOM      6  C   UNL     1       0.353   8.817  21.756  0.00  0.00    +0.000 A 
ATOM      7  C   UNL     1      -0.228   9.243  22.956  0.00  0.00    +0.000 A 
ATOM      8  C   UNL     1      -0.791  10.519  23.076  0.00  0.00    +0.000 A 
ATOM      9  C   UNL     1      -0.773  11.395  21.996  0.00  0.00    +0.000 A 
ATOM     10  C   UNL     1      -0.163  11.013  20.787  0.00  0.00    +0.000 A 
ATOM     11  C   UNL     1       0.191  11.902  19.017  0.00  0.00    +0.000 A 
ATOM     12  O   UNL     1      -0.070  12.529  17.959  0.00  0.00    +0.000 OA
ATOM     13  C   UNL     1      -1.420  10.927  18.825  0.00  0.00    +0.000 C 
ATOM     14  O   UNL     1      -2.224  10.074  18.510  0.00  0.00    +0.000 OA
ATOM     15  N   UNL     1      -1.596  12.451  19.622  0.00  0.00    +0.000 N 
ATOM     16  C   UNL     1      -2.808  12.897  20.084  0.00  0.00    +0.000 A 
ATOM     17  N   UNL     1      -2.953  13.829  20.994  0.00  0.00    +0.000 NA
ATOM     18  C   UNL     1      -4.296  14.156  21.105  0.00  0.00    +0.000 A 
ATOM     19  C   UNL     1      -4.695  15.239  22.041  0.00  0.00    +0.000 C 
ATOM     20  C   UNL     1      -5.121  13.487  20.218  0.00  0.00    +0.000 A 
ATOM     21  C   UNL     1      -6.534  13.737  19.848  0.00  0.00    +0.000 C 
ATOM     22  S   UNL     1      -4.235  12.255  19.426  0.00  0.00    +0.000 S 
ENDROOT
BRANCH   1  26
ATOM     23  C   UNL     1       0.442  17.275  18.569  0.00  0.00    +0.000 A 
ATOM     24  C   UNL     1       1.559  16.447  18.636  0.00  0.00    +0.000 A 
ATOM     25  C   UNL     1       1.448  15.154  19.133  0.00  0.00    +0.000 A 
ATOM     26  C   UNL     1       0.218  14.674  19.589  0.00  0.00    +0.000 A 
ATOM     27  C   UNL     1      -0.908  15.511  19.524  0.00  0.00    +0.000 A 
ATOM     28  C   UNL     1      -0.795  16.807  19.012  0.00  0.00    +0.000 A 
BRANCH  23  30
ATOM     29  C   UNL     1       0.883  18.624  16.686  0.00  0.00    +0.000 C 
ATOM     30  O   UNL     1       0.701  18.526  18.089  0.00  0.00    +0.000 OA
ENDBRANCH  23  30
ENDBRANCH   1  26
TORSDOF 2
ENDMDL
MODEL 8
REMARK VINA RESULT:      -6.9      2.696      3.489
REMARK  Name = 
REMARK  5 active torsions:
REMARK  status: ('A' for Active; 'I' for Inactive)
REMARK    1  A    between atoms: C_1  and  O_2
REMARK    2  A    between atoms: O_2  and  C_3
REMARK    3  A    between atoms: C_6  and  C_7
REMARK    4  A    between atoms: C_24  and  C_25
REMARK    5  A    between atoms: C_26  and  C_27
REMARK                            x       y       z     vdW  Elec       q    Type
REMARK                         _______ _______ _______ _____ _____    ______ ____
ROOT
ATOM      1  C   UNL     1       0.765  12.153  19.524  0.00  0.00    +0.000 C 
ATOM      2  C   UNL     1       1.728  13.056  20.896  0.00  0.00    +0.000 A 
ATOM      3  C   UNL     1       0.620  13.720  21.866  0.00  0.00    +0.000 A 
ATOM      4  O   UNL     1       0.763  15.129  22.025  0.00  0.00    +0.000 OA
ATOM      5  C   UNL     1       0.476  15.529  20.744  0.00  0.00    +0.000 A 
ATOM      6  C   UNL     1       0.425  16.821  20.272  0.00  0.00    +0.000 A 
ATOM      7  C   UNL     1       0.099  17.013  18.925  0.00  0.00    +0.000 A 
ATOM      8  C   UNL     1      -0.184  15.929  18.085  0.00  0.00    +0.000 A 
ATOM      9  C   UNL     1      -0.138  14.631  18.580  0.00  0.00    +0.000 A 
ATOM     10  C   UNL     1       0.223  14.399  19.921  0.00  0.00    +0.000 A 
ATOM     11  C   UNL     1       0.509  12.770  21.067  0.00  0.00    +0.000 A 
ATOM     12  O   UNL     1       0.239  11.667  21.606  0.00  0.00    +0.000 OA
ATOM     13  C   UNL     1      -1.272  13.340  21.363  0.00  0.00    +0.000 C 
ATOM     14  O   UNL     1      -2.260  13.824  21.875  0.00  0.00    +0.000 OA
ATOM     15  N   UNL     1      -1.043  12.431  19.910  0.00  0.00    +0.000 N 
ATOM     16  C   UNL     1      -2.075  12.165  19.047  0.00  0.00    +0.000 A 
ATOM     17  N   UNL     1      -1.917  11.821  17.792  0.00  0.00    +0.000 NA
ATOM     18  C   UNL     1      -3.143  11.462  17.256  0.00  0.00    +0.000 A 
ATOM     19  C   UNL     1      -3.200  10.978  15.853  0.00  0.00    +0.000 C 
ATOM     20  C   UNL     1      -4.191  11.495  18.160  0.00  0.00    +0.000 A 
ATOM     21  C   UNL     1      -5.565  10.949  18.054  0.00  0.00    +0.000 C 
ATOM     22  S   UNL     1      -3.672  12.230  19.615  0.00  0.00    +0.000 S 
ENDROOT
BRANCH   1  26
ATOM     23  C   UNL     1       2.025   8.071  18.842  0.00  0.00    +0.000 A 
ATOM     24  C   UNL     1       2.203   9.030  17.849  0.00  0.00    +0.000 A 
ATOM     25  C   UNL     1       1.777  10.337  18.050  0.00  0.00    +0.000 A 
ATOM     26  C   UNL     1       1.148  10.702  19.242  0.00  0.00    +0.000 A 
ATOM     27  C   UNL     1       0.968   9.733  20.243  0.00  0.00    +0.000 A 
ATOM     28  C   UNL     1       1.408   8.421  20.043  0.00  0.00    +0.000 A 
BRANCH  23  30
ATOM     29  C   UNL     1       2.922   6.014  19.569  0.00  0.00    +0.000 C 
ATOM     30  O   UNL     1       2.463   6.824  18.499  0.00  0.00    +0.000 OA
ENDBRANCH  23  30
ENDBRANCH   1  26
TORSDOF 2
ENDMDL
MODEL 9
REMARK VINA RESULT:      -6.9      2.939      6.668
REMARK  Name = 
REMARK  5 active torsions:
REMARK  status: ('A' for Active; 'I' for Inactive)
REMARK    1  A    between atoms: C_1  and  O_2
REMARK    2  A    between atoms: O_2  and  C_3
REMARK    3  A    between atoms: C_6  and  C_7
REMARK    4  A    between atoms: C_24  and  C_25
REMARK    5  A    between atoms: C_26  and  C_27
REMARK                            x       y       z     vdW  Elec       q    Type
REMARK                         _______ _______ _______ _____ _____    ______ ____
ROOT
ATOM      1  C   UNL     1      -1.320  12.594  21.258  0.00  0.00    +0.000 C 
ATOM      2  C   UNL     1      -0.838  10.759  21.420  0.00  0.00    +0.000 A 
ATOM      3  C   UNL     1       0.501  10.562  20.537  0.00  0.00    +0.000 A 
ATOM      4  O   UNL     1       0.388   9.556  19.534  0.00  0.00    +0.000 OA
ATOM      5  C   UNL     1      -0.550  10.150  18.727  0.00  0.00    +0.000 A 
ATOM      6  C   UNL     1      -1.060   9.656  17.547  0.00  0.00    +0.000 A 
ATOM      7  C   UNL     1      -2.006  10.431  16.867  0.00  0.00    +0.000 A 
ATOM      8  C   UNL     1      -2.410  11.678  17.358  0.00  0.00    +0.000 A 
ATOM      9  C   UNL     1      -1.878  12.168  18.546  0.00  0.00    +0.000 A 
ATOM     10  C   UNL     1      -0.953  11.398  19.275  0.00  0.00    +0.000 A 
ATOM     11  C   UNL     1       0.018  11.602  21.027  0.00  0.00    +0.000 A 
ATOM     12  O   UNL     1       0.739  12.150  21.897  0.00  0.00    +0.000 OA
ATOM     13  C   UNL     1       1.190  12.223  19.676  0.00  0.00    +0.000 C 
ATOM     14  O   UNL     1       2.107  12.291  18.884  0.00  0.00    +0.000 OA
ATOM     15  N   UNL     1      -0.024  13.359  20.149  0.00  0.00    +0.000 N 
ATOM     16  C   UNL     1      -0.124  14.601  19.574  0.00  0.00    +0.000 A 
ATOM     17  N   UNL     1      -1.202  15.345  19.609  0.00  0.00    +0.000 NA
ATOM     18  C   UNL     1      -0.914  16.596  19.086  0.00  0.00    +0.000 A 
ATOM     19  C   UNL     1      -1.978  17.633  19.077  0.00  0.00    +0.000 C 
ATOM     20  C   UNL     1       0.410  16.769  18.721  0.00  0.00    +0.000 A 
ATOM     21  C   UNL     1       1.156  18.003  18.379  0.00  0.00    +0.000 C 
ATOM     22  S   UNL     1       1.229  15.269  18.797  0.00  0.00    +0.000 S 
ENDROOT
BRANCH   1  26
ATOM     23  C   UNL     1      -2.234  14.888  24.810  0.00  0.00    +0.000 A 
ATOM     24  C   UNL     1      -1.035  15.097  24.135  0.00  0.00    +0.000 A 
ATOM     25  C   UNL     1      -0.721  14.346  23.009  0.00  0.00    +0.000 A 
ATOM     26  C   UNL     1      -1.596  13.359  22.550  0.00  0.00    +0.000 A 
ATOM     27  C   UNL     1      -2.805  13.147  23.233  0.00  0.00    +0.000 A 
ATOM     28  C   UNL     1      -3.123  13.913  24.359  0.00  0.00    +0.000 A 
BRANCH  23  30
ATOM     29  C   UNL     1      -1.432  16.695  26.096  0.00  0.00    +0.000 C 
ATOM     30  O   UNL     1      -2.399  15.673  25.915  0.00  0.00    +0.000 OA
ENDBRANCH  23  30
ENDBRANCH   1  26
TORSDOF 2
ENDMDL
