MODEL 1
REMARK VINA RESULT:      -9.5      0.000      0.000
REMARK  Name = 
REMARK  3 active torsions:
REMARK  status: ('A' for Active; 'I' for Inactive)
REMARK    1  A    between atoms: C_7  and  S_8
REMARK    2  A    between atoms: S_8  and  N_11
REMARK    3  A    between atoms: N_11  and  C_12
REMARK                            x       y       z     vdW  Elec       q    Type
REMARK                         _______ _______ _______ _____ _____    ______ ____
ROOT
ATOM      1  N   UNL     1       3.179   5.837  20.144  0.00  0.00    +0.000 N 
ATOM      2  H   UNL     1       4.071   5.977  20.615  0.00  0.00    +0.000 HD
ENDROOT
BRANCH   1   3
ATOM      3  C   UNL     1       2.523   6.990  19.633  0.00  0.00    +0.000 A 
ATOM      4  C   UNL     1       2.797   7.413  18.321  0.00  0.00    +0.000 A 
ATOM      5  C   UNL     1       2.198   8.565  17.810  0.00  0.00    +0.000 A 
ATOM      6  C   UNL     1       1.378   9.282  18.652  0.00  0.00    +0.000 A 
ATOM      7  C   UNL     1       1.111   8.874  19.939  0.00  0.00    +0.000 A 
ATOM      8  C   UNL     1       1.647   7.711  20.455  0.00  0.00    +0.000 A 
ATOM      9  O   UNL     1       0.332   9.778  20.603  0.00  0.00    +0.000 OA
ATOM     10  C   UNL     1       0.334  10.888  19.666  0.00  0.00    +0.000 C 
ATOM     11  C   UNL     1      -1.084  11.465  19.540  0.00  0.00    +0.000 C 
ATOM     12  C   UNL     1      -1.118  12.729  18.676  0.00  0.00    +0.000 C 
ATOM     13  C   UNL     1      -0.125  13.784  19.160  0.00  0.00    +0.000 C 
ATOM     14  C   UNL     1       1.284  13.217  19.303  0.00  0.00    +0.000 C 
ATOM     15  C   UNL     1       1.290  11.977  20.194  0.00  0.00    +0.000 C 
ATOM     16  O   UNL     1       0.792  10.472  18.352  0.00  0.00    +0.000 OA
ENDBRANCH   1   3
BRANCH   1  17
ATOM     17  S   UNL     1       3.120   4.387  19.286  0.00  0.00    +0.000 S 
ATOM     18  O   UNL     1       1.913   4.344  18.491  0.00  0.00    +0.000 OA
ATOM     19  O   UNL     1       3.437   3.343  20.239  0.00  0.00    +0.000 OA
BRANCH  17  26
ATOM     20  O   UNL     1       7.172   4.553  13.129  0.00  0.00    +0.000 OA
ATOM     21  C   UNL     1       6.731   4.578  14.267  0.00  0.00    +0.000 A 
ATOM     22  N   UNL     1       7.486   4.767  15.403  0.00  0.00    +0.000 N 
ATOM     23  C   UNL     1       6.646   4.722  16.477  0.00  0.00    +0.000 A 
ATOM     24  C   UNL     1       6.900   4.856  17.823  0.00  0.00    +0.000 A 
ATOM     25  C   UNL     1       5.802   4.753  18.686  0.00  0.00    +0.000 A 
ATOM     26  C   UNL     1       4.508   4.503  18.169  0.00  0.00    +0.000 A 
ATOM     27  C   UNL     1       4.282   4.392  16.789  0.00  0.00    +0.000 A 
ATOM     28  C   UNL     1       5.383   4.502  15.968  0.00  0.00    +0.000 A 
ATOM     29  O   UNL     1       5.375   4.406  14.586  0.00  0.00    +0.000 OA
ATOM     30  H   UNL     1       8.482   4.911  15.392  0.00  0.00    +0.000 HD
ENDBRANCH  17  26
ENDBRANCH   1  17
TORSDOF 3
ENDMDL
MODEL 2
REMARK VINA RESULT:      -9.4      1.521      2.002
REMARK  Name = 
REMARK  3 active torsions:
REMARK  status: ('A' for Active; 'I' for Inactive)
REMARK    1  A    between atoms: C_7  and  S_8
REMARK    2  A    between atoms: S_8  and  N_11
REMARK    3  A    between atoms: N_11  and  C_12
REMARK                            x       y       z     vdW  Elec       q    Type
REMARK                         _______ _______ _______ _____ _____    ______ ____
ROOT
ATOM      1  N   UNL     1       2.220   5.999  21.242  0.00  0.00    +0.000 N 
ATOM      2  H   UNL     1       3.106   6.042  21.741  0.00  0.00    +0.000 HD
ENDROOT
BRANCH   1   3
ATOM      3  C   UNL     1       1.835   7.146  20.494  0.00  0.00    +0.000 A 
ATOM      4  C   UNL     1       2.343   7.322  19.195  0.00  0.00    +0.000 A 
ATOM      5  C   UNL     1       2.015   8.458  18.455  0.00  0.00    +0.000 A 
ATOM      6  C   UNL     1       1.224   9.406  19.065  0.00  0.00    +0.000 A 
ATOM      7  C   UNL     1       0.729   9.240  20.338  0.00  0.00    +0.000 A 
ATOM      8  C   UNL     1       0.993   8.102  21.074  0.00  0.00    +0.000 A 
ATOM      9  O   UNL     1       0.031  10.337  20.755  0.00  0.00    +0.000 OA
ATOM     10  C   UNL     1       0.338  11.282  19.694  0.00  0.00    +0.000 C 
ATOM     11  C   UNL     1      -0.936  12.034  19.282  0.00  0.00    +0.000 C 
ATOM     12  C   UNL     1      -0.648  13.145  18.268  0.00  0.00    +0.000 C 
ATOM     13  C   UNL     1       0.436  14.105  18.757  0.00  0.00    +0.000 C 
ATOM     14  C   UNL     1       1.701  13.366  19.184  0.00  0.00    +0.000 C 
ATOM     15  C   UNL     1       1.386  12.287  20.217  0.00  0.00    +0.000 C 
ATOM     16  O   UNL     1       0.887  10.610  18.530  0.00  0.00    +0.000 OA
ENDBRANCH   1   3
BRANCH   1  17
ATOM     17  S   UNL     1       1.885   4.458  20.648  0.00  0.00    +0.000 S 
ATOM     18  O   UNL     1       0.554   4.435  20.085  0.00  0.00    +0.000 OA
ATOM     19  O   UNL     1       2.283   3.531  21.689  0.00  0.00    +0.000 OA
BRANCH  17  26
ATOM     20  O   UNL     1       8.159   4.304  16.781  0.00  0.00    +0.000 OA
ATOM     21  C   UNL     1       7.014   4.238  17.197  0.00  0.00    +0.000 A 
ATOM     22  N   UNL     1       5.923   3.853  16.452  0.00  0.00    +0.000 N 
ATOM     23  C   UNL     1       4.822   3.913  17.256  0.00  0.00    +0.000 A 
ATOM     24  C   UNL     1       3.501   3.629  16.994  0.00  0.00    +0.000 A 
ATOM     25  C   UNL     1       2.599   3.799  18.051  0.00  0.00    +0.000 A 
ATOM     26  C   UNL     1       3.050   4.260  19.310  0.00  0.00    +0.000 A 
ATOM     27  C   UNL     1       4.409   4.520  19.549  0.00  0.00    +0.000 A 
ATOM     28  C   UNL     1       5.271   4.340  18.489  0.00  0.00    +0.000 A 
ATOM     29  O   UNL     1       6.639   4.556  18.512  0.00  0.00    +0.000 OA
ATOM     30  H   UNL     1       5.978   3.581  15.484  0.00  0.00    +0.000 HD
ENDBRANCH  17  26
ENDBRANCH   1  17
TORSDOF 3
ENDMDL
MODEL 3
REMARK VINA RESULT:      -9.3      1.357      2.195
REMARK  Name = 
REMARK  3 active torsions:
REMARK  status: ('A' for Active; 'I' for Inactive)
REMARK    1  A    between atoms: C_7  and  S_8
REMARK    2  A    between atoms: S_8  and  N_11
REMARK    3  A    between atoms: N_11  and  C_12
REMARK                            x       y       z     vdW  Elec       q    Type
REMARK                         _______ _______ _______ _____ _____    ______ ____
ROOT
ATOM      1  N   UNL     1       2.197   3.771  18.762  0.00  0.00    +0.000 N 
ATOM      2  H   UNL     1       1.364   3.206  18.918  0.00  0.00    +0.000 HD
ENDROOT
BRANCH   1   3
ATOM      3  C   UNL     1       2.112   5.157  19.065  0.00  0.00    +0.000 A 
ATOM      4  C   UNL     1       1.869   5.558  20.390  0.00  0.00    +0.000 A 
ATOM      5  C   UNL     1       1.739   6.910  20.708  0.00  0.00    +0.000 A 
ATOM      6  C   UNL     1       1.811   7.815  19.673  0.00  0.00    +0.000 A 
ATOM      7  C   UNL     1       2.043   7.427  18.374  0.00  0.00    +0.000 A 
ATOM      8  C   UNL     1       2.228   6.100  18.037  0.00  0.00    +0.000 A 
ATOM      9  O   UNL     1       2.002   8.488  17.515  0.00  0.00    +0.000 OA
ATOM     10  C   UNL     1       1.499   9.534  18.389  0.00  0.00    +0.000 C 
ATOM     11  C   UNL     1       2.289  10.830  18.157  0.00  0.00    +0.000 C 
ATOM     12  C   UNL     1       1.710  12.008  18.947  0.00  0.00    +0.000 C 
ATOM     13  C   UNL     1       0.219  12.204  18.678  0.00  0.00    +0.000 C 
ATOM     14  C   UNL     1      -0.573  10.918  18.890  0.00  0.00    +0.000 C 
ATOM     15  C   UNL     1       0.009   9.771  18.067  0.00  0.00    +0.000 C 
ATOM     16  O   UNL     1       1.613   9.156  19.787  0.00  0.00    +0.000 OA
ENDBRANCH   1   3
BRANCH   1  17
ATOM     17  S   UNL     1       3.621   2.927  19.081  0.00  0.00    +0.000 S 
ATOM     18  O   UNL     1       3.512   1.581  18.562  0.00  0.00    +0.000 OA
ATOM     19  O   UNL     1       3.934   3.178  20.474  0.00  0.00    +0.000 OA
BRANCH  17  26
ATOM     20  O   UNL     1       7.616   5.367  13.386  0.00  0.00    +0.000 OA
ATOM     21  C   UNL     1       7.106   5.128  14.469  0.00  0.00    +0.000 A 
ATOM     22  N   UNL     1       7.510   5.667  15.669  0.00  0.00    +0.000 N 
ATOM     23  C   UNL     1       6.711   5.156  16.650  0.00  0.00    +0.000 A 
ATOM     24  C   UNL     1       6.702   5.377  18.008  0.00  0.00    +0.000 A 
ATOM     25  C   UNL     1       5.740   4.683  18.753  0.00  0.00    +0.000 A 
ATOM     26  C   UNL     1       4.847   3.791  18.114  0.00  0.00    +0.000 A 
ATOM     27  C   UNL     1       4.871   3.606  16.723  0.00  0.00    +0.000 A 
ATOM     28  C   UNL     1       5.826   4.305  16.019  0.00  0.00    +0.000 A 
ATOM     29  O   UNL     1       6.025   4.250  14.649  0.00  0.00    +0.000 OA
ATOM     30  H   UNL     1       8.269   6.322  15.757  0.00  0.00    +0.000 HD
ENDBRANCH  17  26
ENDBRANCH   1  17
TORSDOF 3
ENDMDL
MODEL 4
REMARK VINA RESULT:      -9.3      1.353      2.140
REMARK  Name = 
REMARK  3 active torsions:
REMARK  status: ('A' for Active; 'I' for Inactive)
REMARK    1  A    between atoms: C_7  and  S_8
REMARK    2  A    between atoms: S_8  and  N_11
REMARK    3  A    between atoms: N_11  and  C_12
REMARK                            x       y       z     vdW  Elec       q    Type
REMARK                         _______ _______ _______ _____ _____    ______ ____
ROOT
ATOM      1  N   UNL     1       3.154   4.662  18.704  0.00  0.00    +0.000 N 
ATOM      2  H   UNL     1       2.516   3.871  18.781  0.00  0.00    +0.000 HD
ENDROOT
BRANCH   1   3
ATOM      3  C   UNL     1       2.654   5.941  19.071  0.00  0.00    +0.000 A 
ATOM      4  C   UNL     1       2.044   6.107  20.327  0.00  0.00    +0.000 A 
ATOM      5  C   UNL     1       1.508   7.341  20.696  0.00  0.00    +0.000 A 
ATOM      6  C   UNL     1       1.560   8.358  19.769  0.00  0.00    +0.000 A 
ATOM      7  C   UNL     1       2.151   8.198  18.537  0.00  0.00    +0.000 A 
ATOM      8  C   UNL     1       2.737   7.005  18.164  0.00  0.00    +0.000 A 
ATOM      9  O   UNL     1       2.020   9.318  17.765  0.00  0.00    +0.000 OA
ATOM     10  C   UNL     1       1.093  10.100  18.566  0.00  0.00    +0.000 C 
ATOM     11  C   UNL     1       1.554  11.564  18.613  0.00  0.00    +0.000 C 
ATOM     12  C   UNL     1       0.540  12.466  19.322  0.00  0.00    +0.000 C 
ATOM     13  C   UNL     1      -0.861  12.338  18.726  0.00  0.00    +0.000 C 
ATOM     14  C   UNL     1      -1.322  10.886  18.661  0.00  0.00    +0.000 C 
ATOM     15  C   UNL     1      -0.306  10.018  17.921  0.00  0.00    +0.000 C 
ATOM     16  O   UNL     1       1.005   9.590  19.923  0.00  0.00    +0.000 OA
ENDBRANCH   1   3
BRANCH   1  17
ATOM     17  S   UNL     1       4.747   4.247  19.066  0.00  0.00    +0.000 S 
ATOM     18  O   UNL     1       4.833   2.824  19.310  0.00  0.00    +0.000 OA
ATOM     19  O   UNL     1       5.201   5.213  20.046  0.00  0.00    +0.000 OA
BRANCH  17  26
ATOM     20  O   UNL     1       6.999   4.013  12.050  0.00  0.00    +0.000 OA
ATOM     21  C   UNL     1       6.796   4.253  13.229  0.00  0.00    +0.000 A 
ATOM     22  N   UNL     1       7.448   5.218  13.963  0.00  0.00    +0.000 N 
ATOM     23  C   UNL     1       6.959   5.180  15.236  0.00  0.00    +0.000 A 
ATOM     24  C   UNL     1       7.275   5.934  16.344  0.00  0.00    +0.000 A 
ATOM     25  C   UNL     1       6.584   5.639  17.525  0.00  0.00    +0.000 A 
ATOM     26  C   UNL     1       5.626   4.597  17.552  0.00  0.00    +0.000 A 
ATOM     27  C   UNL     1       5.313   3.862  16.398  0.00  0.00    +0.000 A 
ATOM     28  C   UNL     1       6.009   4.180  15.252  0.00  0.00    +0.000 A 
ATOM     29  O   UNL     1       5.861   3.566  14.019  0.00  0.00    +0.000 OA
ATOM     30  H   UNL     1       8.156   5.824  13.581  0.00  0.00    +0.000 HD
ENDBRANCH  17  26
ENDBRANCH   1  17
TORSDOF 3
ENDMDL
MODEL 5
REMARK VINA RESULT:      -9.0      1.475      2.406
REMARK  Name = 
REMARK  3 active torsions:
REMARK  status: ('A' for Active; 'I' for Inactive)
REMARK    1  A    between atoms: C_7  and  S_8
REMARK    2  A    between atoms: S_8  and  N_11
REMARK    3  A    between atoms: N_11  and  C_12
REMARK                            x       y       z     vdW  Elec       q    Type
REMARK                         _______ _______ _______ _____ _____    ______ ____
ROOT
ATOM      1  N   UNL     1       3.088   4.665  18.997  0.00  0.00    +0.000 N 
ATOM      2  H   UNL     1       2.521   3.873  19.292  0.00  0.00    +0.000 HD
ENDROOT
BRANCH   1   3
ATOM      3  C   UNL     1       2.597   5.966  19.290  0.00  0.00    +0.000 A 
ATOM      4  C   UNL     1       1.980   6.205  20.531  0.00  0.00    +0.000 A 
ATOM      5  C   UNL     1       1.452   7.461  20.829  0.00  0.00    +0.000 A 
ATOM      6  C   UNL     1       1.518   8.426  19.849  0.00  0.00    +0.000 A 
ATOM      7  C   UNL     1       2.116   8.195  18.631  0.00  0.00    +0.000 A 
ATOM      8  C   UNL     1       2.694   6.979  18.328  0.00  0.00    +0.000 A 
ATOM      9  O   UNL     1       1.998   9.272  17.799  0.00  0.00    +0.000 OA
ATOM     10  C   UNL     1       1.073  10.104  18.550  0.00  0.00    +0.000 C 
ATOM     11  C   UNL     1       1.545  11.565  18.521  0.00  0.00    +0.000 C 
ATOM     12  C   UNL     1       0.533  12.512  19.174  0.00  0.00    +0.000 C 
ATOM     13  C   UNL     1      -0.865  12.362  18.576  0.00  0.00    +0.000 C 
ATOM     14  C   UNL     1      -1.337  10.912  18.586  0.00  0.00    +0.000 C 
ATOM     15  C   UNL     1      -0.323   9.998  17.901  0.00  0.00    +0.000 C 
ATOM     16  O   UNL     1       0.971   9.669  19.932  0.00  0.00    +0.000 OA
ENDBRANCH   1   3
BRANCH   1  17
ATOM     17  S   UNL     1       4.741   4.350  19.095  0.00  0.00    +0.000 S 
ATOM     18  O   UNL     1       4.950   3.013  19.604  0.00  0.00    +0.000 OA
ATOM     19  O   UNL     1       5.334   5.506  19.738  0.00  0.00    +0.000 OA
BRANCH  17  26
ATOM     20  O   UNL     1       8.552   5.859  12.967  0.00  0.00    +0.000 OA
ATOM     21  C   UNL     1       7.782   5.452  13.821  0.00  0.00    +0.000 A 
ATOM     22  N   UNL     1       6.732   4.590  13.594  0.00  0.00    +0.000 N 
ATOM     23  C   UNL     1       6.100   4.375  14.784  0.00  0.00    +0.000 A 
ATOM     24  C   UNL     1       5.006   3.600  15.093  0.00  0.00    +0.000 A 
ATOM     25  C   UNL     1       4.593   3.596  16.431  0.00  0.00    +0.000 A 
ATOM     26  C   UNL     1       5.276   4.378  17.392  0.00  0.00    +0.000 A 
ATOM     27  C   UNL     1       6.402   5.142  17.046  0.00  0.00    +0.000 A 
ATOM     28  C   UNL     1       6.783   5.121  15.722  0.00  0.00    +0.000 A 
ATOM     29  O   UNL     1       7.851   5.814  15.176  0.00  0.00    +0.000 OA
ATOM     30  H   UNL     1       6.511   4.210  12.689  0.00  0.00    +0.000 HD
ENDBRANCH  17  26
ENDBRANCH   1  17
TORSDOF 3
ENDMDL
MODEL 6
REMARK VINA RESULT:      -8.7      1.262      2.103
REMARK  Name = 
REMARK  3 active torsions:
REMARK  status: ('A' for Active; 'I' for Inactive)
REMARK    1  A    between atoms: C_7  and  S_8
REMARK    2  A    between atoms: S_8  and  N_11
REMARK    3  A    between atoms: N_11  and  C_12
REMARK                            x       y       z     vdW  Elec       q    Type
REMARK                         _______ _______ _______ _____ _____    ______ ____
ROOT
ATOM      1  N   UNL     1       3.439   4.345  19.525  0.00  0.00    +0.000 N 
ATOM      2  H   UNL     1       4.359   4.209  19.941  0.00  0.00    +0.000 HD
ENDROOT
BRANCH   1   3
ATOM      3  C   UNL     1       2.821   5.612  19.709  0.00  0.00    +0.000 A 
ATOM      4  C   UNL     1       1.967   5.807  20.809  0.00  0.00    +0.000 A 
ATOM      5  C   UNL     1       1.315   7.027  20.990  0.00  0.00    +0.000 A 
ATOM      6  C   UNL     1       1.505   7.998  20.033  0.00  0.00    +0.000 A 
ATOM      7  C   UNL     1       2.336   7.809  18.952  0.00  0.00    +0.000 A 
ATOM      8  C   UNL     1       3.036   6.632  18.774  0.00  0.00    +0.000 A 
ATOM      9  O   UNL     1       2.311   8.879  18.104  0.00  0.00    +0.000 OA
ATOM     10  C   UNL     1       1.211   9.649  18.659  0.00  0.00    +0.000 C 
ATOM     11  C   UNL     1       1.588  11.136  18.707  0.00  0.00    +0.000 C 
ATOM     12  C   UNL     1       0.414  12.016  19.148  0.00  0.00    +0.000 C 
ATOM     13  C   UNL     1      -0.833  11.781  18.298  0.00  0.00    +0.000 C 
ATOM     14  C   UNL     1      -1.207  10.304  18.231  0.00  0.00    +0.000 C 
ATOM     15  C   UNL     1      -0.028   9.458  17.759  0.00  0.00    +0.000 C 
ATOM     16  O   UNL     1       0.877   9.203  20.000  0.00  0.00    +0.000 OA
ENDBRANCH   1   3
BRANCH   1  17
ATOM     17  S   UNL     1       3.263   3.529  18.060  0.00  0.00    +0.000 S 
ATOM     18  O   UNL     1       2.081   4.007  17.379  0.00  0.00    +0.000 OA
ATOM     19  O   UNL     1       3.448   2.123  18.359  0.00  0.00    +0.000 OA
BRANCH  17  26
ATOM     20  O   UNL     1       7.775   5.025  12.425  0.00  0.00    +0.000 OA
ATOM     21  C   UNL     1       7.223   4.879  13.504  0.00  0.00    +0.000 A 
ATOM     22  N   UNL     1       7.779   5.191  14.725  0.00  0.00    +0.000 N 
ATOM     23  C   UNL     1       6.868   4.881  15.692  0.00  0.00    +0.000 A 
ATOM     24  C   UNL     1       6.934   5.003  17.061  0.00  0.00    +0.000 A 
ATOM     25  C   UNL     1       5.813   4.584  17.787  0.00  0.00    +0.000 A 
ATOM     26  C   UNL     1       4.688   4.046  17.117  0.00  0.00    +0.000 A 
ATOM     27  C   UNL     1       4.646   3.955  15.717  0.00  0.00    +0.000 A 
ATOM     28  C   UNL     1       5.764   4.380  15.034  0.00  0.00    +0.000 A 
ATOM     29  O   UNL     1       5.929   4.358  13.658  0.00  0.00    +0.000 OA
ATOM     30  H   UNL     1       8.701   5.579  14.833  0.00  0.00    +0.000 HD
ENDBRANCH  17  26
ENDBRANCH   1  17
TORSDOF 3
ENDMDL
MODEL 7
REMARK VINA RESULT:      -8.7      2.152      3.009
REMARK  Name = 
REMARK  3 active torsions:
REMARK  status: ('A' for Active; 'I' for Inactive)
REMARK    1  A    between atoms: C_7  and  S_8
REMARK    2  A    between atoms: S_8  and  N_11
REMARK    3  A    between atoms: N_11  and  C_12
REMARK                            x       y       z     vdW  Elec       q    Type
REMARK                         _______ _______ _______ _____ _____    ______ ____
ROOT
ATOM      1  N   UNL     1       2.198   3.544  18.796  0.00  0.00    +0.000 N 
ATOM      2  H   UNL     1       1.448   2.948  19.143  0.00  0.00    +0.000 HD
ENDROOT
BRANCH   1   3
ATOM      3  C   UNL     1       2.116   4.933  19.087  0.00  0.00    +0.000 A 
ATOM      4  C   UNL     1       1.907   5.346  20.414  0.00  0.00    +0.000 A 
ATOM      5  C   UNL     1       1.782   6.701  20.722  0.00  0.00    +0.000 A 
ATOM      6  C   UNL     1       1.823   7.596  19.676  0.00  0.00    +0.000 A 
ATOM      7  C   UNL     1       2.022   7.195  18.375  0.00  0.00    +0.000 A 
ATOM      8  C   UNL     1       2.202   5.866  18.047  0.00  0.00    +0.000 A 
ATOM      9  O   UNL     1       1.954   8.247  17.507  0.00  0.00    +0.000 OA
ATOM     10  C   UNL     1       1.471   9.301  18.384  0.00  0.00    +0.000 C 
ATOM     11  C   UNL     1       2.251  10.597  18.118  0.00  0.00    +0.000 C 
ATOM     12  C   UNL     1       1.689  11.781  18.911  0.00  0.00    +0.000 C 
ATOM     13  C   UNL     1       0.190  11.970  18.680  0.00  0.00    +0.000 C 
ATOM     14  C   UNL     1      -0.591  10.683  18.926  0.00  0.00    +0.000 C 
ATOM     15  C   UNL     1      -0.027   9.530  18.099  0.00  0.00    +0.000 C 
ATOM     16  O   UNL     1       1.623   8.937  19.782  0.00  0.00    +0.000 OA
ENDBRANCH   1   3
BRANCH   1  17
ATOM     17  S   UNL     1       3.695   2.770  18.804  0.00  0.00    +0.000 S 
ATOM     18  O   UNL     1       3.633   1.586  17.976  0.00  0.00    +0.000 OA
ATOM     19  O   UNL     1       4.105   2.702  20.193  0.00  0.00    +0.000 OA
BRANCH  17  26
ATOM     20  O   UNL     1       8.460   8.284  17.690  0.00  0.00    +0.000 OA
ATOM     21  C   UNL     1       7.694   7.337  17.614  0.00  0.00    +0.000 A 
ATOM     22  N   UNL     1       7.337   6.700  16.446  0.00  0.00    +0.000 N 
ATOM     23  C   UNL     1       6.462   5.703  16.762  0.00  0.00    +0.000 A 
ATOM     24  C   UNL     1       5.820   4.784  15.963  0.00  0.00    +0.000 A 
ATOM     25  C   UNL     1       4.966   3.879  16.604  0.00  0.00    +0.000 A 
ATOM     26  C   UNL     1       4.778   3.942  18.005  0.00  0.00    +0.000 A 
ATOM     27  C   UNL     1       5.466   4.879  18.792  0.00  0.00    +0.000 A 
ATOM     28  C   UNL     1       6.301   5.753  18.131  0.00  0.00    +0.000 A 
ATOM     29  O   UNL     1       7.053   6.757  18.719  0.00  0.00    +0.000 OA
ATOM     30  H   UNL     1       7.689   6.962  15.540  0.00  0.00    +0.000 HD
ENDBRANCH  17  26
ENDBRANCH   1  17
TORSDOF 3
ENDMDL
MODEL 8
REMARK VINA RESULT:      -8.5      1.154      2.037
REMARK  Name = 
REMARK  3 active torsions:
REMARK  status: ('A' for Active; 'I' for Inactive)
REMARK    1  A    between atoms: C_7  and  S_8
REMARK    2  A    between atoms: S_8  and  N_11
REMARK    3  A    between atoms: N_11  and  C_12
REMARK                            x       y       z     vdW  Elec       q    Type
REMARK                         _______ _______ _______ _____ _____    ______ ____
ROOT
ATOM      1  N   UNL     1       3.327   6.267  19.934  0.00  0.00    +0.000 N 
ATOM      2  H   UNL     1       4.299   6.567  19.991  0.00  0.00    +0.000 HD
ENDROOT
BRANCH   1   3
ATOM      3  C   UNL     1       2.329   7.278  19.976  0.00  0.00    +0.000 A 
ATOM      4  C   UNL     1       1.419   7.302  21.048  0.00  0.00    +0.000 A 
ATOM      5  C   UNL     1       0.404   8.258  21.093  0.00  0.00    +0.000 A 
ATOM      6  C   UNL     1       0.305   9.131  20.033  0.00  0.00    +0.000 A 
ATOM      7  C   UNL     1       1.190   9.107  18.979  0.00  0.00    +0.000 A 
ATOM      8  C   UNL     1       2.237   8.208  18.933  0.00  0.00    +0.000 A 
ATOM      9  O   UNL     1       0.853  10.016  18.017  0.00  0.00    +0.000 OA
ATOM     10  C   UNL     1      -0.455  10.443  18.484  0.00  0.00    +0.000 C 
ATOM     11  C   UNL     1      -0.577  11.969  18.365  0.00  0.00    +0.000 C 
ATOM     12  C   UNL     1      -1.987  12.463  18.707  0.00  0.00    +0.000 C 
ATOM     13  C   UNL     1      -3.062  11.750  17.890  0.00  0.00    +0.000 C 
ATOM     14  C   UNL     1      -2.939  10.232  17.988  0.00  0.00    +0.000 C 
ATOM     15  C   UNL     1      -1.534   9.768  17.612  0.00  0.00    +0.000 C 
ATOM     16  O   UNL     1      -0.675  10.058  19.867  0.00  0.00    +0.000 OA
ENDBRANCH   1   3
BRANCH   1  17
ATOM     17  S   UNL     1       3.122   4.925  18.936  0.00  0.00    +0.000 S 
ATOM     18  O   UNL     1       1.884   5.053  18.200  0.00  0.00    +0.000 OA
ATOM     19  O   UNL     1       3.395   3.765  19.761  0.00  0.00    +0.000 OA
BRANCH  17  26
ATOM     20  O   UNL     1       7.166   4.351  12.799  0.00  0.00    +0.000 OA
ATOM     21  C   UNL     1       6.704   4.582  13.904  0.00  0.00    +0.000 A 
ATOM     22  N   UNL     1       7.362   5.252  14.912  0.00  0.00    +0.000 N 
ATOM     23  C   UNL     1       6.531   5.305  15.992  0.00  0.00    +0.000 A 
ATOM     24  C   UNL     1       6.711   5.862  17.238  0.00  0.00    +0.000 A 
ATOM     25  C   UNL     1       5.650   5.741  18.143  0.00  0.00    +0.000 A 
ATOM     26  C   UNL     1       4.468   5.056  17.771  0.00  0.00    +0.000 A 
ATOM     27  C   UNL     1       4.310   4.519  16.485  0.00  0.00    +0.000 A 
ATOM     28  C   UNL     1       5.372   4.658  15.618  0.00  0.00    +0.000 A 
ATOM     29  O   UNL     1       5.422   4.186  14.316  0.00  0.00    +0.000 OA
ATOM     30  H   UNL     1       8.293   5.622  14.818  0.00  0.00    +0.000 HD
ENDBRANCH  17  26
ENDBRANCH   1  17
TORSDOF 3
ENDMDL
MODEL 9
REMARK VINA RESULT:      -8.5      4.331     10.315
REMARK  Name = 
REMARK  3 active torsions:
REMARK  status: ('A' for Active; 'I' for Inactive)
REMARK    1  A    between atoms: C_7  and  S_8
REMARK    2  A    between atoms: S_8  and  N_11
REMARK    3  A    between atoms: N_11  and  C_12
REMARK                            x       y       z     vdW  Elec       q    Type
REMARK                         _______ _______ _______ _____ _____    ______ ____
ROOT
ATOM      1  N   UNL     1      -0.323  10.697  20.233  0.00  0.00    +0.000 N 
ATOM      2  H   UNL     1      -1.272  10.678  19.862  0.00  0.00    +0.000 HD
ENDROOT
BRANCH   1   3
ATOM      3  C   UNL     1       0.613   9.784  19.674  0.00  0.00    +0.000 A 
ATOM      4  C   UNL     1       1.042   9.964  18.348  0.00  0.00    +0.000 A 
ATOM      5  C   UNL     1       1.928   9.060  17.762  0.00  0.00    +0.000 A 
ATOM      6  C   UNL     1       2.319   7.975  18.514  0.00  0.00    +0.000 A 
ATOM      7  C   UNL     1       1.897   7.793  19.812  0.00  0.00    +0.000 A 
ATOM      8  C   UNL     1       1.063   8.698  20.436  0.00  0.00    +0.000 A 
ATOM      9  O   UNL     1       2.357   6.616  20.330  0.00  0.00    +0.000 OA
ATOM     10  C   UNL     1       2.917   5.989  19.145  0.00  0.00    +0.000 C 
ATOM     11  C   UNL     1       4.275   5.358  19.483  0.00  0.00    +0.000 C 
ATOM     12  C   UNL     1       4.848   4.557  18.308  0.00  0.00    +0.000 C 
ATOM     13  C   UNL     1       3.860   3.516  17.785  0.00  0.00    +0.000 C 
ATOM     14  C   UNL     1       2.502   4.131  17.461  0.00  0.00    +0.000 C 
ATOM     15  C   UNL     1       1.943   4.894  18.660  0.00  0.00    +0.000 C 
ATOM     16  O   UNL     1       3.097   6.951  18.072  0.00  0.00    +0.000 OA
ENDBRANCH   1   3
BRANCH   1  17
ATOM     17  S   UNL     1       0.172  12.248  20.668  0.00  0.00    +0.000 S 
ATOM     18  O   UNL     1       0.093  13.122  19.519  0.00  0.00    +0.000 OA
ATOM     19  O   UNL     1       1.407  12.082  21.410  0.00  0.00    +0.000 OA
BRANCH  17  26
ATOM     20  O   UNL     1      -6.221  12.945  24.273  0.00  0.00    +0.000 OA
ATOM     21  C   UNL     1      -5.073  12.993  23.862  0.00  0.00    +0.000 A 
ATOM     22  N   UNL     1      -4.069  13.759  24.411  0.00  0.00    +0.000 N 
ATOM     23  C   UNL     1      -2.937  13.556  23.677  0.00  0.00    +0.000 A 
ATOM     24  C   UNL     1      -1.671  14.081  23.813  0.00  0.00    +0.000 A 
ATOM     25  C   UNL     1      -0.714  13.669  22.878  0.00  0.00    +0.000 A 
ATOM     26  C   UNL     1      -1.067  12.770  21.843  0.00  0.00    +0.000 A 
ATOM     27  C   UNL     1      -2.362  12.238  21.746  0.00  0.00    +0.000 A 
ATOM     28  C   UNL     1      -3.278  12.662  22.684  0.00  0.00    +0.000 A 
ATOM     29  O   UNL     1      -4.606  12.271  22.753  0.00  0.00    +0.000 OA
ATOM     30  H   UNL     1      -4.196  14.350  25.216  0.00  0.00    +0.000 HD
ENDBRANCH  17  26
ENDBRANCH   1  17
TORSDOF 3
ENDMDL
