MODEL 1
REMARK VINA RESULT:      -8.6      0.000      0.000
REMARK  Name = 
REMARK  9 active torsions:
REMARK  status: ('A' for Active; 'I' for Inactive)
REMARK    1  A    between atoms: C_1  and  C_2
REMARK    2  A    between atoms: C_2  and  N_3
REMARK    3  A    between atoms: C_2  and  C_7
REMARK    4  A    between atoms: C_12  and  C_13
REMARK    5  A    between atoms: C_16  and  O_17
REMARK    6  A    between atoms: O_17  and  C_18
REMARK    7  A    between atoms: C_22  and  O_23
REMARK    8  A    between atoms: O_23  and  C_24
REMARK    9  A    between atoms: C_24  and  C_25
REMARK                            x       y       z     vdW  Elec       q    Type
REMARK                         _______ _______ _______ _____ _____    ______ ____
ROOT
ATOM      1  C   UNL     1       5.289   5.104  15.777  0.00  0.00    +0.000 A 
ATOM      2  C   UNL     1       4.659   3.964  16.325  0.00  0.00    +0.000 A 
ATOM      3  C   UNL     1       3.702   4.057  17.349  0.00  0.00    +0.000 A 
ATOM      4  C   UNL     1       3.372   5.327  17.825  0.00  0.00    +0.000 A 
ATOM      5  N   UNL     1       2.474   5.730  18.783  0.00  0.00    +0.000 NA
ATOM      6  C   UNL     1       2.590   7.046  18.785  0.00  0.00    +0.000 A 
ATOM      7  O   UNL     1       3.512   7.539  17.894  0.00  0.00    +0.000 OA
ATOM      8  C   UNL     1       4.006   6.428  17.278  0.00  0.00    +0.000 A 
ATOM      9  C   UNL     1       4.961   6.384  16.266  0.00  0.00    +0.000 A 
ENDROOT
BRANCH   6  10
ATOM     10  C   UNL     1       1.904   8.030  19.607  0.00  0.00    +0.000 A 
ATOM     11  C   UNL     1       1.459   7.728  20.899  0.00  0.00    +0.000 A 
ATOM     12  C   UNL     1       0.874   8.721  21.690  0.00  0.00    +0.000 A 
ATOM     13  C   UNL     1       0.755   9.995  21.155  0.00  0.00    +0.000 A 
ATOM     14  N   UNL     1       1.105  10.302  19.886  0.00  0.00    +0.000 NA
ATOM     15  C   UNL     1       1.683   9.324  19.154  0.00  0.00    +0.000 A 
BRANCH  13  16
ATOM     16  O   UNL     1       0.272  10.999  21.986  0.00  0.00    +0.000 OA
BRANCH  16  17
ATOM     17  C   UNL     1      -0.930  11.584  21.635  0.00  0.00    +0.000 A 
ATOM     18  C   UNL     1      -1.596  12.304  22.626  0.00  0.00    +0.000 A 
ATOM     19  C   UNL     1      -2.806  12.933  22.327  0.00  0.00    +0.000 A 
ATOM     20  C   UNL     1      -3.351  12.838  21.042  0.00  0.00    +0.000 A 
ATOM     21  C   UNL     1      -2.692  12.114  20.048  0.00  0.00    +0.000 A 
ATOM     22  C   UNL     1      -1.460  11.530  20.339  0.00  0.00    +0.000 A 
BRANCH  21  23
ATOM     23  O   UNL     1      -3.313  12.076  18.828  0.00  0.00    +0.000 OA
BRANCH  23  24
ATOM     24  C   UNL     1      -2.519  11.574  17.748  0.00  0.00    +0.000 C 
BRANCH  24  25
ATOM     25  C   UNL     1      -3.367  10.662  16.909  0.00  0.00    +0.000 C 
ATOM     26  C   UNL     1      -3.540  10.920  15.434  0.00  0.00    +0.000 C 
ATOM     27  C   UNL     1      -2.718   9.750  15.894  0.00  0.00    +0.000 C 
ENDBRANCH  24  25
ENDBRANCH  23  24
ENDBRANCH  21  23
ENDBRANCH  16  17
ENDBRANCH  13  16
ENDBRANCH   6  10
BRANCH   1  29
ATOM     28  C   UNL     1       7.683   4.916  15.096  0.00  0.00    +0.000 C 
ATOM     29  C   UNL     1       6.236   4.904  14.598  0.00  0.00    +0.000 C 
BRANCH  29  30
ATOM     30  N   UNL     1       5.945   3.699  13.839  0.00  0.00    +0.000 N 
ATOM     31  C   UNL     1       6.439   3.512  12.584  0.00  0.00    +0.000 C 
ATOM     32  N   UNL     1       6.063   2.332  12.036  0.00  0.00    +0.000 N 
ATOM     33  O   UNL     1       7.111   4.319  11.959  0.00  0.00    +0.000 OA
ATOM     34  H   UNL     1       5.568   2.896  14.310  0.00  0.00    +0.000 HD
ATOM     35  H   UNL     1       5.860   1.535  12.616  0.00  0.00    +0.000 HD
ATOM     36  H   UNL     1       6.471   2.137  11.129  0.00  0.00    +0.000 HD
ENDBRANCH  29  30
ENDBRANCH   1  29
TORSDOF 8
ENDMDL
MODEL 2
REMARK VINA RESULT:      -8.5      3.033     11.205
REMARK  Name = 
REMARK  9 active torsions:
REMARK  status: ('A' for Active; 'I' for Inactive)
REMARK    1  A    between atoms: C_1  and  C_2
REMARK    2  A    between atoms: C_2  and  N_3
REMARK    3  A    between atoms: C_2  and  C_7
REMARK    4  A    between atoms: C_12  and  C_13
REMARK    5  A    between atoms: C_16  and  O_17
REMARK    6  A    between atoms: O_17  and  C_18
REMARK    7  A    between atoms: C_22  and  O_23
REMARK    8  A    between atoms: O_23  and  C_24
REMARK    9  A    between atoms: C_24  and  C_25
REMARK                            x       y       z     vdW  Elec       q    Type
REMARK                         _______ _______ _______ _____ _____    ______ ____
ROOT
ATOM      1  C   UNL     1      -1.780  12.763  21.137  0.00  0.00    +0.000 A 
ATOM      2  C   UNL     1      -1.187  13.527  20.106  0.00  0.00    +0.000 A 
ATOM      3  C   UNL     1      -0.210  12.996  19.248  0.00  0.00    +0.000 A 
ATOM      4  C   UNL     1       0.171  11.665  19.432  0.00  0.00    +0.000 A 
ATOM      5  N   UNL     1       1.066  10.877  18.751  0.00  0.00    +0.000 NA
ATOM      6  C   UNL     1       0.989   9.712  19.369  0.00  0.00    +0.000 A 
ATOM      7  O   UNL     1       0.106   9.682  20.422  0.00  0.00    +0.000 OA
ATOM      8  C   UNL     1      -0.418  10.940  20.452  0.00  0.00    +0.000 A 
ATOM      9  C   UNL     1      -1.386  11.424  21.327  0.00  0.00    +0.000 A 
ENDROOT
BRANCH   6  10
ATOM     10  C   UNL     1       1.719   8.482  19.110  0.00  0.00    +0.000 A 
ATOM     11  C   UNL     1       2.438   8.288  17.925  0.00  0.00    +0.000 A 
ATOM     12  C   UNL     1       3.193   7.126  17.743  0.00  0.00    +0.000 A 
ATOM     13  C   UNL     1       3.202   6.188  18.766  0.00  0.00    +0.000 A 
ATOM     14  N   UNL     1       2.460   6.308  19.888  0.00  0.00    +0.000 NA
ATOM     15  C   UNL     1       1.755   7.451  20.040  0.00  0.00    +0.000 A 
BRANCH  13  16
ATOM     16  O   UNL     1       4.039   5.088  18.622  0.00  0.00    +0.000 OA
BRANCH  16  17
ATOM     17  C   UNL     1       5.146   5.241  17.807  0.00  0.00    +0.000 A 
ATOM     18  C   UNL     1       6.314   5.707  18.409  0.00  0.00    +0.000 A 
ATOM     19  C   UNL     1       7.470   5.864  17.643  0.00  0.00    +0.000 A 
ATOM     20  C   UNL     1       7.456   5.561  16.277  0.00  0.00    +0.000 A 
ATOM     21  C   UNL     1       6.289   5.101  15.668  0.00  0.00    +0.000 A 
ATOM     22  C   UNL     1       5.152   4.898  16.449  0.00  0.00    +0.000 A 
BRANCH  21  23
ATOM     23  O   UNL     1       6.379   4.841  14.326  0.00  0.00    +0.000 OA
BRANCH  23  24
ATOM     24  C   UNL     1       5.705   3.660  13.881  0.00  0.00    +0.000 C 
BRANCH  24  25
ATOM     25  C   UNL     1       5.792   3.591  12.383  0.00  0.00    +0.000 C 
ATOM     26  C   UNL     1       5.794   2.259  11.677  0.00  0.00    +0.000 C 
ATOM     27  C   UNL     1       4.592   3.154  11.577  0.00  0.00    +0.000 C 
ENDBRANCH  24  25
ENDBRANCH  23  24
ENDBRANCH  21  23
ENDBRANCH  16  17
ENDBRANCH  13  16
ENDBRANCH   6  10
BRANCH   1  29
ATOM     28  C   UNL     1      -3.863  14.132  21.005  0.00  0.00    +0.000 C 
ATOM     29  C   UNL     1      -2.905  13.401  21.947  0.00  0.00    +0.000 C 
BRANCH  29  30
ATOM     30  N   UNL     1      -3.609  12.445  22.785  0.00  0.00    +0.000 N 
ATOM     31  C   UNL     1      -4.069  12.785  24.020  0.00  0.00    +0.000 C 
ATOM     32  N   UNL     1      -4.700  11.765  24.651  0.00  0.00    +0.000 N 
ATOM     33  O   UNL     1      -3.907  13.866  24.564  0.00  0.00    +0.000 OA
ATOM     34  H   UNL     1      -3.962  11.596  22.378  0.00  0.00    +0.000 HD
ATOM     35  H   UNL     1      -5.165  11.043  24.127  0.00  0.00    +0.000 HD
ATOM     36  H   UNL     1      -5.111  12.009  25.544  0.00  0.00    +0.000 HD
ENDBRANCH  29  30
ENDBRANCH   1  29
TORSDOF 8
ENDMDL
MODEL 3
REMARK VINA RESULT:      -8.5      2.342      3.352
REMARK  Name = 
REMARK  9 active torsions:
REMARK  status: ('A' for Active; 'I' for Inactive)
REMARK    1  A    between atoms: C_1  and  C_2
REMARK    2  A    between atoms: C_2  and  N_3
REMARK    3  A    between atoms: C_2  and  C_7
REMARK    4  A    between atoms: C_12  and  C_13
REMARK    5  A    between atoms: C_16  and  O_17
REMARK    6  A    between atoms: O_17  and  C_18
REMARK    7  A    between atoms: C_22  and  O_23
REMARK    8  A    between atoms: O_23  and  C_24
REMARK    9  A    between atoms: C_24  and  C_25
REMARK                            x       y       z     vdW  Elec       q    Type
REMARK                         _______ _______ _______ _____ _____    ______ ____
ROOT
ATOM      1  C   UNL     1       4.178   5.143  18.160  0.00  0.00    +0.000 A 
ATOM      2  C   UNL     1       3.790   4.677  19.437  0.00  0.00    +0.000 A 
ATOM      3  C   UNL     1       2.942   5.417  20.278  0.00  0.00    +0.000 A 
ATOM      4  C   UNL     1       2.473   6.649  19.817  0.00  0.00    +0.000 A 
ATOM      5  N   UNL     1       1.630   7.569  20.390  0.00  0.00    +0.000 NA
ATOM      6  C   UNL     1       1.542   8.522  19.479  0.00  0.00    +0.000 A 
ATOM      7  O   UNL     1       2.281   8.294  18.343  0.00  0.00    +0.000 OA
ATOM      8  C   UNL     1       2.872   7.086  18.567  0.00  0.00    +0.000 A 
ATOM      9  C   UNL     1       3.711   6.390  17.702  0.00  0.00    +0.000 A 
ENDROOT
BRANCH   6  10
ATOM     10  C   UNL     1       0.804   9.773  19.523  0.00  0.00    +0.000 A 
ATOM     11  C   UNL     1      -0.129  10.113  18.536  0.00  0.00    +0.000 A 
ATOM     12  C   UNL     1      -0.878  11.287  18.653  0.00  0.00    +0.000 A 
ATOM     13  C   UNL     1      -0.666  12.088  19.766  0.00  0.00    +0.000 A 
ATOM     14  N   UNL     1       0.277  11.828  20.697  0.00  0.00    +0.000 NA
ATOM     15  C   UNL     1       0.973  10.677  20.564  0.00  0.00    +0.000 A 
BRANCH  13  16
ATOM     16  O   UNL     1      -1.491  13.195  19.927  0.00  0.00    +0.000 OA
BRANCH  16  17
ATOM     17  C   UNL     1      -2.614  13.035  20.717  0.00  0.00    +0.000 A 
ATOM     18  C   UNL     1      -2.407  12.896  22.089  0.00  0.00    +0.000 A 
ATOM     19  C   UNL     1      -3.502  12.751  22.942  0.00  0.00    +0.000 A 
ATOM     20  C   UNL     1      -4.802  12.738  22.422  0.00  0.00    +0.000 A 
ATOM     21  C   UNL     1      -5.014  12.870  21.050  0.00  0.00    +0.000 A 
ATOM     22  C   UNL     1      -3.919  13.065  20.210  0.00  0.00    +0.000 A 
BRANCH  21  23
ATOM     23  O   UNL     1      -6.322  12.836  20.644  0.00  0.00    +0.000 OA
BRANCH  23  24
ATOM     24  C   UNL     1      -7.082  11.715  21.106  0.00  0.00    +0.000 C 
BRANCH  24  25
ATOM     25  C   UNL     1      -7.521  10.908  19.918  0.00  0.00    +0.000 C 
ATOM     26  C   UNL     1      -6.526  10.492  18.865  0.00  0.00    +0.000 C 
ATOM     27  C   UNL     1      -7.103   9.462  19.793  0.00  0.00    +0.000 C 
ENDBRANCH  24  25
ENDBRANCH  23  24
ENDBRANCH  21  23
ENDBRANCH  16  17
ENDBRANCH  13  16
ENDBRANCH   6  10
BRANCH   1  29
ATOM     28  C   UNL     1       4.140   3.083  16.751  0.00  0.00    +0.000 C 
ATOM     29  C   UNL     1       5.017   4.218  17.283  0.00  0.00    +0.000 C 
BRANCH  29  30
ATOM     30  N   UNL     1       5.690   4.922  16.204  0.00  0.00    +0.000 N 
ATOM     31  C   UNL     1       7.047   4.920  16.091  0.00  0.00    +0.000 C 
ATOM     32  N   UNL     1       7.492   5.626  15.024  0.00  0.00    +0.000 N 
ATOM     33  O   UNL     1       7.823   4.394  16.874  0.00  0.00    +0.000 OA
ATOM     34  H   UNL     1       5.161   5.226  15.406  0.00  0.00    +0.000 HD
ATOM     35  H   UNL     1       6.923   5.731  14.201  0.00  0.00    +0.000 HD
ATOM     36  H   UNL     1       8.493   5.586  14.877  0.00  0.00    +0.000 HD
ENDBRANCH  29  30
ENDBRANCH   1  29
TORSDOF 8
ENDMDL
MODEL 4
REMARK VINA RESULT:      -8.4      3.108      4.197
REMARK  Name = 
REMARK  9 active torsions:
REMARK  status: ('A' for Active; 'I' for Inactive)
REMARK    1  A    between atoms: C_1  and  C_2
REMARK    2  A    between atoms: C_2  and  N_3
REMARK    3  A    between atoms: C_2  and  C_7
REMARK    4  A    between atoms: C_12  and  C_13
REMARK    5  A    between atoms: C_16  and  O_17
REMARK    6  A    between atoms: O_17  and  C_18
REMARK    7  A    between atoms: C_22  and  O_23
REMARK    8  A    between atoms: O_23  and  C_24
REMARK    9  A    between atoms: C_24  and  C_25
REMARK                            x       y       z     vdW  Elec       q    Type
REMARK                         _______ _______ _______ _____ _____    ______ ____
ROOT
ATOM      1  C   UNL     1       2.854   5.493  19.112  0.00  0.00    +0.000 A 
ATOM      2  C   UNL     1       2.960   6.265  17.933  0.00  0.00    +0.000 A 
ATOM      3  C   UNL     1       2.496   7.589  17.861  0.00  0.00    +0.000 A 
ATOM      4  C   UNL     1       1.917   8.144  19.003  0.00  0.00    +0.000 A 
ATOM      5  N   UNL     1       1.403   9.395  19.242  0.00  0.00    +0.000 NA
ATOM      6  C   UNL     1       1.016   9.339  20.503  0.00  0.00    +0.000 A 
ATOM      7  O   UNL     1       1.234   8.127  21.113  0.00  0.00    +0.000 OA
ATOM      8  C   UNL     1       1.818   7.367  20.143  0.00  0.00    +0.000 A 
ATOM      9  C   UNL     1       2.260   6.053  20.260  0.00  0.00    +0.000 A 
ENDROOT
BRANCH   6  10
ATOM     10  C   UNL     1       0.376  10.359  21.317  0.00  0.00    +0.000 A 
ATOM     11  C   UNL     1       0.359  11.704  20.932  0.00  0.00    +0.000 A 
ATOM     12  C   UNL     1      -0.334  12.646  21.698  0.00  0.00    +0.000 A 
ATOM     13  C   UNL     1      -0.993  12.202  22.835  0.00  0.00    +0.000 A 
ATOM     14  N   UNL     1      -0.934  10.927  23.276  0.00  0.00    +0.000 NA
ATOM     15  C   UNL     1      -0.271  10.038  22.503  0.00  0.00    +0.000 A 
BRANCH  13  16
ATOM     16  O   UNL     1      -1.767  13.124  23.530  0.00  0.00    +0.000 OA
BRANCH  16  17
ATOM     17  C   UNL     1      -3.011  13.425  23.006  0.00  0.00    +0.000 A 
ATOM     18  C   UNL     1      -3.457  14.738  23.150  0.00  0.00    +0.000 A 
ATOM     19  C   UNL     1      -4.696  15.108  22.625  0.00  0.00    +0.000 A 
ATOM     20  C   UNL     1      -5.491  14.164  21.963  0.00  0.00    +0.000 A 
ATOM     21  C   UNL     1      -5.052  12.848  21.822  0.00  0.00    +0.000 A 
ATOM     22  C   UNL     1      -3.791  12.498  22.304  0.00  0.00    +0.000 A 
BRANCH  21  23
ATOM     23  O   UNL     1      -5.906  12.003  21.165  0.00  0.00    +0.000 OA
BRANCH  23  24
ATOM     24  C   UNL     1      -6.238  12.380  19.825  0.00  0.00    +0.000 C 
BRANCH  24  25
ATOM     25  C   UNL     1      -5.601  11.404  18.878  0.00  0.00    +0.000 C 
ATOM     26  C   UNL     1      -5.434  11.750  17.420  0.00  0.00    +0.000 C 
ATOM     27  C   UNL     1      -4.228  11.686  18.314  0.00  0.00    +0.000 C 
ENDBRANCH  24  25
ENDBRANCH  23  24
ENDBRANCH  21  23
ENDBRANCH  16  17
ENDBRANCH  13  16
ENDBRANCH   6  10
BRANCH   1  29
ATOM     28  C   UNL     1       2.442   3.069  18.678  0.00  0.00    +0.000 C 
ATOM     29  C   UNL     1       3.481   4.102  19.119  0.00  0.00    +0.000 C 
BRANCH  29  30
ATOM     30  N   UNL     1       4.687   4.024  18.309  0.00  0.00    +0.000 N 
ATOM     31  C   UNL     1       5.885   4.473  18.773  0.00  0.00    +0.000 C 
ATOM     32  N   UNL     1       6.892   4.315  17.880  0.00  0.00    +0.000 N 
ATOM     33  O   UNL     1       6.070   5.015  19.852  0.00  0.00    +0.000 OA
ATOM     34  H   UNL     1       4.698   3.436  17.494  0.00  0.00    +0.000 HD
ATOM     35  H   UNL     1       6.866   3.576  17.198  0.00  0.00    +0.000 HD
ATOM     36  H   UNL     1       7.808   4.579  18.225  0.00  0.00    +0.000 HD
ENDBRANCH  29  30
ENDBRANCH   1  29
TORSDOF 8
ENDMDL
MODEL 5
REMARK VINA RESULT:      -8.3      3.156      3.840
REMARK  Name = 
REMARK  9 active torsions:
REMARK  status: ('A' for Active; 'I' for Inactive)
REMARK    1  A    between atoms: C_1  and  C_2
REMARK    2  A    between atoms: C_2  and  N_3
REMARK    3  A    between atoms: C_2  and  C_7
REMARK    4  A    between atoms: C_12  and  C_13
REMARK    5  A    between atoms: C_16  and  O_17
REMARK    6  A    between atoms: O_17  and  C_18
REMARK    7  A    between atoms: C_22  and  O_23
REMARK    8  A    between atoms: O_23  and  C_24
REMARK    9  A    between atoms: C_24  and  C_25
REMARK                            x       y       z     vdW  Elec       q    Type
REMARK                         _______ _______ _______ _____ _____    ______ ____
ROOT
ATOM      1  C   UNL     1       3.544   5.091  19.039  0.00  0.00    +0.000 A 
ATOM      2  C   UNL     1       3.493   5.723  17.776  0.00  0.00    +0.000 A 
ATOM      3  C   UNL     1       2.872   6.969  17.588  0.00  0.00    +0.000 A 
ATOM      4  C   UNL     1       2.298   7.590  18.698  0.00  0.00    +0.000 A 
ATOM      5  N   UNL     1       1.654   8.797  18.829  0.00  0.00    +0.000 NA
ATOM      6  C   UNL     1       1.348   8.849  20.113  0.00  0.00    +0.000 A 
ATOM      7  O   UNL     1       1.741   7.750  20.838  0.00  0.00    +0.000 OA
ATOM      8  C   UNL     1       2.355   6.949  19.922  0.00  0.00    +0.000 A 
ATOM      9  C   UNL     1       2.955   5.715  20.155  0.00  0.00    +0.000 A 
ENDROOT
BRANCH   6  10
ATOM     10  C   UNL     1       0.639   9.883  20.850  0.00  0.00    +0.000 A 
ATOM     11  C   UNL     1      -0.184   9.577  21.939  0.00  0.00    +0.000 A 
ATOM     12  C   UNL     1      -0.787  10.603  22.673  0.00  0.00    +0.000 A 
ATOM     13  C   UNL     1      -0.542  11.912  22.287  0.00  0.00    +0.000 A 
ATOM     14  N   UNL     1       0.185  12.239  21.196  0.00  0.00    +0.000 NA
ATOM     15  C   UNL     1       0.769  11.225  20.519  0.00  0.00    +0.000 A 
BRANCH  13  16
ATOM     16  O   UNL     1      -1.058  12.925  23.086  0.00  0.00    +0.000 OA
BRANCH  16  17
ATOM     17  C   UNL     1      -2.430  13.094  23.082  0.00  0.00    +0.000 A 
ATOM     18  C   UNL     1      -2.971  13.899  24.085  0.00  0.00    +0.000 A 
ATOM     19  C   UNL     1      -4.348  14.122  24.123  0.00  0.00    +0.000 A 
ATOM     20  C   UNL     1      -5.183  13.537  23.164  0.00  0.00    +0.000 A 
ATOM     21  C   UNL     1      -4.648  12.726  22.163  0.00  0.00    +0.000 A 
ATOM     22  C   UNL     1      -3.267  12.548  22.101  0.00  0.00    +0.000 A 
BRANCH  21  23
ATOM     23  O   UNL     1      -5.551  12.196  21.280  0.00  0.00    +0.000 OA
BRANCH  23  24
ATOM     24  C   UNL     1      -5.598  12.825  19.995  0.00  0.00    +0.000 C 
BRANCH  24  25
ATOM     25  C   UNL     1      -5.554  11.761  18.936  0.00  0.00    +0.000 C 
ATOM     26  C   UNL     1      -6.698  11.596  17.969  0.00  0.00    +0.000 C 
ATOM     27  C   UNL     1      -5.387  12.148  17.485  0.00  0.00    +0.000 C 
ENDBRANCH  24  25
ENDBRANCH  23  24
ENDBRANCH  21  23
ENDBRANCH  16  17
ENDBRANCH  13  16
ENDBRANCH   6  10
BRANCH   1  29
ATOM     28  C   UNL     1       3.455   2.618  18.706  0.00  0.00    +0.000 C 
ATOM     29  C   UNL     1       4.331   3.789  19.158  0.00  0.00    +0.000 C 
BRANCH  29  30
ATOM     30  N   UNL     1       5.591   3.822  18.433  0.00  0.00    +0.000 N 
ATOM     31  C   UNL     1       6.643   4.567  18.870  0.00  0.00    +0.000 C 
ATOM     32  N   UNL     1       7.730   4.471  18.067  0.00  0.00    +0.000 N 
ATOM     33  O   UNL     1       6.637   5.299  19.848  0.00  0.00    +0.000 OA
ATOM     34  H   UNL     1       5.776   3.127  17.732  0.00  0.00    +0.000 HD
ATOM     35  H   UNL     1       7.897   3.643  17.520  0.00  0.00    +0.000 HD
ATOM     36  H   UNL     1       8.550   4.962  18.404  0.00  0.00    +0.000 HD
ENDBRANCH  29  30
ENDBRANCH   1  29
TORSDOF 8
ENDMDL
MODEL 6
REMARK VINA RESULT:      -8.2      3.173      4.381
REMARK  Name = 
REMARK  9 active torsions:
REMARK  status: ('A' for Active; 'I' for Inactive)
REMARK    1  A    between atoms: C_1  and  C_2
REMARK    2  A    between atoms: C_2  and  N_3
REMARK    3  A    between atoms: C_2  and  C_7
REMARK    4  A    between atoms: C_12  and  C_13
REMARK    5  A    between atoms: C_16  and  O_17
REMARK    6  A    between atoms: O_17  and  C_18
REMARK    7  A    between atoms: C_22  and  O_23
REMARK    8  A    between atoms: O_23  and  C_24
REMARK    9  A    between atoms: C_24  and  C_25
REMARK                            x       y       z     vdW  Elec       q    Type
REMARK                         _______ _______ _______ _____ _____    ______ ____
ROOT
ATOM      1  C   UNL     1       3.901   5.360  18.610  0.00  0.00    +0.000 A 
ATOM      2  C   UNL     1       3.955   6.245  17.509  0.00  0.00    +0.000 A 
ATOM      3  C   UNL     1       3.264   7.467  17.496  0.00  0.00    +0.000 A 
ATOM      4  C   UNL     1       2.507   7.804  18.620  0.00  0.00    +0.000 A 
ATOM      5  N   UNL     1       1.756   8.919  18.905  0.00  0.00    +0.000 NA
ATOM      6  C   UNL     1       1.289   8.679  20.117  0.00  0.00    +0.000 A 
ATOM      7  O   UNL     1       1.677   7.472  20.649  0.00  0.00    +0.000 OA
ATOM      8  C   UNL     1       2.463   6.920  19.682  0.00  0.00    +0.000 A 
ATOM      9  C   UNL     1       3.128   5.698  19.738  0.00  0.00    +0.000 A 
ENDROOT
BRANCH   6  10
ATOM     10  C   UNL     1       0.412   9.491  20.944  0.00  0.00    +0.000 A 
ATOM     11  C   UNL     1       0.333   9.312  22.330  0.00  0.00    +0.000 A 
ATOM     12  C   UNL     1      -0.461  10.164  23.104  0.00  0.00    +0.000 A 
ATOM     13  C   UNL     1      -1.154  11.176  22.456  0.00  0.00    +0.000 A 
ATOM     14  N   UNL     1      -1.159  11.330  21.114  0.00  0.00    +0.000 NA
ATOM     15  C   UNL     1      -0.368  10.501  20.396  0.00  0.00    +0.000 A 
BRANCH  13  16
ATOM     16  O   UNL     1      -1.853  12.082  23.244  0.00  0.00    +0.000 OA
BRANCH  16  17
ATOM     17  C   UNL     1      -1.407  13.391  23.247  0.00  0.00    +0.000 A 
ATOM     18  C   UNL     1      -2.009  14.262  24.155  0.00  0.00    +0.000 A 
ATOM     19  C   UNL     1      -1.588  15.591  24.218  0.00  0.00    +0.000 A 
ATOM     20  C   UNL     1      -0.572  16.050  23.372  0.00  0.00    +0.000 A 
ATOM     21  C   UNL     1       0.029  15.184  22.458  0.00  0.00    +0.000 A 
ATOM     22  C   UNL     1      -0.361  13.846  22.434  0.00  0.00    +0.000 A 
BRANCH  21  23
ATOM     23  O   UNL     1       1.006  15.734  21.671  0.00  0.00    +0.000 OA
BRANCH  23  24
ATOM     24  C   UNL     1       0.604  16.861  20.887  0.00  0.00    +0.000 C 
BRANCH  24  25
ATOM     25  C   UNL     1       0.798  16.533  19.434  0.00  0.00    +0.000 C 
ATOM     26  C   UNL     1       0.224  15.266  18.853  0.00  0.00    +0.000 C 
ATOM     27  C   UNL     1      -0.375  16.593  18.484  0.00  0.00    +0.000 C 
ENDBRANCH  24  25
ENDBRANCH  23  24
ENDBRANCH  21  23
ENDBRANCH  16  17
ENDBRANCH  13  16
ENDBRANCH   6  10
BRANCH   1  29
ATOM     28  C   UNL     1       3.878   2.869  18.456  0.00  0.00    +0.000 C 
ATOM     29  C   UNL     1       4.770   4.106  18.568  0.00  0.00    +0.000 C 
BRANCH  29  30
ATOM     30  N   UNL     1       5.763   4.145  17.507  0.00  0.00    +0.000 N 
ATOM     31  C   UNL     1       7.045   4.533  17.747  0.00  0.00    +0.000 C 
ATOM     32  N   UNL     1       7.825   4.503  16.639  0.00  0.00    +0.000 N 
ATOM     33  O   UNL     1       7.479   4.925  18.820  0.00  0.00    +0.000 OA
ATOM     34  H   UNL     1       5.578   3.673  16.639  0.00  0.00    +0.000 HD
ATOM     35  H   UNL     1       7.630   3.863  15.888  0.00  0.00    +0.000 HD
ATOM     36  H   UNL     1       8.800   4.723  16.802  0.00  0.00    +0.000 HD
ENDBRANCH  29  30
ENDBRANCH   1  29
TORSDOF 8
ENDMDL
MODEL 7
REMARK VINA RESULT:      -8.2      3.094     10.783
REMARK  Name = 
REMARK  9 active torsions:
REMARK  status: ('A' for Active; 'I' for Inactive)
REMARK    1  A    between atoms: C_1  and  C_2
REMARK    2  A    between atoms: C_2  and  N_3
REMARK    3  A    between atoms: C_2  and  C_7
REMARK    4  A    between atoms: C_12  and  C_13
REMARK    5  A    between atoms: C_16  and  O_17
REMARK    6  A    between atoms: O_17  and  C_18
REMARK    7  A    between atoms: C_22  and  O_23
REMARK    8  A    between atoms: O_23  and  C_24
REMARK    9  A    between atoms: C_24  and  C_25
REMARK                            x       y       z     vdW  Elec       q    Type
REMARK                         _______ _______ _______ _____ _____    ______ ____
ROOT
ATOM      1  C   UNL     1      -0.768  12.419  21.791  0.00  0.00    +0.000 A 
ATOM      2  C   UNL     1      -1.150  11.682  22.936  0.00  0.00    +0.000 A 
ATOM      3  C   UNL     1      -0.806  10.330  23.105  0.00  0.00    +0.000 A 
ATOM      4  C   UNL     1      -0.058   9.714  22.101  0.00  0.00    +0.000 A 
ATOM      5  N   UNL     1       0.439   8.437  21.995  0.00  0.00    +0.000 NA
ATOM      6  C   UNL     1       1.075   8.445  20.838  0.00  0.00    +0.000 A 
ATOM      7  O   UNL     1       1.024   9.642  20.166  0.00  0.00    +0.000 OA
ATOM      8  C   UNL     1       0.299  10.453  20.987  0.00  0.00    +0.000 A 
ATOM      9  C   UNL     1      -0.021  11.791  20.776  0.00  0.00    +0.000 A 
ENDROOT
BRANCH   6  10
ATOM     10  C   UNL     1       1.790   7.367  20.173  0.00  0.00    +0.000 A 
ATOM     11  C   UNL     1       1.875   6.086  20.731  0.00  0.00    +0.000 A 
ATOM     12  C   UNL     1       2.502   5.054  20.026  0.00  0.00    +0.000 A 
ATOM     13  C   UNL     1       3.025   5.343  18.775  0.00  0.00    +0.000 A 
ATOM     14  N   UNL     1       3.026   6.584  18.240  0.00  0.00    +0.000 NA
ATOM     15  C   UNL     1       2.398   7.555  18.938  0.00  0.00    +0.000 A 
BRANCH  13  16
ATOM     16  O   UNL     1       3.549   4.288  18.038  0.00  0.00    +0.000 OA
BRANCH  16  17
ATOM     17  C   UNL     1       4.775   4.490  17.432  0.00  0.00    +0.000 A 
ATOM     18  C   UNL     1       5.902   4.437  18.251  0.00  0.00    +0.000 A 
ATOM     19  C   UNL     1       7.170   4.614  17.695  0.00  0.00    +0.000 A 
ATOM     20  C   UNL     1       7.309   4.849  16.322  0.00  0.00    +0.000 A 
ATOM     21  C   UNL     1       6.185   4.909  15.498  0.00  0.00    +0.000 A 
ATOM     22  C   UNL     1       4.926   4.681  16.052  0.00  0.00    +0.000 A 
BRANCH  21  23
ATOM     23  O   UNL     1       6.430   5.151  14.173  0.00  0.00    +0.000 OA
BRANCH  23  24
ATOM     24  C   UNL     1       7.064   4.086  13.459  0.00  0.00    +0.000 C 
BRANCH  24  25
ATOM     25  C   UNL     1       6.320   3.856  12.174  0.00  0.00    +0.000 C 
ATOM     26  C   UNL     1       5.883   2.469  11.780  0.00  0.00    +0.000 C 
ATOM     27  C   UNL     1       4.857   3.480  12.206  0.00  0.00    +0.000 C 
ENDBRANCH  24  25
ENDBRANCH  23  24
ENDBRANCH  21  23
ENDBRANCH  16  17
ENDBRANCH  13  16
ENDBRANCH   6  10
BRANCH   1  29
ATOM     28  C   UNL     1      -0.906  14.513  23.143  0.00  0.00    +0.000 C 
ATOM     29  C   UNL     1      -1.102  13.907  21.752  0.00  0.00    +0.000 C 
BRANCH  29  30
ATOM     30  N   UNL     1      -0.343  14.629  20.744  0.00  0.00    +0.000 N 
ATOM     31  C   UNL     1      -0.865  15.706  20.096  0.00  0.00    +0.000 C 
ATOM     32  N   UNL     1      -0.011  16.249  19.195  0.00  0.00    +0.000 N 
ATOM     33  O   UNL     1      -1.998  16.140  20.240  0.00  0.00    +0.000 OA
ATOM     34  H   UNL     1       0.650  14.486  20.676  0.00  0.00    +0.000 HD
ATOM     35  H   UNL     1       0.985  16.176  19.319  0.00  0.00    +0.000 HD
ATOM     36  H   UNL     1      -0.349  17.092  18.746  0.00  0.00    +0.000 HD
ENDBRANCH  29  30
ENDBRANCH   1  29
TORSDOF 8
ENDMDL
MODEL 8
REMARK VINA RESULT:      -8.2      3.980      5.526
REMARK  Name = 
REMARK  9 active torsions:
REMARK  status: ('A' for Active; 'I' for Inactive)
REMARK    1  A    between atoms: C_1  and  C_2
REMARK    2  A    between atoms: C_2  and  N_3
REMARK    3  A    between atoms: C_2  and  C_7
REMARK    4  A    between atoms: C_12  and  C_13
REMARK    5  A    between atoms: C_16  and  O_17
REMARK    6  A    between atoms: O_17  and  C_18
REMARK    7  A    between atoms: C_22  and  O_23
REMARK    8  A    between atoms: O_23  and  C_24
REMARK    9  A    between atoms: C_24  and  C_25
REMARK                            x       y       z     vdW  Elec       q    Type
REMARK                         _______ _______ _______ _____ _____    ______ ____
ROOT
ATOM      1  C   UNL     1       2.589   6.697  19.300  0.00  0.00    +0.000 A 
ATOM      2  C   UNL     1       2.839   7.440  18.124  0.00  0.00    +0.000 A 
ATOM      3  C   UNL     1       2.271   8.706  17.904  0.00  0.00    +0.000 A 
ATOM      4  C   UNL     1       1.440   9.233  18.893  0.00  0.00    +0.000 A 
ATOM      5  N   UNL     1       0.773  10.432  18.973  0.00  0.00    +0.000 NA
ATOM      6  C   UNL     1       0.165  10.374  20.144  0.00  0.00    +0.000 A 
ATOM      7  O   UNL     1       0.381   9.209  20.841  0.00  0.00    +0.000 OA
ATOM      8  C   UNL     1       1.205   8.485  20.033  0.00  0.00    +0.000 A 
ATOM      9  C   UNL     1       1.742   7.228  20.292  0.00  0.00    +0.000 A 
ENDROOT
BRANCH   6  10
ATOM     10  C   UNL     1      -0.710  11.347  20.777  0.00  0.00    +0.000 A 
ATOM     11  C   UNL     1      -1.203  12.456  20.080  0.00  0.00    +0.000 A 
ATOM     12  C   UNL     1      -2.106  13.328  20.696  0.00  0.00    +0.000 A 
ATOM     13  C   UNL     1      -2.487  13.055  22.001  0.00  0.00    +0.000 A 
ATOM     14  N   UNL     1      -1.973  12.038  22.727  0.00  0.00    +0.000 NA
ATOM     15  C   UNL     1      -1.116  11.204  22.097  0.00  0.00    +0.000 A 
BRANCH  13  16
ATOM     16  O   UNL     1      -3.465  13.865  22.567  0.00  0.00    +0.000 OA
BRANCH  16  17
ATOM     17  C   UNL     1      -4.743  13.345  22.651  0.00  0.00    +0.000 A 
ATOM     18  C   UNL     1      -5.279  13.186  23.928  0.00  0.00    +0.000 A 
ATOM     19  C   UNL     1      -6.573  12.683  24.077  0.00  0.00    +0.000 A 
ATOM     20  C   UNL     1      -7.326  12.335  22.950  0.00  0.00    +0.000 A 
ATOM     21  C   UNL     1      -6.793  12.486  21.670  0.00  0.00    +0.000 A 
ATOM     22  C   UNL     1      -5.520  13.036  21.527  0.00  0.00    +0.000 A 
BRANCH  21  23
ATOM     23  O   UNL     1      -7.609  12.109  20.637  0.00  0.00    +0.000 OA
BRANCH  23  24
ATOM     24  C   UNL     1      -6.955  11.897  19.381  0.00  0.00    +0.000 C 
BRANCH  24  25
ATOM     25  C   UNL     1      -7.518  12.861  18.376  0.00  0.00    +0.000 C 
ATOM     26  C   UNL     1      -6.787  14.138  18.048  0.00  0.00    +0.000 C 
ATOM     27  C   UNL     1      -6.845  13.031  17.034  0.00  0.00    +0.000 C 
ENDBRANCH  24  25
ENDBRANCH  23  24
ENDBRANCH  21  23
ENDBRANCH  16  17
ENDBRANCH  13  16
ENDBRANCH   6  10
BRANCH   1  29
ATOM     28  C   UNL     1       4.837   5.611  19.311  0.00  0.00    +0.000 C 
ATOM     29  C   UNL     1       3.335   5.380  19.489  0.00  0.00    +0.000 C 
BRANCH  29  30
ATOM     30  N   UNL     1       3.042   4.743  20.763  0.00  0.00    +0.000 N 
ATOM     31  C   UNL     1       2.354   3.571  20.830  0.00  0.00    +0.000 C 
ATOM     32  N   UNL     1       2.179   3.130  22.099  0.00  0.00    +0.000 N 
ATOM     33  O   UNL     1       1.879   2.971  19.877  0.00  0.00    +0.000 OA
ATOM     34  H   UNL     1       3.535   5.037  21.588  0.00  0.00    +0.000 HD
ATOM     35  H   UNL     1       2.838   3.364  22.822  0.00  0.00    +0.000 HD
ATOM     36  H   UNL     1       1.728   2.226  22.175  0.00  0.00    +0.000 HD
ENDBRANCH  29  30
ENDBRANCH   1  29
TORSDOF 8
ENDMDL
MODEL 9
REMARK VINA RESULT:      -8.2      1.963      2.436
REMARK  Name = 
REMARK  9 active torsions:
REMARK  status: ('A' for Active; 'I' for Inactive)
REMARK    1  A    between atoms: C_1  and  C_2
REMARK    2  A    between atoms: C_2  and  N_3
REMARK    3  A    between atoms: C_2  and  C_7
REMARK    4  A    between atoms: C_12  and  C_13
REMARK    5  A    between atoms: C_16  and  O_17
REMARK    6  A    between atoms: O_17  and  C_18
REMARK    7  A    between atoms: C_22  and  O_23
REMARK    8  A    between atoms: O_23  and  C_24
REMARK    9  A    between atoms: C_24  and  C_25
REMARK                            x       y       z     vdW  Elec       q    Type
REMARK                         _______ _______ _______ _____ _____    ______ ____
ROOT
ATOM      1  C   UNL     1       5.304   5.545  17.036  0.00  0.00    +0.000 A 
ATOM      2  C   UNL     1       4.445   4.554  17.563  0.00  0.00    +0.000 A 
ATOM      3  C   UNL     1       3.247   4.877  18.223  0.00  0.00    +0.000 A 
ATOM      4  C   UNL     1       2.910   6.225  18.348  0.00  0.00    +0.000 A 
ATOM      5  N   UNL     1       1.815   6.837  18.909  0.00  0.00    +0.000 NA
ATOM      6  C   UNL     1       2.042   8.124  18.713  0.00  0.00    +0.000 A 
ATOM      7  O   UNL     1       3.221   8.402  18.065  0.00  0.00    +0.000 OA
ATOM      8  C   UNL     1       3.769   7.177  17.830  0.00  0.00    +0.000 A 
ATOM      9  C   UNL     1       4.966   6.905  17.172  0.00  0.00    +0.000 A 
ENDROOT
BRANCH   6  10
ATOM     10  C   UNL     1       1.241   9.271  19.107  0.00  0.00    +0.000 A 
ATOM     11  C   UNL     1       0.942   9.534  20.448  0.00  0.00    +0.000 A 
ATOM     12  C   UNL     1       0.236  10.690  20.797  0.00  0.00    +0.000 A 
ATOM     13  C   UNL     1      -0.149  11.550  19.779  0.00  0.00    +0.000 A 
ATOM     14  N   UNL     1       0.056  11.288  18.470  0.00  0.00    +0.000 NA
ATOM     15  C   UNL     1       0.756  10.172  18.168  0.00  0.00    +0.000 A 
BRANCH  13  16
ATOM     16  O   UNL     1      -0.755  12.746  20.144  0.00  0.00    +0.000 OA
BRANCH  16  17
ATOM     17  C   UNL     1      -1.978  12.664  20.784  0.00  0.00    +0.000 A 
ATOM     18  C   UNL     1      -1.957  12.497  22.168  0.00  0.00    +0.000 A 
ATOM     19  C   UNL     1      -3.159  12.427  22.873  0.00  0.00    +0.000 A 
ATOM     20  C   UNL     1      -4.380  12.517  22.195  0.00  0.00    +0.000 A 
ATOM     21  C   UNL     1      -4.407  12.679  20.809  0.00  0.00    +0.000 A 
ATOM     22  C   UNL     1      -3.202  12.799  20.118  0.00  0.00    +0.000 A 
BRANCH  21  23
ATOM     23  O   UNL     1      -5.651  12.749  20.242  0.00  0.00    +0.000 OA
BRANCH  23  24
ATOM     24  C   UNL     1      -6.694  12.080  20.959  0.00  0.00    +0.000 C 
BRANCH  24  25
ATOM     25  C   UNL     1      -7.440  11.190  20.006  0.00  0.00    +0.000 C 
ATOM     26  C   UNL     1      -6.741  10.592  18.811  0.00  0.00    +0.000 C 
ATOM     27  C   UNL     1      -7.137   9.711  19.961  0.00  0.00    +0.000 C 
ENDBRANCH  24  25
ENDBRANCH  23  24
ENDBRANCH  21  23
ENDBRANCH  16  17
ENDBRANCH  13  16
ENDBRANCH   6  10
BRANCH   1  29
ATOM     28  C   UNL     1       7.563   4.496  17.206  0.00  0.00    +0.000 C 
ATOM     29  C   UNL     1       6.528   5.088  16.247  0.00  0.00    +0.000 C 
BRANCH  29  30
ATOM     30  N   UNL     1       6.196   4.156  15.181  0.00  0.00    +0.000 N 
ATOM     31  C   UNL     1       6.657   4.334  13.913  0.00  0.00    +0.000 C 
ATOM     32  N   UNL     1       6.246   3.366  13.058  0.00  0.00    +0.000 N 
ATOM     33  O   UNL     1       7.329   5.279  13.528  0.00  0.00    +0.000 OA
ATOM     34  H   UNL     1       5.814   3.256  15.412  0.00  0.00    +0.000 HD
ATOM     35  H   UNL     1       6.041   2.439  13.389  0.00  0.00    +0.000 HD
ATOM     36  H   UNL     1       6.629   3.437  12.123  0.00  0.00    +0.000 HD
ENDBRANCH  29  30
ENDBRANCH   1  29
TORSDOF 8
ENDMDL
