MODEL 1
REMARK VINA RESULT:     -10.0      0.000      0.000
REMARK  Name = 
REMARK  5 active torsions:
REMARK  status: ('A' for Active; 'I' for Inactive)
REMARK    1  A    between atoms: C_6  and  C_7
REMARK    2  A    between atoms: C_7  and  C_8
REMARK    3  A    between atoms: C_8  and  C_9
REMARK    4  A    between atoms: C_9  and  O_10
REMARK    5  A    between atoms: O_10  and  C_11
REMARK                            x       y       z     vdW  Elec       q    Type
REMARK                         _______ _______ _______ _____ _____    ______ ____
ROOT
ATOM      1  C   UNL     1       4.759   6.522  17.900  0.00  0.00    +0.000 C 
ENDROOT
BRANCH   1   2
ATOM      2  C   UNL     1       5.317   5.402  16.981  0.00  0.00    +0.000 C 
ATOM      3  C   UNL     1       5.134   5.865  15.521  0.00  0.00    +0.000 C 
ATOM      4  C   UNL     1       5.791   4.912  14.538  0.00  0.00    +0.000 C 
ATOM      5  C   UNL     1       7.272   4.708  14.853  0.00  0.00    +0.000 C 
ATOM      6  N   UNL     1       7.602   4.479  16.257  0.00  0.00    +0.000 NA
ATOM      7  C   UNL     1       6.864   5.314  17.213  0.00  0.00    +0.000 C 
ATOM      8  H   UNL     1       7.516   3.493  16.494  0.00  0.00    +0.000 HD
BRANCH   2   9
ATOM      9  C   UNL     1       4.729   3.983  17.312  0.00  0.00    +0.000 C 
BRANCH   9  15
ATOM     10 CL   UNL     1       2.379   2.693  21.892  0.00  0.00    +0.000 Cl
ATOM     11  C   UNL     1       2.334   3.096  20.214  0.00  0.00    +0.000 A 
ATOM     12  C   UNL     1       1.101   3.171  19.568  0.00  0.00    +0.000 A 
ATOM     13  C   UNL     1       1.065   3.497  18.222  0.00  0.00    +0.000 A 
ATOM     14  C   UNL     1       2.258   3.745  17.538  0.00  0.00    +0.000 A 
ATOM     15  C   UNL     1       3.520   3.675  18.177  0.00  0.00    +0.000 A 
ATOM     16  C   UNL     1       3.535   3.345  19.529  0.00  0.00    +0.000 A 
ENDBRANCH   9  15
ENDBRANCH   2   9
ENDBRANCH   1   2
BRANCH   1  17
ATOM     17  O   UNL     1       3.510   7.008  17.418  0.00  0.00    +0.000 OA
BRANCH  17  18
ATOM     18  C   UNL     1       2.695   7.642  18.324  0.00  0.00    +0.000 A 
ATOM     19  C   UNL     1       2.531   6.933  19.515  0.00  0.00    +0.000 A 
ATOM     20  C   UNL     1       1.756   7.441  20.562  0.00  0.00    +0.000 A 
ATOM     21  C   UNL     1       1.130   8.691  20.414  0.00  0.00    +0.000 A 
ATOM     22  C   UNL     1       1.286   9.379  19.213  0.00  0.00    +0.000 A 
ATOM     23  C   UNL     1       2.057   8.879  18.147  0.00  0.00    +0.000 A 
ATOM     24  N   UNL     1       0.566  10.549  19.332  0.00  0.00    +0.000 N 
ATOM     25  C   UNL     1      -0.027  10.645  20.576  0.00  0.00    +0.000 A 
ATOM     26  C   UNL     1      -0.827  11.652  21.128  0.00  0.00    +0.000 A 
ATOM     27  C   UNL     1      -1.276  11.475  22.439  0.00  0.00    +0.000 A 
ATOM     28  C   UNL     1      -0.942  10.335  23.167  0.00  0.00    +0.000 A 
ATOM     29  C   UNL     1      -0.154   9.334  22.593  0.00  0.00    +0.000 A 
ATOM     30  C   UNL     1       0.316   9.492  21.275  0.00  0.00    +0.000 A 
ATOM     31  H   UNL     1       0.490  11.252  18.610  0.00  0.00    +0.000 HD
ENDBRANCH  17  18
ENDBRANCH   1  17
TORSDOF 5
ENDMDL
MODEL 2
REMARK VINA RESULT:      -9.8      0.748      1.436
REMARK  Name = 
REMARK  5 active torsions:
REMARK  status: ('A' for Active; 'I' for Inactive)
REMARK    1  A    between atoms: C_6  and  C_7
REMARK    2  A    between atoms: C_7  and  C_8
REMARK    3  A    between atoms: C_8  and  C_9
REMARK    4  A    between atoms: C_9  and  O_10
REMARK    5  A    between atoms: O_10  and  C_11
REMARK                            x       y       z     vdW  Elec       q    Type
REMARK                         _______ _______ _______ _____ _____    ______ ____
ROOT
ATOM      1  C   UNL     1       4.656   6.447  18.018  0.00  0.00    +0.000 C 
ENDROOT
BRANCH   1   2
ATOM      2  C   UNL     1       5.262   5.346  17.106  0.00  0.00    +0.000 C 
ATOM      3  C   UNL     1       5.093   5.809  15.644  0.00  0.00    +0.000 C 
ATOM      4  C   UNL     1       5.794   4.878  14.671  0.00  0.00    +0.000 C 
ATOM      5  C   UNL     1       7.274   4.713  15.012  0.00  0.00    +0.000 C 
ATOM      6  N   UNL     1       7.584   4.488  16.421  0.00  0.00    +0.000 NA
ATOM      7  C   UNL     1       6.807   5.299  17.366  0.00  0.00    +0.000 C 
ATOM      8  H   UNL     1       7.521   3.499  16.654  0.00  0.00    +0.000 HD
BRANCH   2   9
ATOM      9  C   UNL     1       4.707   3.910  17.422  0.00  0.00    +0.000 C 
BRANCH   9  15
ATOM     10 CL   UNL     1       2.260   2.541  21.927  0.00  0.00    +0.000 Cl
ATOM     11  C   UNL     1       2.253   2.948  20.250  0.00  0.00    +0.000 A 
ATOM     12  C   UNL     1       1.038   2.993  19.567  0.00  0.00    +0.000 A 
ATOM     13  C   UNL     1       1.032   3.323  18.222  0.00  0.00    +0.000 A 
ATOM     14  C   UNL     1       2.238   3.605  17.575  0.00  0.00    +0.000 A 
ATOM     15  C   UNL     1       3.482   3.567  18.250  0.00  0.00    +0.000 A 
ATOM     16  C   UNL     1       3.466   3.232  19.601  0.00  0.00    +0.000 A 
ENDBRANCH   9  15
ENDBRANCH   2   9
ENDBRANCH   1   2
BRANCH   1  17
ATOM     17  O   UNL     1       3.380   6.862  17.545  0.00  0.00    +0.000 OA
BRANCH  17  18
ATOM     18  C   UNL     1       2.621   7.635  18.389  0.00  0.00    +0.000 A 
ATOM     19  C   UNL     1       2.074   8.761  17.772  0.00  0.00    +0.000 A 
ATOM     20  C   UNL     1       1.249   9.646  18.471  0.00  0.00    +0.000 A 
ATOM     21  C   UNL     1       0.964   9.398  19.826  0.00  0.00    +0.000 A 
ATOM     22  C   UNL     1       1.532   8.282  20.436  0.00  0.00    +0.000 A 
ATOM     23  C   UNL     1       2.368   7.385  19.747  0.00  0.00    +0.000 A 
ATOM     24  N   UNL     1       1.104   8.289  21.747  0.00  0.00    +0.000 N 
ATOM     25  C   UNL     1       0.265   9.358  21.992  0.00  0.00    +0.000 A 
ATOM     26  C   UNL     1      -0.402   9.743  23.162  0.00  0.00    +0.000 A 
ATOM     27  C   UNL     1      -1.210  10.880  23.099  0.00  0.00    +0.000 A 
ATOM     28  C   UNL     1      -1.344  11.606  21.918  0.00  0.00    +0.000 A 
ATOM     29  C   UNL     1      -0.659  11.214  20.765  0.00  0.00    +0.000 A 
ATOM     30  C   UNL     1       0.157  10.067  20.800  0.00  0.00    +0.000 A 
ATOM     31  H   UNL     1       1.361   7.597  22.437  0.00  0.00    +0.000 HD
ENDBRANCH  17  18
ENDBRANCH   1  17
TORSDOF 5
ENDMDL
MODEL 3
REMARK VINA RESULT:      -9.3      1.120      1.909
REMARK  Name = 
REMARK  5 active torsions:
REMARK  status: ('A' for Active; 'I' for Inactive)
REMARK    1  A    between atoms: C_6  and  C_7
REMARK    2  A    between atoms: C_7  and  C_8
REMARK    3  A    between atoms: C_8  and  C_9
REMARK    4  A    between atoms: C_9  and  O_10
REMARK    5  A    between atoms: O_10  and  C_11
REMARK                            x       y       z     vdW  Elec       q    Type
REMARK                         _______ _______ _______ _____ _____    ______ ____
ROOT
ATOM      1  C   UNL     1       4.788   6.329  17.809  0.00  0.00    +0.000 C 
ENDROOT
BRANCH   1   2
ATOM      2  C   UNL     1       5.407   5.285  16.840  0.00  0.00    +0.000 C 
ATOM      3  C   UNL     1       5.099   5.747  15.401  0.00  0.00    +0.000 C 
ATOM      4  C   UNL     1       5.796   4.881  14.366  0.00  0.00    +0.000 C 
ATOM      5  C   UNL     1       7.305   4.826  14.599  0.00  0.00    +0.000 C 
ATOM      6  N   UNL     1       7.731   4.611  15.979  0.00  0.00    +0.000 NA
ATOM      7  C   UNL     1       6.966   5.353  16.989  0.00  0.00    +0.000 C 
ATOM      8  H   UNL     1       7.760   3.619  16.200  0.00  0.00    +0.000 HD
BRANCH   2   9
ATOM      9  C   UNL     1       4.985   3.808  17.173  0.00  0.00    +0.000 C 
BRANCH   9  15
ATOM     10 CL   UNL     1       0.108   2.557  18.847  0.00  0.00    +0.000 Cl
ATOM     11  C   UNL     1       1.803   2.759  19.101  0.00  0.00    +0.000 A 
ATOM     12  C   UNL     1       2.339   2.480  20.358  0.00  0.00    +0.000 A 
ATOM     13  C   UNL     1       3.700   2.640  20.560  0.00  0.00    +0.000 A 
ATOM     14  C   UNL     1       4.510   3.074  19.507  0.00  0.00    +0.000 A 
ATOM     15  C   UNL     1       3.985   3.360  18.223  0.00  0.00    +0.000 A 
ATOM     16  C   UNL     1       2.615   3.194  18.041  0.00  0.00    +0.000 A 
ENDBRANCH   9  15
ENDBRANCH   2   9
ENDBRANCH   1   2
BRANCH   1  17
ATOM     17  O   UNL     1       3.476   6.697  17.398  0.00  0.00    +0.000 OA
BRANCH  17  18
ATOM     18  C   UNL     1       2.740   7.463  18.269  0.00  0.00    +0.000 A 
ATOM     19  C   UNL     1       2.207   8.612  17.684  0.00  0.00    +0.000 A 
ATOM     20  C   UNL     1       1.407   9.496  18.414  0.00  0.00    +0.000 A 
ATOM     21  C   UNL     1       1.131   9.221  19.765  0.00  0.00    +0.000 A 
ATOM     22  C   UNL     1       1.685   8.080  20.342  0.00  0.00    +0.000 A 
ATOM     23  C   UNL     1       2.497   7.184  19.623  0.00  0.00    +0.000 A 
ATOM     24  N   UNL     1       1.271   8.063  21.657  0.00  0.00    +0.000 N 
ATOM     25  C   UNL     1       0.453   9.140  21.937  0.00  0.00    +0.000 A 
ATOM     26  C   UNL     1      -0.194   9.509  23.123  0.00  0.00    +0.000 A 
ATOM     27  C   UNL     1      -0.982  10.662  23.096  0.00  0.00    +0.000 A 
ATOM     28  C   UNL     1      -1.114  11.419  21.934  0.00  0.00    +0.000 A 
ATOM     29  C   UNL     1      -0.448  11.042  20.765  0.00  0.00    +0.000 A 
ATOM     30  C   UNL     1       0.347   9.880  20.764  0.00  0.00    +0.000 A 
ATOM     31  H   UNL     1       1.522   7.350  22.328  0.00  0.00    +0.000 HD
ENDBRANCH  17  18
ENDBRANCH   1  17
TORSDOF 5
ENDMDL
MODEL 4
REMARK VINA RESULT:      -9.3      0.864      1.270
REMARK  Name = 
REMARK  5 active torsions:
REMARK  status: ('A' for Active; 'I' for Inactive)
REMARK    1  A    between atoms: C_6  and  C_7
REMARK    2  A    between atoms: C_7  and  C_8
REMARK    3  A    between atoms: C_8  and  C_9
REMARK    4  A    between atoms: C_9  and  O_10
REMARK    5  A    between atoms: O_10  and  C_11
REMARK                            x       y       z     vdW  Elec       q    Type
REMARK                         _______ _______ _______ _____ _____    ______ ____
ROOT
ATOM      1  C   UNL     1       4.819   6.352  17.813  0.00  0.00    +0.000 C 
ENDROOT
BRANCH   1   2
ATOM      2  C   UNL     1       5.433   5.280  16.872  0.00  0.00    +0.000 C 
ATOM      3  C   UNL     1       5.028   5.643  15.428  0.00  0.00    +0.000 C 
ATOM      4  C   UNL     1       5.708   4.747  14.407  0.00  0.00    +0.000 C 
ATOM      5  C   UNL     1       7.227   4.769  14.559  0.00  0.00    +0.000 C 
ATOM      6  N   UNL     1       7.736   4.655  15.923  0.00  0.00    +0.000 NA
ATOM      7  C   UNL     1       6.992   5.422  16.930  0.00  0.00    +0.000 C 
ATOM      8  H   UNL     1       7.820   3.679  16.199  0.00  0.00    +0.000 HD
BRANCH   2   9
ATOM      9  C   UNL     1       5.096   3.809  17.312  0.00  0.00    +0.000 C 
BRANCH   9  15
ATOM     10 CL   UNL     1       0.132   2.606  18.750  0.00  0.00    +0.000 Cl
ATOM     11  C   UNL     1       1.814   2.796  19.086  0.00  0.00    +0.000 A 
ATOM     12  C   UNL     1       2.286   2.521  20.369  0.00  0.00    +0.000 A 
ATOM     13  C   UNL     1       3.636   2.671  20.637  0.00  0.00    +0.000 A 
ATOM     14  C   UNL     1       4.500   3.092  19.623  0.00  0.00    +0.000 A 
ATOM     15  C   UNL     1       4.041   3.375  18.313  0.00  0.00    +0.000 A 
ATOM     16  C   UNL     1       2.681   3.219  18.065  0.00  0.00    +0.000 A 
ENDBRANCH   9  15
ENDBRANCH   2   9
ENDBRANCH   1   2
BRANCH   1  17
ATOM     17  O   UNL     1       3.506   6.710  17.398  0.00  0.00    +0.000 OA
BRANCH  17  18
ATOM     18  C   UNL     1       2.720   7.372  18.310  0.00  0.00    +0.000 A 
ATOM     19  C   UNL     1       2.546   6.673  19.505  0.00  0.00    +0.000 A 
ATOM     20  C   UNL     1       1.800   7.208  20.558  0.00  0.00    +0.000 A 
ATOM     21  C   UNL     1       1.213   8.477  20.413  0.00  0.00    +0.000 A 
ATOM     22  C   UNL     1       1.379   9.157  19.208  0.00  0.00    +0.000 A 
ATOM     23  C   UNL     1       2.122   8.630  18.136  0.00  0.00    +0.000 A 
ATOM     24  N   UNL     1       0.699  10.350  19.332  0.00  0.00    +0.000 N 
ATOM     25  C   UNL     1       0.122  10.468  20.581  0.00  0.00    +0.000 A 
ATOM     26  C   UNL     1      -0.639  11.503  21.139  0.00  0.00    +0.000 A 
ATOM     27  C   UNL     1      -1.079  11.343  22.455  0.00  0.00    +0.000 A 
ATOM     28  C   UNL     1      -0.775  10.196  23.183  0.00  0.00    +0.000 A 
ATOM     29  C   UNL     1      -0.027   9.168  22.603  0.00  0.00    +0.000 A 
ATOM     30  C   UNL     1       0.434   9.307  21.281  0.00  0.00    +0.000 A 
ATOM     31  H   UNL     1       0.638  11.053  18.609  0.00  0.00    +0.000 HD
ENDBRANCH  17  18
ENDBRANCH   1  17
TORSDOF 5
ENDMDL
MODEL 5
REMARK VINA RESULT:      -8.9      2.385      4.427
REMARK  Name = 
REMARK  5 active torsions:
REMARK  status: ('A' for Active; 'I' for Inactive)
REMARK    1  A    between atoms: C_6  and  C_7
REMARK    2  A    between atoms: C_7  and  C_8
REMARK    3  A    between atoms: C_8  and  C_9
REMARK    4  A    between atoms: C_9  and  O_10
REMARK    5  A    between atoms: O_10  and  C_11
REMARK                            x       y       z     vdW  Elec       q    Type
REMARK                         _______ _______ _______ _____ _____    ______ ____
ROOT
ATOM      1  C   UNL     1       3.278   5.959  19.778  0.00  0.00    +0.000 C 
ENDROOT
BRANCH   1   2
ATOM      2  C   UNL     1       2.923   4.509  19.348  0.00  0.00    +0.000 C 
ATOM      3  C   UNL     1       2.081   3.883  20.479  0.00  0.00    +0.000 C 
ATOM      4  C   UNL     1       1.543   2.516  20.094  0.00  0.00    +0.000 C 
ATOM      5  C   UNL     1       0.740   2.570  18.796  0.00  0.00    +0.000 C 
ATOM      6  N   UNL     1       1.339   3.333  17.704  0.00  0.00    +0.000 NA
ATOM      7  C   UNL     1       1.975   4.594  18.103  0.00  0.00    +0.000 C 
ATOM      8  H   UNL     1       1.982   2.755  17.168  0.00  0.00    +0.000 HD
BRANCH   2   9
ATOM      9  C   UNL     1       4.177   3.672  18.906  0.00  0.00    +0.000 C 
BRANCH   9  15
ATOM     10 CL   UNL     1       5.705   3.969  13.833  0.00  0.00    +0.000 Cl
ATOM     11  C   UNL     1       5.968   4.208  15.522  0.00  0.00    +0.000 A 
ATOM     12  C   UNL     1       7.166   4.780  15.948  0.00  0.00    +0.000 A 
ATOM     13  C   UNL     1       7.375   4.974  17.304  0.00  0.00    +0.000 A 
ATOM     14  C   UNL     1       6.386   4.598  18.217  0.00  0.00    +0.000 A 
ATOM     15  C   UNL     1       5.162   4.018  17.804  0.00  0.00    +0.000 A 
ATOM     16  C   UNL     1       4.972   3.830  16.438  0.00  0.00    +0.000 A 
ENDBRANCH   9  15
ENDBRANCH   2   9
ENDBRANCH   1   2
BRANCH   1  17
ATOM     17  O   UNL     1       2.734   6.912  18.873  0.00  0.00    +0.000 OA
BRANCH  17  18
ATOM     18  C   UNL     1       1.961   7.913  19.408  0.00  0.00    +0.000 A 
ATOM     19  C   UNL     1       1.620   8.905  18.488  0.00  0.00    +0.000 A 
ATOM     20  C   UNL     1       0.813   9.987  18.850  0.00  0.00    +0.000 A 
ATOM     21  C   UNL     1       0.334  10.079  20.169  0.00  0.00    +0.000 A 
ATOM     22  C   UNL     1       0.698   9.093  21.083  0.00  0.00    +0.000 A 
ATOM     23  C   UNL     1       1.514   8.001  20.736  0.00  0.00    +0.000 A 
ATOM     24  N   UNL     1       0.111   9.433  22.284  0.00  0.00    +0.000 N 
ATOM     25  C   UNL     1      -0.634  10.590  22.165  0.00  0.00    +0.000 A 
ATOM     26  C   UNL     1      -1.398  11.282  23.112  0.00  0.00    +0.000 A 
ATOM     27  C   UNL     1      -2.066  12.433  22.687  0.00  0.00    +0.000 A 
ATOM     28  C   UNL     1      -1.971  12.876  21.370  0.00  0.00    +0.000 A 
ATOM     29  C   UNL     1      -1.191  12.179  20.443  0.00  0.00    +0.000 A 
ATOM     30  C   UNL     1      -0.514  11.013  20.845  0.00  0.00    +0.000 A 
ATOM     31  H   UNL     1       0.203   8.900  23.138  0.00  0.00    +0.000 HD
ENDBRANCH  17  18
ENDBRANCH   1  17
TORSDOF 5
ENDMDL
MODEL 6
REMARK VINA RESULT:      -8.8      2.330      4.252
REMARK  Name = 
REMARK  5 active torsions:
REMARK  status: ('A' for Active; 'I' for Inactive)
REMARK    1  A    between atoms: C_6  and  C_7
REMARK    2  A    between atoms: C_7  and  C_8
REMARK    3  A    between atoms: C_8  and  C_9
REMARK    4  A    between atoms: C_9  and  O_10
REMARK    5  A    between atoms: O_10  and  C_11
REMARK                            x       y       z     vdW  Elec       q    Type
REMARK                         _______ _______ _______ _____ _____    ______ ____
ROOT
ATOM      1  C   UNL     1       3.224   6.053  19.714  0.00  0.00    +0.000 C 
ENDROOT
BRANCH   1   2
ATOM      2  C   UNL     1       2.871   4.590  19.332  0.00  0.00    +0.000 C 
ATOM      3  C   UNL     1       2.029   4.001  20.483  0.00  0.00    +0.000 C 
ATOM      4  C   UNL     1       1.494   2.621  20.143  0.00  0.00    +0.000 C 
ATOM      5  C   UNL     1       0.693   2.629  18.842  0.00  0.00    +0.000 C 
ATOM      6  N   UNL     1       1.292   3.356  17.726  0.00  0.00    +0.000 NA
ATOM      7  C   UNL     1       1.925   4.632  18.083  0.00  0.00    +0.000 C 
ATOM      8  H   UNL     1       1.937   2.762  17.210  0.00  0.00    +0.000 HD
BRANCH   2   9
ATOM      9  C   UNL     1       4.128   3.741  18.920  0.00  0.00    +0.000 C 
BRANCH   9  15
ATOM     10 CL   UNL     1       5.716   4.009  13.863  0.00  0.00    +0.000 Cl
ATOM     11  C   UNL     1       5.965   4.242  15.556  0.00  0.00    +0.000 A 
ATOM     12  C   UNL     1       7.170   4.789  15.995  0.00  0.00    +0.000 A 
ATOM     13  C   UNL     1       7.368   4.979  17.353  0.00  0.00    +0.000 A 
ATOM     14  C   UNL     1       6.362   4.622  18.255  0.00  0.00    +0.000 A 
ATOM     15  C   UNL     1       5.132   4.067  17.829  0.00  0.00    +0.000 A 
ATOM     16  C   UNL     1       4.953   3.883  16.461  0.00  0.00    +0.000 A 
ENDBRANCH   9  15
ENDBRANCH   2   9
ENDBRANCH   1   2
BRANCH   1  17
ATOM     17  O   UNL     1       2.561   6.981  18.862  0.00  0.00    +0.000 OA
BRANCH  17  18
ATOM     18  C   UNL     1       1.822   7.968  19.466  0.00  0.00    +0.000 A 
ATOM     19  C   UNL     1       1.485   7.678  20.789  0.00  0.00    +0.000 A 
ATOM     20  C   UNL     1       0.758   8.582  21.569  0.00  0.00    +0.000 A 
ATOM     21  C   UNL     1       0.359   9.809  21.011  0.00  0.00    +0.000 A 
ATOM     22  C   UNL     1       0.685  10.078  19.683  0.00  0.00    +0.000 A 
ATOM     23  C   UNL     1       1.410   9.177  18.883  0.00  0.00    +0.000 A 
ATOM     24  N   UNL     1       0.167  11.323  19.394  0.00  0.00    +0.000 N 
ATOM     25  C   UNL     1      -0.460  11.870  20.497  0.00  0.00    +0.000 A 
ATOM     26  C   UNL     1      -1.105  13.103  20.659  0.00  0.00    +0.000 A 
ATOM     27  C   UNL     1      -1.638  13.391  21.918  0.00  0.00    +0.000 A 
ATOM     28  C   UNL     1      -1.536  12.484  22.970  0.00  0.00    +0.000 A 
ATOM     29  C   UNL     1      -0.901  11.253  22.783  0.00  0.00    +0.000 A 
ATOM     30  C   UNL     1      -0.350  10.941  21.526  0.00  0.00    +0.000 A 
ATOM     31  H   UNL     1       0.244  11.782  18.498  0.00  0.00    +0.000 HD
ENDBRANCH  17  18
ENDBRANCH   1  17
TORSDOF 5
ENDMDL
MODEL 7
REMARK VINA RESULT:      -8.8      1.318      2.010
REMARK  Name = 
REMARK  5 active torsions:
REMARK  status: ('A' for Active; 'I' for Inactive)
REMARK    1  A    between atoms: C_6  and  C_7
REMARK    2  A    between atoms: C_7  and  C_8
REMARK    3  A    between atoms: C_8  and  C_9
REMARK    4  A    between atoms: C_9  and  O_10
REMARK    5  A    between atoms: O_10  and  C_11
REMARK                            x       y       z     vdW  Elec       q    Type
REMARK                         _______ _______ _______ _____ _____    ______ ____
ROOT
ATOM      1  C   UNL     1       4.394   7.121  17.711  0.00  0.00    +0.000 C 
ENDROOT
BRANCH   1   2
ATOM      2  C   UNL     1       5.153   5.777  17.543  0.00  0.00    +0.000 C 
ATOM      3  C   UNL     1       4.762   5.192  16.170  0.00  0.00    +0.000 C 
ATOM      4  C   UNL     1       5.571   3.952  15.832  0.00  0.00    +0.000 C 
ATOM      5  C   UNL     1       7.073   4.223  15.890  0.00  0.00    +0.000 C 
ATOM      6  N   UNL     1       7.543   4.975  17.050  0.00  0.00    +0.000 NA
ATOM      7  C   UNL     1       6.685   6.096  17.454  0.00  0.00    +0.000 C 
ATOM      8  H   UNL     1       7.724   4.354  17.836  0.00  0.00    +0.000 HD
BRANCH   2   9
ATOM      9  C   UNL     1       4.964   4.805  18.763  0.00  0.00    +0.000 C 
BRANCH   9  15
ATOM     10 CL   UNL     1       0.456   2.024  18.442  0.00  0.00    +0.000 Cl
ATOM     11  C   UNL     1       1.566   3.039  19.290  0.00  0.00    +0.000 A 
ATOM     12  C   UNL     1       1.277   3.415  20.601  0.00  0.00    +0.000 A 
ATOM     13  C   UNL     1       2.170   4.226  21.281  0.00  0.00    +0.000 A 
ATOM     14  C   UNL     1       3.340   4.651  20.647  0.00  0.00    +0.000 A 
ATOM     15  C   UNL     1       3.652   4.279  19.317  0.00  0.00    +0.000 A 
ATOM     16  C   UNL     1       2.742   3.465  18.650  0.00  0.00    +0.000 A 
ENDBRANCH   9  15
ENDBRANCH   2   9
ENDBRANCH   1   2
BRANCH   1  17
ATOM     17  O   UNL     1       2.986   6.916  17.744  0.00  0.00    +0.000 OA
BRANCH  17  18
ATOM     18  C   UNL     1       2.246   7.775  18.519  0.00  0.00    +0.000 A 
ATOM     19  C   UNL     1       1.710   8.847  17.804  0.00  0.00    +0.000 A 
ATOM     20  C   UNL     1       0.906   9.806  18.426  0.00  0.00    +0.000 A 
ATOM     21  C   UNL     1       0.629   9.688  19.800  0.00  0.00    +0.000 A 
ATOM     22  C   UNL     1       1.186   8.624  20.506  0.00  0.00    +0.000 A 
ATOM     23  C   UNL     1       2.002   7.654  19.896  0.00  0.00    +0.000 A 
ATOM     24  N   UNL     1       0.770   8.758  21.814  0.00  0.00    +0.000 N 
ATOM     25  C   UNL     1      -0.051   9.858  21.966  0.00  0.00    +0.000 A 
ATOM     26  C   UNL     1      -0.702  10.359  23.100  0.00  0.00    +0.000 A 
ATOM     27  C   UNL     1      -1.493  11.498  22.939  0.00  0.00    +0.000 A 
ATOM     28  C   UNL     1      -1.627  12.115  21.698  0.00  0.00    +0.000 A 
ATOM     29  C   UNL     1      -0.958  11.607  20.581  0.00  0.00    +0.000 A 
ATOM     30  C   UNL     1      -0.159  10.456  20.715  0.00  0.00    +0.000 A 
ATOM     31  H   UNL     1       1.022   8.128  22.562  0.00  0.00    +0.000 HD
ENDBRANCH  17  18
ENDBRANCH   1  17
TORSDOF 5
ENDMDL
MODEL 8
REMARK VINA RESULT:      -8.8      1.110      1.510
REMARK  Name = 
REMARK  5 active torsions:
REMARK  status: ('A' for Active; 'I' for Inactive)
REMARK    1  A    between atoms: C_6  and  C_7
REMARK    2  A    between atoms: C_7  and  C_8
REMARK    3  A    between atoms: C_8  and  C_9
REMARK    4  A    between atoms: C_9  and  O_10
REMARK    5  A    between atoms: O_10  and  C_11
REMARK                            x       y       z     vdW  Elec       q    Type
REMARK                         _______ _______ _______ _____ _____    ______ ____
ROOT
ATOM      1  C   UNL     1       3.864   6.701  17.400  0.00  0.00    +0.000 C 
ENDROOT
BRANCH   1   2
ATOM      2  C   UNL     1       4.790   5.473  17.189  0.00  0.00    +0.000 C 
ATOM      3  C   UNL     1       5.652   5.750  15.940  0.00  0.00    +0.000 C 
ATOM      4  C   UNL     1       6.708   4.680  15.731  0.00  0.00    +0.000 C 
ATOM      5  C   UNL     1       7.592   4.510  16.965  0.00  0.00    +0.000 C 
ATOM      6  N   UNL     1       6.897   4.457  18.248  0.00  0.00    +0.000 NA
ATOM      7  C   UNL     1       5.788   5.408  18.395  0.00  0.00    +0.000 C 
ATOM      8  H   UNL     1       6.593   3.509  18.457  0.00  0.00    +0.000 HD
BRANCH   2   9
ATOM      9  C   UNL     1       4.010   4.108  17.174  0.00  0.00    +0.000 C 
BRANCH   9  15
ATOM     10 CL   UNL     1       2.472   2.467  21.980  0.00  0.00    +0.000 Cl
ATOM     11  C   UNL     1       2.153   2.884  20.336  0.00  0.00    +0.000 A 
ATOM     12  C   UNL     1       0.845   2.812  19.859  0.00  0.00    +0.000 A 
ATOM     13  C   UNL     1       0.589   3.149  18.540  0.00  0.00    +0.000 A 
ATOM     14  C   UNL     1       1.640   3.556  17.714  0.00  0.00    +0.000 A 
ATOM     15  C   UNL     1       2.975   3.638  18.180  0.00  0.00    +0.000 A 
ATOM     16  C   UNL     1       3.211   3.293  19.507  0.00  0.00    +0.000 A 
ENDBRANCH   9  15
ENDBRANCH   2   9
ENDBRANCH   1   2
BRANCH   1  17
ATOM     17  O   UNL     1       3.315   6.712  18.714  0.00  0.00    +0.000 OA
BRANCH  17  18
ATOM     18  C   UNL     1       2.418   7.709  19.008  0.00  0.00    +0.000 A 
ATOM     19  C   UNL     1       1.933   7.652  20.315  0.00  0.00    +0.000 A 
ATOM     20  C   UNL     1       1.032   8.604  20.800  0.00  0.00    +0.000 A 
ATOM     21  C   UNL     1       0.607   9.644  19.954  0.00  0.00    +0.000 A 
ATOM     22  C   UNL     1       1.083   9.679  18.645  0.00  0.00    +0.000 A 
ATOM     23  C   UNL     1       1.986   8.724  18.141  0.00  0.00    +0.000 A 
ATOM     24  N   UNL     1       0.503  10.775  18.043  0.00  0.00    +0.000 N 
ATOM     25  C   UNL     1      -0.312  11.456  18.926  0.00  0.00    +0.000 A 
ATOM     26  C   UNL     1      -1.077  12.616  18.751  0.00  0.00    +0.000 A 
ATOM     27  C   UNL     1      -1.798  13.086  19.851  0.00  0.00    +0.000 A 
ATOM     28  C   UNL     1      -1.759  12.423  21.076  0.00  0.00    +0.000 A 
ATOM     29  C   UNL     1      -1.001  11.259  21.226  0.00  0.00    +0.000 A 
ATOM     30  C   UNL     1      -0.260  10.768  20.134  0.00  0.00    +0.000 A 
ATOM     31  H   UNL     1       0.660  11.053  17.085  0.00  0.00    +0.000 HD
ENDBRANCH  17  18
ENDBRANCH   1  17
TORSDOF 5
ENDMDL
MODEL 9
REMARK VINA RESULT:      -8.7      1.092      1.804
REMARK  Name = 
REMARK  5 active torsions:
REMARK  status: ('A' for Active; 'I' for Inactive)
REMARK    1  A    between atoms: C_6  and  C_7
REMARK    2  A    between atoms: C_7  and  C_8
REMARK    3  A    between atoms: C_8  and  C_9
REMARK    4  A    between atoms: C_9  and  O_10
REMARK    5  A    between atoms: O_10  and  C_11
REMARK                            x       y       z     vdW  Elec       q    Type
REMARK                         _______ _______ _______ _____ _____    ______ ____
ROOT
ATOM      1  C   UNL     1       3.823   6.729  17.452  0.00  0.00    +0.000 C 
ENDROOT
BRANCH   1   2
ATOM      2  C   UNL     1       4.735   5.498  17.196  0.00  0.00    +0.000 C 
ATOM      3  C   UNL     1       5.576   5.797  15.938  0.00  0.00    +0.000 C 
ATOM      4  C   UNL     1       6.620   4.723  15.686  0.00  0.00    +0.000 C 
ATOM      5  C   UNL     1       7.525   4.518  16.900  0.00  0.00    +0.000 C 
ATOM      6  N   UNL     1       6.853   4.442  18.194  0.00  0.00    +0.000 NA
ATOM      7  C   UNL     1       5.755   5.398  18.382  0.00  0.00    +0.000 C 
ATOM      8  H   UNL     1       6.544   3.492  18.387  0.00  0.00    +0.000 HD
BRANCH   2   9
ATOM      9  C   UNL     1       3.943   4.141  17.165  0.00  0.00    +0.000 C 
BRANCH   9  15
ATOM     10 CL   UNL     1       2.462   2.433  21.966  0.00  0.00    +0.000 Cl
ATOM     11  C   UNL     1       2.123   2.875  20.332  0.00  0.00    +0.000 A 
ATOM     12  C   UNL     1       0.809   2.813  19.871  0.00  0.00    +0.000 A 
ATOM     13  C   UNL     1       0.537   3.170  18.560  0.00  0.00    +0.000 A 
ATOM     14  C   UNL     1       1.579   3.587  17.727  0.00  0.00    +0.000 A 
ATOM     15  C   UNL     1       2.920   3.658  18.177  0.00  0.00    +0.000 A 
ATOM     16  C   UNL     1       3.172   3.294  19.496  0.00  0.00    +0.000 A 
ENDBRANCH   9  15
ENDBRANCH   2   9
ENDBRANCH   1   2
BRANCH   1  17
ATOM     17  O   UNL     1       3.180   6.639  18.718  0.00  0.00    +0.000 OA
BRANCH  17  18
ATOM     18  C   UNL     1       2.348   7.673  19.073  0.00  0.00    +0.000 A 
ATOM     19  C   UNL     1       2.000   8.498  18.002  0.00  0.00    +0.000 A 
ATOM     20  C   UNL     1       1.137   9.584  18.172  0.00  0.00    +0.000 A 
ATOM     21  C   UNL     1       0.607   9.851  19.446  0.00  0.00    +0.000 A 
ATOM     22  C   UNL     1       0.978   9.032  20.510  0.00  0.00    +0.000 A 
ATOM     23  C   UNL     1       1.850   7.938  20.357  0.00  0.00    +0.000 A 
ATOM     24  N   UNL     1       0.334   9.520  21.628  0.00  0.00    +0.000 N 
ATOM     25  C   UNL     1      -0.453  10.611  21.312  0.00  0.00    +0.000 A 
ATOM     26  C   UNL     1      -1.279  11.402  22.120  0.00  0.00    +0.000 A 
ATOM     27  C   UNL     1      -1.977  12.444  21.505  0.00  0.00    +0.000 A 
ATOM     28  C   UNL     1      -1.853  12.688  20.139  0.00  0.00    +0.000 A 
ATOM     29  C   UNL     1      -1.011  11.896  19.353  0.00  0.00    +0.000 A 
ATOM     30  C   UNL     1      -0.302  10.836  19.948  0.00  0.00    +0.000 A 
ATOM     31  H   UNL     1       0.416   9.128  22.554  0.00  0.00    +0.000 HD
ENDBRANCH  17  18
ENDBRANCH   1  17
TORSDOF 5
ENDMDL
