MODEL 1
REMARK VINA RESULT:      -8.0      0.000      0.000
REMARK  Name = 
REMARK  9 active torsions:
REMARK  status: ('A' for Active; 'I' for Inactive)
REMARK    1  A    between atoms: C_1  and  C_2
REMARK    2  A    between atoms: C_2  and  C_3
REMARK    3  A    between atoms: C_3  and  C_4
REMARK    4  A    between atoms: C_4  and  N_5
REMARK    5  A    between atoms: C_6  and  O_8
REMARK    6  A    between atoms: O_8  and  C_9
REMARK    7  A    between atoms: N_15  and  C_16
REMARK    8  A    between atoms: C_21  and  O_22
REMARK    9  A    between atoms: O_22  and  C_23
REMARK                            x       y       z     vdW  Elec       q    Type
REMARK                         _______ _______ _______ _____ _____    ______ ____
ROOT
ATOM      1  C   UNL     1       5.354   4.983  16.077  0.00  0.00    +0.000 C 
ATOM      2  C   UNL     1       5.110   3.987  17.210  0.00  0.00    +0.000 C 
ATOM      3  C   UNL     1       4.390   4.393  18.282  0.00  0.00    +0.000 C 
ATOM      4  C   UNL     1       3.086   5.151  18.111  0.00  0.00    +0.000 C 
ATOM      5  C   UNL     1       1.942   4.104  18.051  0.00  0.00    +0.000 C 
ATOM      6  C   UNL     1       1.941   3.133  19.267  0.00  0.00    +0.000 C 
ATOM      7  N   UNL     1       1.364   3.656  20.518  0.00  0.00    +0.000 NA
ATOM      8  C   UNL     1       1.268   2.554  21.495  0.00  0.00    +0.000 C 
ATOM      9  C   UNL     1       2.157   4.735  21.139  0.00  0.00    +0.000 C 
ATOM     10  C   UNL     1       2.181   6.044  20.401  0.00  0.00    +0.000 A 
ATOM     11  C   UNL     1       1.655   7.193  21.046  0.00  0.00    +0.000 A 
ATOM     12  C   UNL     1       1.569   8.438  20.393  0.00  0.00    +0.000 A 
ATOM     13  C   UNL     1       1.971   8.557  19.072  0.00  0.00    +0.000 A 
ATOM     14  C   UNL     1       2.483   7.416  18.455  0.00  0.00    +0.000 A 
ATOM     15  C   UNL     1       2.658   6.196  19.100  0.00  0.00    +0.000 A 
ATOM     16  O   UNL     1       2.724   7.390  17.108  0.00  0.00    +0.000 OA
ATOM     17  C   UNL     1       3.262   6.082  16.847  0.00  0.00    +0.000 C 
ATOM     18  C   UNL     1       4.752   6.317  16.491  0.00  0.00    +0.000 C 
ENDROOT
BRANCH  13  19
ATOM     19  O   UNL     1       1.893   9.684  18.305  0.00  0.00    +0.000 OA
ATOM     20  C   UNL     1       1.176  10.786  18.840  0.00  0.00    +0.000 C 
ENDBRANCH  13  19
BRANCH   1  21
ATOM     21  O   UNL     1       6.773   5.080  15.895  0.00  0.00    +0.000 OA
BRANCH  21  23
ATOM     22  N   UNL     1       6.401   4.199  13.885  0.00  0.00    +0.000 N 
ATOM     23  C   UNL     1       7.186   5.041  14.606  0.00  0.00    +0.000 C 
ATOM     24  O   UNL     1       8.144   5.669  14.146  0.00  0.00    +0.000 OA
ATOM     25  H   UNL     1       5.655   3.746  14.401  0.00  0.00    +0.000 HD
BRANCH  22  26
ATOM     26  C   UNL     1       6.739   3.745  12.556  0.00  0.00    +0.000 C 
BRANCH  26  27
ATOM     27  C   UNL     1       5.651   2.848  11.960  0.00  0.00    +0.000 C 
BRANCH  27  29
ATOM     28  C   UNL     1       3.552   3.146  10.579  0.00  0.00    +0.000 C 
ATOM     29  C   UNL     1       4.310   3.577  11.825  0.00  0.00    +0.000 C 
ENDBRANCH  27  29
ENDBRANCH  26  27
ENDBRANCH  22  26
ENDBRANCH  21  23
ENDBRANCH   1  21
TORSDOF 6
ENDMDL
MODEL 2
REMARK VINA RESULT:      -7.9      3.062      4.560
REMARK  Name = 
REMARK  9 active torsions:
REMARK  status: ('A' for Active; 'I' for Inactive)
REMARK    1  A    between atoms: C_1  and  C_2
REMARK    2  A    between atoms: C_2  and  C_3
REMARK    3  A    between atoms: C_3  and  C_4
REMARK    4  A    between atoms: C_4  and  N_5
REMARK    5  A    between atoms: C_6  and  O_8
REMARK    6  A    between atoms: O_8  and  C_9
REMARK    7  A    between atoms: N_15  and  C_16
REMARK    8  A    between atoms: C_21  and  O_22
REMARK    9  A    between atoms: O_22  and  C_23
REMARK                            x       y       z     vdW  Elec       q    Type
REMARK                         _______ _______ _______ _____ _____    ______ ____
ROOT
ATOM      1  C   UNL     1       6.010   6.091  16.605  0.00  0.00    +0.000 C 
ATOM      2  C   UNL     1       5.721   4.959  17.589  0.00  0.00    +0.000 C 
ATOM      3  C   UNL     1       4.782   5.159  18.544  0.00  0.00    +0.000 C 
ATOM      4  C   UNL     1       3.432   5.764  18.205  0.00  0.00    +0.000 C 
ATOM      5  C   UNL     1       2.473   4.597  17.854  0.00  0.00    +0.000 C 
ATOM      6  C   UNL     1       2.403   3.511  18.966  0.00  0.00    +0.000 C 
ATOM      7  N   UNL     1       1.557   3.824  20.131  0.00  0.00    +0.000 NA
ATOM      8  C   UNL     1       1.454   2.623  20.982  0.00  0.00    +0.000 C 
ATOM      9  C   UNL     1       2.077   4.922  20.971  0.00  0.00    +0.000 C 
ATOM     10  C   UNL     1       2.042   6.294  20.360  0.00  0.00    +0.000 A 
ATOM     11  C   UNL     1       1.260   7.296  20.992  0.00  0.00    +0.000 A 
ATOM     12  C   UNL     1       1.112   8.582  20.438  0.00  0.00    +0.000 A 
ATOM     13  C   UNL     1       1.709   8.888  19.225  0.00  0.00    +0.000 A 
ATOM     14  C   UNL     1       2.471   7.889  18.618  0.00  0.00    +0.000 A 
ATOM     15  C   UNL     1       2.704   6.640  19.182  0.00  0.00    +0.000 A 
ATOM     16  O   UNL     1       2.935   8.035  17.339  0.00  0.00    +0.000 OA
ATOM     17  C   UNL     1       3.686   6.838  17.073  0.00  0.00    +0.000 C 
ATOM     18  C   UNL     1       5.168   7.290  17.012  0.00  0.00    +0.000 C 
ENDROOT
BRANCH  13  19
ATOM     19  O   UNL     1       1.604  10.071  18.551  0.00  0.00    +0.000 OA
ATOM     20  C   UNL     1       0.791  11.079  19.131  0.00  0.00    +0.000 C 
ENDBRANCH  13  19
BRANCH   1  21
ATOM     21  O   UNL     1       7.412   6.381  16.690  0.00  0.00    +0.000 OA
BRANCH  21  23
ATOM     22  N   UNL     1       7.948   8.350  17.577  0.00  0.00    +0.000 N 
ATOM     23  C   UNL     1       7.793   7.024  17.819  0.00  0.00    +0.000 C 
ATOM     24  O   UNL     1       7.985   6.486  18.914  0.00  0.00    +0.000 OA
ATOM     25  H   UNL     1       7.763   8.647  16.625  0.00  0.00    +0.000 HD
BRANCH  22  26
ATOM     26  C   UNL     1       8.593   9.254  18.502  0.00  0.00    +0.000 C 
BRANCH  26  27
ATOM     27  C   UNL     1       8.790  10.649  17.901  0.00  0.00    +0.000 C 
BRANCH  27  29
ATOM     28  C   UNL     1      11.054  11.773  17.800  0.00  0.00    +0.000 C 
ATOM     29  C   UNL     1       9.840  11.463  18.662  0.00  0.00    +0.000 C 
ENDBRANCH  27  29
ENDBRANCH  26  27
ENDBRANCH  22  26
ENDBRANCH  21  23
ENDBRANCH   1  21
TORSDOF 6
ENDMDL
MODEL 3
REMARK VINA RESULT:      -7.7      0.960      1.100
REMARK  Name = 
REMARK  9 active torsions:
REMARK  status: ('A' for Active; 'I' for Inactive)
REMARK    1  A    between atoms: C_1  and  C_2
REMARK    2  A    between atoms: C_2  and  C_3
REMARK    3  A    between atoms: C_3  and  C_4
REMARK    4  A    between atoms: C_4  and  N_5
REMARK    5  A    between atoms: C_6  and  O_8
REMARK    6  A    between atoms: O_8  and  C_9
REMARK    7  A    between atoms: N_15  and  C_16
REMARK    8  A    between atoms: C_21  and  O_22
REMARK    9  A    between atoms: O_22  and  C_23
REMARK                            x       y       z     vdW  Elec       q    Type
REMARK                         _______ _______ _______ _____ _____    ______ ____
ROOT
ATOM      1  C   UNL     1       5.250   6.129  16.310  0.00  0.00    +0.000 C 
ATOM      2  C   UNL     1       5.021   4.978  17.289  0.00  0.00    +0.000 C 
ATOM      3  C   UNL     1       4.229   5.194  18.366  0.00  0.00    +0.000 C 
ATOM      4  C   UNL     1       2.888   5.890  18.227  0.00  0.00    +0.000 C 
ATOM      5  C   UNL     1       1.818   4.796  17.971  0.00  0.00    +0.000 C 
ATOM      6  C   UNL     1       1.826   3.673  19.048  0.00  0.00    +0.000 C 
ATOM      7  N   UNL     1       1.162   3.990  20.324  0.00  0.00    +0.000 NA
ATOM      8  C   UNL     1       1.095   2.764  21.144  0.00  0.00    +0.000 C 
ATOM      9  C   UNL     1       1.855   5.021  21.121  0.00  0.00    +0.000 C 
ATOM     10  C   UNL     1       1.827   6.416  20.563  0.00  0.00    +0.000 A 
ATOM     11  C   UNL     1       1.198   7.436  21.324  0.00  0.00    +0.000 A 
ATOM     12  C   UNL     1       1.061   8.749  20.835  0.00  0.00    +0.000 A 
ATOM     13  C   UNL     1       1.513   9.067  19.563  0.00  0.00    +0.000 A 
ATOM     14  C   UNL     1       2.124   8.050  18.830  0.00  0.00    +0.000 A 
ATOM     15  C   UNL     1       2.349   6.768  19.319  0.00  0.00    +0.000 A 
ATOM     16  O   UNL     1       2.425   8.219  17.506  0.00  0.00    +0.000 OA
ATOM     17  C   UNL     1       3.059   6.991  17.106  0.00  0.00    +0.000 C 
ATOM     18  C   UNL     1       4.545   7.358  16.862  0.00  0.00    +0.000 C 
ENDROOT
BRANCH  13  19
ATOM     19  O   UNL     1       1.395  10.280  18.946  0.00  0.00    +0.000 OA
ATOM     20  C   UNL     1       0.124  10.910  18.989  0.00  0.00    +0.000 C 
ENDBRANCH  13  19
BRANCH   1  21
ATOM     21  O   UNL     1       6.666   6.332  16.217  0.00  0.00    +0.000 OA
BRANCH  21  23
ATOM     22  N   UNL     1       7.276   5.466  14.259  0.00  0.00    +0.000 N 
ATOM     23  C   UNL     1       7.346   5.331  15.608  0.00  0.00    +0.000 C 
ATOM     24  O   UNL     1       7.938   4.417  16.190  0.00  0.00    +0.000 OA
ATOM     25  H   UNL     1       6.746   6.263  13.925  0.00  0.00    +0.000 HD
BRANCH  22  26
ATOM     26  C   UNL     1       7.673   4.426  13.339  0.00  0.00    +0.000 C 
BRANCH  26  27
ATOM     27  C   UNL     1       6.706   4.302  12.158  0.00  0.00    +0.000 C 
BRANCH  27  29
ATOM     28  C   UNL     1       4.482   3.305  11.480  0.00  0.00    +0.000 C 
ATOM     29  C   UNL     1       5.733   3.131  12.327  0.00  0.00    +0.000 C 
ENDBRANCH  27  29
ENDBRANCH  26  27
ENDBRANCH  22  26
ENDBRANCH  21  23
ENDBRANCH   1  21
TORSDOF 6
ENDMDL
MODEL 4
REMARK VINA RESULT:      -6.7      2.617      6.947
REMARK  Name = 
REMARK  9 active torsions:
REMARK  status: ('A' for Active; 'I' for Inactive)
REMARK    1  A    between atoms: C_1  and  C_2
REMARK    2  A    between atoms: C_2  and  C_3
REMARK    3  A    between atoms: C_3  and  C_4
REMARK    4  A    between atoms: C_4  and  N_5
REMARK    5  A    between atoms: C_6  and  O_8
REMARK    6  A    between atoms: O_8  and  C_9
REMARK    7  A    between atoms: N_15  and  C_16
REMARK    8  A    between atoms: C_21  and  O_22
REMARK    9  A    between atoms: O_22  and  C_23
REMARK                            x       y       z     vdW  Elec       q    Type
REMARK                         _______ _______ _______ _____ _____    ______ ____
ROOT
ATOM      1  C   UNL     1       2.694   8.717  18.116  0.00  0.00    +0.000 C 
ATOM      2  C   UNL     1       1.900   7.488  18.558  0.00  0.00    +0.000 C 
ATOM      3  C   UNL     1       2.300   6.270  18.122  0.00  0.00    +0.000 C 
ATOM      4  C   UNL     1       3.760   5.858  18.172  0.00  0.00    +0.000 C 
ATOM      5  C   UNL     1       4.004   5.173  19.542  0.00  0.00    +0.000 C 
ATOM      6  C   UNL     1       3.019   4.002  19.822  0.00  0.00    +0.000 C 
ATOM      7  N   UNL     1       3.321   2.723  19.156  0.00  0.00    +0.000 NA
ATOM      8  C   UNL     1       2.409   1.687  19.679  0.00  0.00    +0.000 C 
ATOM      9  C   UNL     1       3.160   2.758  17.689  0.00  0.00    +0.000 C 
ATOM     10  C   UNL     1       4.164   3.585  16.935  0.00  0.00    +0.000 A 
ATOM     11  C   UNL     1       5.004   2.935  15.994  0.00  0.00    +0.000 A 
ATOM     12  C   UNL     1       6.021   3.625  15.306  0.00  0.00    +0.000 A 
ATOM     13  C   UNL     1       6.248   4.967  15.568  0.00  0.00    +0.000 A 
ATOM     14  C   UNL     1       5.414   5.586  16.499  0.00  0.00    +0.000 A 
ATOM     15  C   UNL     1       4.349   4.953  17.129  0.00  0.00    +0.000 A 
ATOM     16  O   UNL     1       5.684   6.847  16.958  0.00  0.00    +0.000 OA
ATOM     17  C   UNL     1       4.610   7.154  17.865  0.00  0.00    +0.000 C 
ATOM     18  C   UNL     1       3.777   8.252  17.155  0.00  0.00    +0.000 C 
ENDROOT
BRANCH  13  19
ATOM     19  O   UNL     1       7.230   5.740  15.017  0.00  0.00    +0.000 OA
ATOM     20  C   UNL     1       7.703   5.371  13.731  0.00  0.00    +0.000 C 
ENDBRANCH  13  19
BRANCH   1  21
ATOM     21  O   UNL     1       1.772   9.610  17.476  0.00  0.00    +0.000 OA
BRANCH  21  23
ATOM     22  N   UNL     1      -0.425   9.961  17.540  0.00  0.00    +0.000 N 
ATOM     23  C   UNL     1       0.732  10.004  18.249  0.00  0.00    +0.000 C 
ATOM     24  O   UNL     1       0.817  10.361  19.429  0.00  0.00    +0.000 OA
ATOM     25  H   UNL     1      -0.338   9.654  16.578  0.00  0.00    +0.000 HD
BRANCH  22  26
ATOM     26  C   UNL     1      -1.656  10.562  17.998  0.00  0.00    +0.000 C 
BRANCH  26  27
ATOM     27  C   UNL     1      -2.889   9.819  17.475  0.00  0.00    +0.000 C 
BRANCH  27  29
ATOM     28  C   UNL     1      -3.035  10.315  14.999  0.00  0.00    +0.000 C 
ATOM     29  C   UNL     1      -3.613  10.602  16.376  0.00  0.00    +0.000 C 
ENDBRANCH  27  29
ENDBRANCH  26  27
ENDBRANCH  22  26
ENDBRANCH  21  23
ENDBRANCH   1  21
TORSDOF 6
ENDMDL
MODEL 5
REMARK VINA RESULT:      -6.7      6.332      9.313
REMARK  Name = 
REMARK  9 active torsions:
REMARK  status: ('A' for Active; 'I' for Inactive)
REMARK    1  A    between atoms: C_1  and  C_2
REMARK    2  A    between atoms: C_2  and  C_3
REMARK    3  A    between atoms: C_3  and  C_4
REMARK    4  A    between atoms: C_4  and  N_5
REMARK    5  A    between atoms: C_6  and  O_8
REMARK    6  A    between atoms: O_8  and  C_9
REMARK    7  A    between atoms: N_15  and  C_16
REMARK    8  A    between atoms: C_21  and  O_22
REMARK    9  A    between atoms: O_22  and  C_23
REMARK                            x       y       z     vdW  Elec       q    Type
REMARK                         _______ _______ _______ _____ _____    ______ ____
ROOT
ATOM      1  C   UNL     1      -2.530  10.947  16.653  0.00  0.00    +0.000 C 
ATOM      2  C   UNL     1      -3.241  11.771  17.726  0.00  0.00    +0.000 C 
ATOM      3  C   UNL     1      -2.857  11.619  19.016  0.00  0.00    +0.000 C 
ATOM      4  C   UNL     1      -1.390  11.613  19.404  0.00  0.00    +0.000 C 
ATOM      5  C   UNL     1      -0.984  13.078  19.715  0.00  0.00    +0.000 C 
ATOM      6  C   UNL     1      -1.903  13.752  20.775  0.00  0.00    +0.000 C 
ATOM      7  N   UNL     1      -1.639  13.405  22.182  0.00  0.00    +0.000 NA
ATOM      8  C   UNL     1      -2.463  14.270  23.049  0.00  0.00    +0.000 C 
ATOM      9  C   UNL     1      -1.954  12.003  22.523  0.00  0.00    +0.000 C 
ATOM     10  C   UNL     1      -1.058  10.960  21.918  0.00  0.00    +0.000 A 
ATOM     11  C   UNL     1      -0.304  10.129  22.788  0.00  0.00    +0.000 A 
ATOM     12  C   UNL     1       0.616   9.183  22.299  0.00  0.00    +0.000 A 
ATOM     13  C   UNL     1       0.834   9.068  20.934  0.00  0.00    +0.000 A 
ATOM     14  C   UNL     1       0.087   9.895  20.096  0.00  0.00    +0.000 A 
ATOM     15  C   UNL     1      -0.889  10.778  20.546  0.00  0.00    +0.000 A 
ATOM     16  O   UNL     1       0.370   9.987  18.760  0.00  0.00    +0.000 OA
ATOM     17  C   UNL     1      -0.611  10.896  18.231  0.00  0.00    +0.000 C 
ATOM     18  C   UNL     1      -1.543  10.025  17.350  0.00  0.00    +0.000 C 
ENDROOT
BRANCH  13  19
ATOM     19  O   UNL     1       1.732   8.235  20.329  0.00  0.00    +0.000 OA
ATOM     20  C   UNL     1       1.659   6.856  20.653  0.00  0.00    +0.000 C 
ENDBRANCH  13  19
BRANCH   1  21
ATOM     21  O   UNL     1      -3.538  10.206  15.951  0.00  0.00    +0.000 OA
BRANCH  21  23
ATOM     22  N   UNL     1      -4.475  10.136  13.934  0.00  0.00    +0.000 N 
ATOM     23  C   UNL     1      -3.310  10.050  14.625  0.00  0.00    +0.000 C 
ATOM     24  O   UNL     1      -2.205   9.849  14.112  0.00  0.00    +0.000 OA
ATOM     25  H   UNL     1      -5.306  10.296  14.492  0.00  0.00    +0.000 HD
BRANCH  22  26
ATOM     26  C   UNL     1      -4.600   9.756  12.545  0.00  0.00    +0.000 C 
BRANCH  26  27
ATOM     27  C   UNL     1      -5.992   9.204  12.223  0.00  0.00    +0.000 C 
BRANCH  27  29
ATOM     28  C   UNL     1      -7.850  10.582  11.198  0.00  0.00    +0.000 C 
ATOM     29  C   UNL     1      -6.569   9.805  10.937  0.00  0.00    +0.000 C 
ENDBRANCH  27  29
ENDBRANCH  26  27
ENDBRANCH  22  26
ENDBRANCH  21  23
ENDBRANCH   1  21
TORSDOF 6
ENDMDL
MODEL 6
REMARK VINA RESULT:      -6.6      3.491      5.000
REMARK  Name = 
REMARK  9 active torsions:
REMARK  status: ('A' for Active; 'I' for Inactive)
REMARK    1  A    between atoms: C_1  and  C_2
REMARK    2  A    between atoms: C_2  and  C_3
REMARK    3  A    between atoms: C_3  and  C_4
REMARK    4  A    between atoms: C_4  and  N_5
REMARK    5  A    between atoms: C_6  and  O_8
REMARK    6  A    between atoms: O_8  and  C_9
REMARK    7  A    between atoms: N_15  and  C_16
REMARK    8  A    between atoms: C_21  and  O_22
REMARK    9  A    between atoms: O_22  and  C_23
REMARK                            x       y       z     vdW  Elec       q    Type
REMARK                         _______ _______ _______ _____ _____    ______ ____
ROOT
ATOM      1  C   UNL     1       6.524   6.276  17.471  0.00  0.00    +0.000 C 
ATOM      2  C   UNL     1       6.179   5.166  18.463  0.00  0.00    +0.000 C 
ATOM      3  C   UNL     1       5.073   5.309  19.231  0.00  0.00    +0.000 C 
ATOM      4  C   UNL     1       3.751   5.752  18.630  0.00  0.00    +0.000 C 
ATOM      5  C   UNL     1       2.984   4.475  18.197  0.00  0.00    +0.000 C 
ATOM      6  C   UNL     1       2.827   3.439  19.348  0.00  0.00    +0.000 C 
ATOM      7  N   UNL     1       1.765   3.714  20.332  0.00  0.00    +0.000 NA
ATOM      8  C   UNL     1       1.631   2.549  21.227  0.00  0.00    +0.000 C 
ATOM      9  C   UNL     1       2.022   4.898  21.176  0.00  0.00    +0.000 C 
ATOM     10  C   UNL     1       1.961   6.229  20.482  0.00  0.00    +0.000 A 
ATOM     11  C   UNL     1       0.988   7.170  20.908  0.00  0.00    +0.000 A 
ATOM     12  C   UNL     1       0.816   8.407  20.257  0.00  0.00    +0.000 A 
ATOM     13  C   UNL     1       1.583   8.718  19.145  0.00  0.00    +0.000 A 
ATOM     14  C   UNL     1       2.532   7.779  18.740  0.00  0.00    +0.000 A 
ATOM     15  C   UNL     1       2.782   6.589  19.413  0.00  0.00    +0.000 A 
ATOM     16  O   UNL     1       3.195   7.915  17.551  0.00  0.00    +0.000 OA
ATOM     17  C   UNL     1       4.094   6.793  17.492  0.00  0.00    +0.000 C 
ATOM     18  C   UNL     1       5.513   7.396  17.653  0.00  0.00    +0.000 C 
ENDROOT
BRANCH  13  19
ATOM     19  O   UNL     1       1.483   9.851  18.389  0.00  0.00    +0.000 OA
ATOM     20  C   UNL     1       1.016  11.025  19.037  0.00  0.00    +0.000 C 
ENDBRANCH  13  19
BRANCH   1  21
ATOM     21  O   UNL     1       7.856   6.716  17.773  0.00  0.00    +0.000 OA
BRANCH  21  23
ATOM     22  N   UNL     1       8.788   8.419  18.861  0.00  0.00    +0.000 N 
ATOM     23  C   UNL     1       8.018   8.061  17.802  0.00  0.00    +0.000 C 
ATOM     24  O   UNL     1       7.530   8.854  16.992  0.00  0.00    +0.000 OA
ATOM     25  H   UNL     1       9.112   7.657  19.446  0.00  0.00    +0.000 HD
BRANCH  22  26
ATOM     26  C   UNL     1       8.927   9.785  19.312  0.00  0.00    +0.000 C 
BRANCH  26  27
ATOM     27  C   UNL     1       9.785  10.622  18.359  0.00  0.00    +0.000 C 
BRANCH  27  29
ATOM     28  C   UNL     1      10.471  11.781  20.501  0.00  0.00    +0.000 C 
ATOM     29  C   UNL     1      10.893  11.382  19.096  0.00  0.00    +0.000 C 
ENDBRANCH  27  29
ENDBRANCH  26  27
ENDBRANCH  22  26
ENDBRANCH  21  23
ENDBRANCH   1  21
TORSDOF 6
ENDMDL
MODEL 7
REMARK VINA RESULT:      -6.5      8.278     10.065
REMARK  Name = 
REMARK  9 active torsions:
REMARK  status: ('A' for Active; 'I' for Inactive)
REMARK    1  A    between atoms: C_1  and  C_2
REMARK    2  A    between atoms: C_2  and  C_3
REMARK    3  A    between atoms: C_3  and  C_4
REMARK    4  A    between atoms: C_4  and  N_5
REMARK    5  A    between atoms: C_6  and  O_8
REMARK    6  A    between atoms: O_8  and  C_9
REMARK    7  A    between atoms: N_15  and  C_16
REMARK    8  A    between atoms: C_21  and  O_22
REMARK    9  A    between atoms: O_22  and  C_23
REMARK                            x       y       z     vdW  Elec       q    Type
REMARK                         _______ _______ _______ _____ _____    ______ ____
ROOT
ATOM      1  C   UNL     1       9.234  10.095  18.560  0.00  0.00    +0.000 C 
ATOM      2  C   UNL     1       9.690  11.273  17.700  0.00  0.00    +0.000 C 
ATOM      3  C   UNL     1       9.726  12.506  18.260  0.00  0.00    +0.000 C 
ATOM      4  C   UNL     1      10.344  12.729  19.628  0.00  0.00    +0.000 C 
ATOM      5  C   UNL     1      11.846  13.054  19.413  0.00  0.00    +0.000 C 
ATOM      6  C   UNL     1      12.078  14.236  18.427  0.00  0.00    +0.000 C 
ATOM      7  N   UNL     1      11.888  15.590  18.975  0.00  0.00    +0.000 NA
ATOM      8  C   UNL     1      12.331  16.577  17.972  0.00  0.00    +0.000 C 
ATOM      9  C   UNL     1      10.487  15.905  19.321  0.00  0.00    +0.000 C 
ATOM     10  C   UNL     1       9.915  15.162  20.496  0.00  0.00    +0.000 A 
ATOM     11  C   UNL     1       9.488  15.909  21.625  0.00  0.00    +0.000 A 
ATOM     12  C   UNL     1       9.015  15.283  22.794  0.00  0.00    +0.000 A 
ATOM     13  C   UNL     1       8.991  13.899  22.878  0.00  0.00    +0.000 A 
ATOM     14  C   UNL     1       9.417  13.184  21.760  0.00  0.00    +0.000 A 
ATOM     15  C   UNL     1       9.809  13.774  20.563  0.00  0.00    +0.000 A 
ATOM     16  O   UNL     1       9.608  11.829  21.819  0.00  0.00    +0.000 OA
ATOM     17  C   UNL     1      10.013  11.449  20.493  0.00  0.00    +0.000 C 
ATOM     18  C   UNL     1       8.822  10.641  19.917  0.00  0.00    +0.000 C 
ENDROOT
BRANCH  13  19
ATOM     19  O   UNL     1       8.611  13.165  23.965  0.00  0.00    +0.000 OA
ATOM     20  C   UNL     1       7.296  13.369  24.459  0.00  0.00    +0.000 C 
ENDBRANCH  13  19
BRANCH   1  21
ATOM     21  O   UNL     1       8.130   9.478  17.883  0.00  0.00    +0.000 OA
BRANCH  21  23
ATOM     22  N   UNL     1       7.397   7.599  16.943  0.00  0.00    +0.000 N 
ATOM     23  C   UNL     1       8.079   8.129  17.990  0.00  0.00    +0.000 C 
ATOM     24  O   UNL     1       8.572   7.469  18.910  0.00  0.00    +0.000 OA
ATOM     25  H   UNL     1       7.043   8.266  16.267  0.00  0.00    +0.000 HD
BRANCH  22  26
ATOM     26  C   UNL     1       6.950   6.226  16.904  0.00  0.00    +0.000 C 
BRANCH  26  27
ATOM     27  C   UNL     1       5.579   6.085  16.236  0.00  0.00    +0.000 C 
BRANCH  27  29
ATOM     28  C   UNL     1       3.582   5.726  17.746  0.00  0.00    +0.000 C 
ATOM     29  C   UNL     1       4.466   6.750  17.052  0.00  0.00    +0.000 C 
ENDBRANCH  27  29
ENDBRANCH  26  27
ENDBRANCH  22  26
ENDBRANCH  21  23
ENDBRANCH   1  21
TORSDOF 6
ENDMDL
MODEL 8
REMARK VINA RESULT:      -6.4      2.274      3.790
REMARK  Name = 
REMARK  9 active torsions:
REMARK  status: ('A' for Active; 'I' for Inactive)
REMARK    1  A    between atoms: C_1  and  C_2
REMARK    2  A    between atoms: C_2  and  C_3
REMARK    3  A    between atoms: C_3  and  C_4
REMARK    4  A    between atoms: C_4  and  N_5
REMARK    5  A    between atoms: C_6  and  O_8
REMARK    6  A    between atoms: O_8  and  C_9
REMARK    7  A    between atoms: N_15  and  C_16
REMARK    8  A    between atoms: C_21  and  O_22
REMARK    9  A    between atoms: O_22  and  C_23
REMARK                            x       y       z     vdW  Elec       q    Type
REMARK                         _______ _______ _______ _____ _____    ______ ____
ROOT
ATOM      1  C   UNL     1       5.081   5.800  15.952  0.00  0.00    +0.000 C 
ATOM      2  C   UNL     1       4.889   4.701  16.996  0.00  0.00    +0.000 C 
ATOM      3  C   UNL     1       4.184   4.989  18.116  0.00  0.00    +0.000 C 
ATOM      4  C   UNL     1       2.858   5.723  18.041  0.00  0.00    +0.000 C 
ATOM      5  C   UNL     1       1.740   4.655  17.911  0.00  0.00    +0.000 C 
ATOM      6  C   UNL     1       1.792   3.579  19.035  0.00  0.00    +0.000 C 
ATOM      7  N   UNL     1       1.232   3.972  20.340  0.00  0.00    +0.000 NA
ATOM      8  C   UNL     1       1.188   2.786  21.216  0.00  0.00    +0.000 C 
ATOM      9  C   UNL     1       2.012   5.014  21.038  0.00  0.00    +0.000 C 
ATOM     10  C   UNL     1       1.985   6.383  20.421  0.00  0.00    +0.000 A 
ATOM     11  C   UNL     1       1.444   7.456  21.177  0.00  0.00    +0.000 A 
ATOM     12  C   UNL     1       1.311   8.750  20.640  0.00  0.00    +0.000 A 
ATOM     13  C   UNL     1       1.679   8.998  19.326  0.00  0.00    +0.000 A 
ATOM     14  C   UNL     1       2.205   7.931  18.599  0.00  0.00    +0.000 A 
ATOM     15  C   UNL     1       2.426   6.664  19.128  0.00  0.00    +0.000 A 
ATOM     16  O   UNL     1       2.414   8.032  17.250  0.00  0.00    +0.000 OA
ATOM     17  C   UNL     1       2.980   6.768  16.862  0.00  0.00    +0.000 C 
ATOM     18  C   UNL     1       4.455   7.075  16.497  0.00  0.00    +0.000 C 
ENDROOT
BRANCH  13  19
ATOM     19  O   UNL     1       1.553  10.186  18.665  0.00  0.00    +0.000 OA
ATOM     20  C   UNL     1       0.413  10.978  18.962  0.00  0.00    +0.000 C 
ENDBRANCH  13  19
BRANCH   1  21
ATOM     21  O   UNL     1       6.492   5.952  15.750  0.00  0.00    +0.000 OA
BRANCH  21  23
ATOM     22  N   UNL     1       7.189   6.596  17.763  0.00  0.00    +0.000 N 
ATOM     23  C   UNL     1       7.259   5.625  16.817  0.00  0.00    +0.000 C 
ATOM     24  O   UNL     1       7.936   4.597  16.919  0.00  0.00    +0.000 OA
ATOM     25  H   UNL     1       6.599   7.388  17.536  0.00  0.00    +0.000 HD
BRANCH  22  26
ATOM     26  C   UNL     1       8.088   6.666  18.893  0.00  0.00    +0.000 C 
BRANCH  26  27
ATOM     27  C   UNL     1       8.765   8.035  19.006  0.00  0.00    +0.000 C 
BRANCH  27  29
ATOM     28  C   UNL     1       8.692  10.449  18.253  0.00  0.00    +0.000 C 
ATOM     29  C   UNL     1       8.248   9.025  17.957  0.00  0.00    +0.000 C 
ENDBRANCH  27  29
ENDBRANCH  26  27
ENDBRANCH  22  26
ENDBRANCH  21  23
ENDBRANCH   1  21
TORSDOF 6
ENDMDL
MODEL 9
REMARK VINA RESULT:      -6.4      2.378      7.462
REMARK  Name = 
REMARK  9 active torsions:
REMARK  status: ('A' for Active; 'I' for Inactive)
REMARK    1  A    between atoms: C_1  and  C_2
REMARK    2  A    between atoms: C_2  and  C_3
REMARK    3  A    between atoms: C_3  and  C_4
REMARK    4  A    between atoms: C_4  and  N_5
REMARK    5  A    between atoms: C_6  and  O_8
REMARK    6  A    between atoms: O_8  and  C_9
REMARK    7  A    between atoms: N_15  and  C_16
REMARK    8  A    between atoms: C_21  and  O_22
REMARK    9  A    between atoms: O_22  and  C_23
REMARK                            x       y       z     vdW  Elec       q    Type
REMARK                         _______ _______ _______ _____ _____    ______ ____
ROOT
ATOM      1  C   UNL     1       2.658   8.680  18.143  0.00  0.00    +0.000 C 
ATOM      2  C   UNL     1       1.872   7.443  18.580  0.00  0.00    +0.000 C 
ATOM      3  C   UNL     1       2.280   6.230  18.136  0.00  0.00    +0.000 C 
ATOM      4  C   UNL     1       3.743   5.828  18.182  0.00  0.00    +0.000 C 
ATOM      5  C   UNL     1       3.994   5.138  19.548  0.00  0.00    +0.000 C 
ATOM      6  C   UNL     1       3.017   3.958  19.824  0.00  0.00    +0.000 C 
ATOM      7  N   UNL     1       3.327   2.685  19.151  0.00  0.00    +0.000 NA
ATOM      8  C   UNL     1       2.423   1.639  19.670  0.00  0.00    +0.000 C 
ATOM      9  C   UNL     1       3.163   2.727  17.684  0.00  0.00    +0.000 C 
ATOM     10  C   UNL     1       4.160   3.564  16.933  0.00  0.00    +0.000 A 
ATOM     11  C   UNL     1       5.003   2.925  15.987  0.00  0.00    +0.000 A 
ATOM     12  C   UNL     1       6.015   3.625  15.302  0.00  0.00    +0.000 A 
ATOM     13  C   UNL     1       6.233   4.968  15.570  0.00  0.00    +0.000 A 
ATOM     14  C   UNL     1       5.396   5.576  16.505  0.00  0.00    +0.000 A 
ATOM     15  C   UNL     1       4.336   4.932  17.134  0.00  0.00    +0.000 A 
ATOM     16  O   UNL     1       5.658   6.836  16.971  0.00  0.00    +0.000 OA
ATOM     17  C   UNL     1       4.584   7.131  17.880  0.00  0.00    +0.000 C 
ATOM     18  C   UNL     1       3.742   8.227  17.178  0.00  0.00    +0.000 C 
ENDROOT
BRANCH  13  19
ATOM     19  O   UNL     1       7.209   5.750  15.022  0.00  0.00    +0.000 OA
ATOM     20  C   UNL     1       7.687   5.386  13.736  0.00  0.00    +0.000 C 
ENDBRANCH  13  19
BRANCH   1  21
ATOM     21  O   UNL     1       1.729   9.570  17.510  0.00  0.00    +0.000 OA
BRANCH  21  23
ATOM     22  N   UNL     1       1.147  10.424  19.481  0.00  0.00    +0.000 N 
ATOM     23  C   UNL     1       0.692   9.960  18.289  0.00  0.00    +0.000 C 
ATOM     24  O   UNL     1      -0.500   9.894  17.973  0.00  0.00    +0.000 OA
ATOM     25  H   UNL     1       2.153  10.410  19.602  0.00  0.00    +0.000 HD
BRANCH  22  26
ATOM     26  C   UNL     1       0.286  10.667  20.616  0.00  0.00    +0.000 C 
BRANCH  26  27
ATOM     27  C   UNL     1       0.571   9.702  21.771  0.00  0.00    +0.000 C 
BRANCH  27  29
ATOM     28  C   UNL     1      -1.140  11.140  22.956  0.00  0.00    +0.000 C 
ATOM     29  C   UNL     1      -0.513   9.758  22.852  0.00  0.00    +0.000 C 
ENDBRANCH  27  29
ENDBRANCH  26  27
ENDBRANCH  22  26
ENDBRANCH  21  23
ENDBRANCH   1  21
TORSDOF 6
ENDMDL
