MODEL 1
REMARK VINA RESULT:      -7.1      0.000      0.000
REMARK  Name = 
REMARK  5 active torsions:
REMARK  status: ('A' for Active; 'I' for Inactive)
REMARK    1  A    between atoms: C_1  and  S_2
REMARK    2  A    between atoms: S_2  and  N_5
REMARK    3  A    between atoms: C_9  and  C_10
REMARK    4  A    between atoms: C_10  and  S_11
REMARK    5  A    between atoms: S_11  and  C_14
REMARK                            x       y       z     vdW  Elec       q    Type
REMARK                         _______ _______ _______ _____ _____    ______ ____
ROOT
ATOM      1  C   UNL     1       3.841   3.924  16.918  0.00  0.00    +0.000 C 
ENDROOT
BRANCH   1   6
ATOM      2  N   UNL     1       6.221   4.526  17.237  0.00  0.00    +0.000 NA
ATOM      3  C   UNL     1       7.102   4.168  16.104  0.00  0.00    +0.000 C 
ATOM      4  C   UNL     1       6.689   5.135  15.012  0.00  0.00    +0.000 C 
ATOM      5  C   UNL     1       5.186   5.241  15.188  0.00  0.00    +0.000 C 
ATOM      6  C   UNL     1       4.903   5.001  16.682  0.00  0.00    +0.000 C 
BRANCH   2   8
ATOM      7  C   UNL     1       7.307   6.972  17.806  0.00  0.00    +0.000 C 
ATOM      8  S   UNL     1       6.924   5.381  18.520  0.00  0.00    +0.000 S 
ATOM      9  O   UNL     1       8.177   4.734  18.838  0.00  0.00    +0.000 OA
ATOM     10  O   UNL     1       5.900   5.565  19.531  0.00  0.00    +0.000 OA
ENDBRANCH   2   8
ENDBRANCH   1   6
BRANCH   1  11
ATOM     11  S   UNL     1       2.425   4.579  17.788  0.00  0.00    +0.000 S 
ATOM     12  O   UNL     1       2.698   5.974  18.078  0.00  0.00    +0.000 OA
ATOM     13  O   UNL     1       1.215   4.197  17.087  0.00  0.00    +0.000 OA
BRANCH  11  14
ATOM     14  C   UNL     1       2.370   3.703  19.333  0.00  0.00    +0.000 A 
ATOM     15  C   UNL     1       3.519   3.064  19.812  0.00  0.00    +0.000 A 
ATOM     16  C   UNL     1       3.484   2.423  21.051  0.00  0.00    +0.000 A 
ATOM     17  C   UNL     1       2.311   2.423  21.807  0.00  0.00    +0.000 A 
ATOM     18  C   UNL     1       1.171   3.075  21.335  0.00  0.00    +0.000 A 
ATOM     19  C   UNL     1       1.199   3.726  20.100  0.00  0.00    +0.000 A 
ENDBRANCH  11  14
ENDBRANCH   1  11
TORSDOF 4
ENDMDL
MODEL 2
REMARK VINA RESULT:      -6.8      0.930      1.544
REMARK  Name = 
REMARK  5 active torsions:
REMARK  status: ('A' for Active; 'I' for Inactive)
REMARK    1  A    between atoms: C_1  and  S_2
REMARK    2  A    between atoms: S_2  and  N_5
REMARK    3  A    between atoms: C_9  and  C_10
REMARK    4  A    between atoms: C_10  and  S_11
REMARK    5  A    between atoms: S_11  and  C_14
REMARK                            x       y       z     vdW  Elec       q    Type
REMARK                         _______ _______ _______ _____ _____    ______ ____
ROOT
ATOM      1  C   UNL     1       3.956   3.791  16.956  0.00  0.00    +0.000 C 
ENDROOT
BRANCH   1   6
ATOM      2  N   UNL     1       6.358   4.370  16.802  0.00  0.00    +0.000 NA
ATOM      3  C   UNL     1       6.994   4.016  15.514  0.00  0.00    +0.000 C 
ATOM      4  C   UNL     1       6.382   4.997  14.534  0.00  0.00    +0.000 C 
ATOM      5  C   UNL     1       4.945   5.114  15.004  0.00  0.00    +0.000 C 
ATOM      6  C   UNL     1       4.961   4.861  16.523  0.00  0.00    +0.000 C 
BRANCH   2   8
ATOM      7  C   UNL     1       6.187   5.514  19.282  0.00  0.00    +0.000 C 
ATOM      8  S   UNL     1       7.310   5.207  17.928  0.00  0.00    +0.000 S 
ATOM      9  O   UNL     1       7.648   6.486  17.345  0.00  0.00    +0.000 OA
ATOM     10  O   UNL     1       8.342   4.297  18.384  0.00  0.00    +0.000 OA
ENDBRANCH   2   8
ENDBRANCH   1   6
BRANCH   1  11
ATOM     11  S   UNL     1       2.530   4.515  17.751  0.00  0.00    +0.000 S 
ATOM     12  O   UNL     1       2.809   5.924  17.952  0.00  0.00    +0.000 OA
ATOM     13  O   UNL     1       1.329   4.096  17.053  0.00  0.00    +0.000 OA
BRANCH  11  14
ATOM     14  C   UNL     1       2.436   3.745  19.351  0.00  0.00    +0.000 A 
ATOM     15  C   UNL     1       1.230   3.759  20.059  0.00  0.00    +0.000 A 
ATOM     16  C   UNL     1       1.149   3.106  21.291  0.00  0.00    +0.000 A 
ATOM     17  C   UNL     1       2.262   2.444  21.808  0.00  0.00    +0.000 A 
ATOM     18  C   UNL     1       3.460   2.419  21.092  0.00  0.00    +0.000 A 
ATOM     19  C   UNL     1       3.549   3.061  19.855  0.00  0.00    +0.000 A 
ENDBRANCH  11  14
ENDBRANCH   1  11
TORSDOF 4
ENDMDL
MODEL 3
REMARK VINA RESULT:      -6.8      1.122      1.767
REMARK  Name = 
REMARK  5 active torsions:
REMARK  status: ('A' for Active; 'I' for Inactive)
REMARK    1  A    between atoms: C_1  and  S_2
REMARK    2  A    between atoms: S_2  and  N_5
REMARK    3  A    between atoms: C_9  and  C_10
REMARK    4  A    between atoms: C_10  and  S_11
REMARK    5  A    between atoms: S_11  and  C_14
REMARK                            x       y       z     vdW  Elec       q    Type
REMARK                         _______ _______ _______ _____ _____    ______ ____
ROOT
ATOM      1  C   UNL     1       4.118   3.783  17.037  0.00  0.00    +0.000 C 
ENDROOT
BRANCH   1   6
ATOM      2  N   UNL     1       6.282   4.952  16.749  0.00  0.00    +0.000 NA
ATOM      3  C   UNL     1       7.204   4.310  15.786  0.00  0.00    +0.000 C 
ATOM      4  C   UNL     1       6.545   4.556  14.444  0.00  0.00    +0.000 C 
ATOM      5  C   UNL     1       5.066   4.412  14.746  0.00  0.00    +0.000 C 
ATOM      6  C   UNL     1       4.878   4.829  16.216  0.00  0.00    +0.000 C 
BRANCH   2   8
ATOM      7  C   UNL     1       7.575   5.947  18.945  0.00  0.00    +0.000 C 
ATOM      8  S   UNL     1       6.776   6.427  17.422  0.00  0.00    +0.000 S 
ATOM      9  O   UNL     1       5.583   7.166  17.771  0.00  0.00    +0.000 OA
ATOM     10  O   UNL     1       7.775   6.995  16.538  0.00  0.00    +0.000 OA
ENDBRANCH   2   8
ENDBRANCH   1   6
BRANCH   1  11
ATOM     11  S   UNL     1       2.604   4.451  17.708  0.00  0.00    +0.000 S 
ATOM     12  O   UNL     1       2.794   5.880  17.880  0.00  0.00    +0.000 OA
ATOM     13  O   UNL     1       1.479   3.946  16.946  0.00  0.00    +0.000 OA
BRANCH  11  14
ATOM     14  C   UNL     1       2.441   3.727  19.323  0.00  0.00    +0.000 A 
ATOM     15  C   UNL     1       1.195   3.716  19.958  0.00  0.00    +0.000 A 
ATOM     16  C   UNL     1       1.061   3.098  21.203  0.00  0.00    +0.000 A 
ATOM     17  C   UNL     1       2.164   2.494  21.806  0.00  0.00    +0.000 A 
ATOM     18  C   UNL     1       3.404   2.492  21.164  0.00  0.00    +0.000 A 
ATOM     19  C   UNL     1       3.545   3.100  19.915  0.00  0.00    +0.000 A 
ENDBRANCH  11  14
ENDBRANCH   1  11
TORSDOF 4
ENDMDL
MODEL 4
REMARK VINA RESULT:      -6.8      2.394      6.102
REMARK  Name = 
REMARK  5 active torsions:
REMARK  status: ('A' for Active; 'I' for Inactive)
REMARK    1  A    between atoms: C_1  and  S_2
REMARK    2  A    between atoms: S_2  and  N_5
REMARK    3  A    between atoms: C_9  and  C_10
REMARK    4  A    between atoms: C_10  and  S_11
REMARK    5  A    between atoms: S_11  and  C_14
REMARK                            x       y       z     vdW  Elec       q    Type
REMARK                         _______ _______ _______ _____ _____    ______ ____
ROOT
ATOM      1  C   UNL     1       4.272   3.546  16.419  0.00  0.00    +0.000 C 
ENDROOT
BRANCH   1   6
ATOM      2  N   UNL     1       2.858   4.223  18.336  0.00  0.00    +0.000 NA
ATOM      3  C   UNL     1       1.613   3.439  18.489  0.00  0.00    +0.000 C 
ATOM      4  C   UNL     1       2.103   2.077  18.940  0.00  0.00    +0.000 C 
ATOM      5  C   UNL     1       3.382   1.884  18.148  0.00  0.00    +0.000 C 
ATOM      6  C   UNL     1       3.956   3.290  17.896  0.00  0.00    +0.000 C 
BRANCH   2   8
ATOM      7  C   UNL     1       2.614   6.906  18.817  0.00  0.00    +0.000 C 
ATOM      8  S   UNL     1       3.195   5.376  19.532  0.00  0.00    +0.000 S 
ATOM      9  O   UNL     1       4.633   5.471  19.652  0.00  0.00    +0.000 OA
ATOM     10  O   UNL     1       2.368   5.063  20.682  0.00  0.00    +0.000 OA
ENDBRANCH   2   8
ENDBRANCH   1   6
BRANCH   1  11
ATOM     11  S   UNL     1       5.568   4.759  16.227  0.00  0.00    +0.000 S 
ATOM     12  O   UNL     1       4.956   6.071  16.320  0.00  0.00    +0.000 OA
ATOM     13  O   UNL     1       6.684   4.406  17.081  0.00  0.00    +0.000 OA
BRANCH  11  14
ATOM     14  C   UNL     1       6.165   4.555  14.565  0.00  0.00    +0.000 A 
ATOM     15  C   UNL     1       7.324   5.224  14.156  0.00  0.00    +0.000 A 
ATOM     16  C   UNL     1       7.818   5.018  12.866  0.00  0.00    +0.000 A 
ATOM     17  C   UNL     1       7.161   4.149  11.995  0.00  0.00    +0.000 A 
ATOM     18  C   UNL     1       6.015   3.470  12.411  0.00  0.00    +0.000 A 
ATOM     19  C   UNL     1       5.518   3.663  13.701  0.00  0.00    +0.000 A 
ENDBRANCH  11  14
ENDBRANCH   1  11
TORSDOF 4
ENDMDL
MODEL 5
REMARK VINA RESULT:      -6.7      2.286      6.498
REMARK  Name = 
REMARK  5 active torsions:
REMARK  status: ('A' for Active; 'I' for Inactive)
REMARK    1  A    between atoms: C_1  and  S_2
REMARK    2  A    between atoms: S_2  and  N_5
REMARK    3  A    between atoms: C_9  and  C_10
REMARK    4  A    between atoms: C_10  and  S_11
REMARK    5  A    between atoms: S_11  and  C_14
REMARK                            x       y       z     vdW  Elec       q    Type
REMARK                         _______ _______ _______ _____ _____    ______ ____
ROOT
ATOM      1  C   UNL     1       5.316   4.621  17.022  0.00  0.00    +0.000 C 
ENDROOT
BRANCH   1   6
ATOM      2  N   UNL     1       3.349   4.125  18.442  0.00  0.00    +0.000 NA
ATOM      3  C   UNL     1       3.354   4.803  19.757  0.00  0.00    +0.000 C 
ATOM      4  C   UNL     1       3.116   6.259  19.408  0.00  0.00    +0.000 C 
ATOM      5  C   UNL     1       3.899   6.444  18.122  0.00  0.00    +0.000 C 
ATOM      6  C   UNL     1       3.907   5.076  17.415  0.00  0.00    +0.000 C 
BRANCH   2   8
ATOM      7  C   UNL     1       1.181   2.951  19.629  0.00  0.00    +0.000 C 
ATOM      8  S   UNL     1       1.976   3.212  18.051  0.00  0.00    +0.000 S 
ATOM      9  O   UNL     1       2.431   1.925  17.575  0.00  0.00    +0.000 OA
ATOM     10  O   UNL     1       1.116   4.049  17.236  0.00  0.00    +0.000 OA
ENDBRANCH   2   8
ENDBRANCH   1   6
BRANCH   1  11
ATOM     11  S   UNL     1       6.112   5.808  15.951  0.00  0.00    +0.000 S 
ATOM     12  O   UNL     1       5.156   6.866  15.684  0.00  0.00    +0.000 OA
ATOM     13  O   UNL     1       7.426   6.121  16.478  0.00  0.00    +0.000 OA
BRANCH  11  14
ATOM     14  C   UNL     1       6.410   4.947  14.426  0.00  0.00    +0.000 A 
ATOM     15  C   UNL     1       5.533   3.939  14.013  0.00  0.00    +0.000 A 
ATOM     16  C   UNL     1       5.742   3.303  12.788  0.00  0.00    +0.000 A 
ATOM     17  C   UNL     1       6.819   3.673  11.982  0.00  0.00    +0.000 A 
ATOM     18  C   UNL     1       7.684   4.690  12.388  0.00  0.00    +0.000 A 
ATOM     19  C   UNL     1       7.478   5.338  13.608  0.00  0.00    +0.000 A 
ENDBRANCH  11  14
ENDBRANCH   1  11
TORSDOF 4
ENDMDL
MODEL 6
REMARK VINA RESULT:      -6.6      2.273      6.311
REMARK  Name = 
REMARK  5 active torsions:
REMARK  status: ('A' for Active; 'I' for Inactive)
REMARK    1  A    between atoms: C_1  and  S_2
REMARK    2  A    between atoms: S_2  and  N_5
REMARK    3  A    between atoms: C_9  and  C_10
REMARK    4  A    between atoms: C_10  and  S_11
REMARK    5  A    between atoms: S_11  and  C_14
REMARK                            x       y       z     vdW  Elec       q    Type
REMARK                         _______ _______ _______ _____ _____    ______ ____
ROOT
ATOM      1  C   UNL     1       4.382   3.542  16.415  0.00  0.00    +0.000 C 
ENDROOT
BRANCH   1   6
ATOM      2  N   UNL     1       2.798   4.355  18.134  0.00  0.00    +0.000 NA
ATOM      3  C   UNL     1       1.575   3.535  18.280  0.00  0.00    +0.000 C 
ATOM      4  C   UNL     1       2.079   2.254  18.914  0.00  0.00    +0.000 C 
ATOM      5  C   UNL     1       3.423   2.036  18.246  0.00  0.00    +0.000 C 
ATOM      6  C   UNL     1       3.961   3.432  17.883  0.00  0.00    +0.000 C 
BRANCH   2   8
ATOM      7  C   UNL     1       1.865   5.255  20.544  0.00  0.00    +0.000 C 
ATOM      8  S   UNL     1       2.994   5.644  19.217  0.00  0.00    +0.000 S 
ATOM      9  O   UNL     1       2.504   6.838  18.564  0.00  0.00    +0.000 OA
ATOM     10  O   UNL     1       4.349   5.576  19.731  0.00  0.00    +0.000 OA
ENDBRANCH   2   8
ENDBRANCH   1   6
BRANCH   1  11
ATOM     11  S   UNL     1       5.668   4.760  16.191  0.00  0.00    +0.000 S 
ATOM     12  O   UNL     1       5.044   6.069  16.238  0.00  0.00    +0.000 OA
ATOM     13  O   UNL     1       6.782   4.446  17.064  0.00  0.00    +0.000 OA
BRANCH  11  14
ATOM     14  C   UNL     1       6.279   4.508  14.541  0.00  0.00    +0.000 A 
ATOM     15  C   UNL     1       5.612   3.632  13.678  0.00  0.00    +0.000 A 
ATOM     16  C   UNL     1       6.065   3.479  12.367  0.00  0.00    +0.000 A 
ATOM     17  C   UNL     1       7.174   4.198  11.920  0.00  0.00    +0.000 A 
ATOM     18  C   UNL     1       7.828   5.085  12.777  0.00  0.00    +0.000 A 
ATOM     19  C   UNL     1       7.377   5.250  14.089  0.00  0.00    +0.000 A 
ENDBRANCH  11  14
ENDBRANCH   1  11
TORSDOF 4
ENDMDL
MODEL 7
REMARK VINA RESULT:      -6.6      1.907      2.690
REMARK  Name = 
REMARK  5 active torsions:
REMARK  status: ('A' for Active; 'I' for Inactive)
REMARK    1  A    between atoms: C_1  and  S_2
REMARK    2  A    between atoms: S_2  and  N_5
REMARK    3  A    between atoms: C_9  and  C_10
REMARK    4  A    between atoms: C_10  and  S_11
REMARK    5  A    between atoms: S_11  and  C_14
REMARK                            x       y       z     vdW  Elec       q    Type
REMARK                         _______ _______ _______ _____ _____    ______ ____
ROOT
ATOM      1  C   UNL     1       4.056   5.081  17.589  0.00  0.00    +0.000 C 
ENDROOT
BRANCH   1   6
ATOM      2  N   UNL     1       6.237   5.686  16.583  0.00  0.00    +0.000 NA
ATOM      3  C   UNL     1       6.849   6.913  17.136  0.00  0.00    +0.000 C 
ATOM      4  C   UNL     1       7.263   6.505  18.536  0.00  0.00    +0.000 C 
ATOM      5  C   UNL     1       6.138   5.593  18.984  0.00  0.00    +0.000 C 
ATOM      6  C   UNL     1       5.576   4.935  17.710  0.00  0.00    +0.000 C 
BRANCH   2   8
ATOM      7  C   UNL     1       5.910   3.898  14.538  0.00  0.00    +0.000 C 
ATOM      8  S   UNL     1       7.143   4.819  15.443  0.00  0.00    +0.000 S 
ATOM      9  O   UNL     1       7.953   3.865  16.167  0.00  0.00    +0.000 OA
ATOM     10  O   UNL     1       7.747   5.784  14.545  0.00  0.00    +0.000 OA
ENDBRANCH   2   8
ENDBRANCH   1   6
BRANCH   1  11
ATOM     11  S   UNL     1       3.250   3.489  17.503  0.00  0.00    +0.000 S 
ATOM     12  O   UNL     1       2.136   3.612  16.582  0.00  0.00    +0.000 OA
ATOM     13  O   UNL     1       4.250   2.457  17.313  0.00  0.00    +0.000 OA
BRANCH  11  14
ATOM     14  C   UNL     1       2.585   3.206  19.127  0.00  0.00    +0.000 A 
ATOM     15  C   UNL     1       3.414   2.718  20.142  0.00  0.00    +0.000 A 
ATOM     16  C   UNL     1       2.899   2.548  21.429  0.00  0.00    +0.000 A 
ATOM     17  C   UNL     1       1.568   2.867  21.698  0.00  0.00    +0.000 A 
ATOM     18  C   UNL     1       0.747   3.369  20.687  0.00  0.00    +0.000 A 
ATOM     19  C   UNL     1       1.255   3.550  19.399  0.00  0.00    +0.000 A 
ENDBRANCH  11  14
ENDBRANCH   1  11
TORSDOF 4
ENDMDL
MODEL 8
REMARK VINA RESULT:      -6.6      1.781      2.786
REMARK  Name = 
REMARK  5 active torsions:
REMARK  status: ('A' for Active; 'I' for Inactive)
REMARK    1  A    between atoms: C_1  and  S_2
REMARK    2  A    between atoms: S_2  and  N_5
REMARK    3  A    between atoms: C_9  and  C_10
REMARK    4  A    between atoms: C_10  and  S_11
REMARK    5  A    between atoms: S_11  and  C_14
REMARK                            x       y       z     vdW  Elec       q    Type
REMARK                         _______ _______ _______ _____ _____    ______ ____
ROOT
ATOM      1  C   UNL     1       3.797   5.125  17.528  0.00  0.00    +0.000 C 
ENDROOT
BRANCH   1   6
ATOM      2  N   UNL     1       6.136   5.612  16.877  0.00  0.00    +0.000 NA
ATOM      3  C   UNL     1       6.777   6.695  17.652  0.00  0.00    +0.000 C 
ATOM      4  C   UNL     1       6.966   6.086  19.027  0.00  0.00    +0.000 C 
ATOM      5  C   UNL     1       5.715   5.250  19.216  0.00  0.00    +0.000 C 
ATOM      6  C   UNL     1       5.269   4.808  17.810  0.00  0.00    +0.000 C 
BRANCH   2   8
ATOM      7  C   UNL     1       5.972   3.647  14.979  0.00  0.00    +0.000 C 
ATOM      8  S   UNL     1       7.103   4.793  15.750  0.00  0.00    +0.000 S 
ATOM      9  O   UNL     1       8.071   4.016  16.492  0.00  0.00    +0.000 OA
ATOM     10  O   UNL     1       7.525   5.761  14.757  0.00  0.00    +0.000 OA
ENDBRANCH   2   8
ENDBRANCH   1   6
BRANCH   1  11
ATOM     11  S   UNL     1       2.793   3.649  17.546  0.00  0.00    +0.000 S 
ATOM     12  O   UNL     1       1.532   3.969  16.905  0.00  0.00    +0.000 OA
ATOM     13  O   UNL     1       3.586   2.526  17.086  0.00  0.00    +0.000 OA
BRANCH  11  14
ATOM     14  C   UNL     1       2.464   3.320  19.262  0.00  0.00    +0.000 A 
ATOM     15  C   UNL     1       1.232   3.684  19.816  0.00  0.00    +0.000 A 
ATOM     16  C   UNL     1       0.959   3.375  21.149  0.00  0.00    +0.000 A 
ATOM     17  C   UNL     1       1.908   2.705  21.922  0.00  0.00    +0.000 A 
ATOM     18  C   UNL     1       3.130   2.328  21.363  0.00  0.00    +0.000 A 
ATOM     19  C   UNL     1       3.409   2.626  20.027  0.00  0.00    +0.000 A 
ENDBRANCH  11  14
ENDBRANCH   1  11
TORSDOF 4
ENDMDL
MODEL 9
REMARK VINA RESULT:      -6.6      2.237      6.229
REMARK  Name = 
REMARK  5 active torsions:
REMARK  status: ('A' for Active; 'I' for Inactive)
REMARK    1  A    between atoms: C_1  and  S_2
REMARK    2  A    between atoms: S_2  and  N_5
REMARK    3  A    between atoms: C_9  and  C_10
REMARK    4  A    between atoms: C_10  and  S_11
REMARK    5  A    between atoms: S_11  and  C_14
REMARK                            x       y       z     vdW  Elec       q    Type
REMARK                         _______ _______ _______ _____ _____    ______ ____
ROOT
ATOM      1  C   UNL     1       4.368   3.478  16.483  0.00  0.00    +0.000 C 
ENDROOT
BRANCH   1   6
ATOM      2  N   UNL     1       2.799   4.273  18.226  0.00  0.00    +0.000 NA
ATOM      3  C   UNL     1       1.554   3.482  18.340  0.00  0.00    +0.000 C 
ATOM      4  C   UNL     1       2.021   2.166  18.930  0.00  0.00    +0.000 C 
ATOM      5  C   UNL     1       3.361   1.935  18.258  0.00  0.00    +0.000 C 
ATOM      6  C   UNL     1       3.938   3.328  17.946  0.00  0.00    +0.000 C 
BRANCH   2   8
ATOM      7  C   UNL     1       2.032   5.010  20.747  0.00  0.00    +0.000 C 
ATOM      8  S   UNL     1       3.027   5.518  19.354  0.00  0.00    +0.000 S 
ATOM      9  O   UNL     1       2.428   6.715  18.805  0.00  0.00    +0.000 OA
ATOM     10  O   UNL     1       4.421   5.494  19.751  0.00  0.00    +0.000 OA
ENDBRANCH   2   8
ENDBRANCH   1   6
BRANCH   1  11
ATOM     11  S   UNL     1       5.631   4.726  16.295  0.00  0.00    +0.000 S 
ATOM     12  O   UNL     1       4.987   6.021  16.417  0.00  0.00    +0.000 OA
ATOM     13  O   UNL     1       6.766   4.388  17.132  0.00  0.00    +0.000 OA
BRANCH  11  14
ATOM     14  C   UNL     1       6.214   4.563  14.624  0.00  0.00    +0.000 A 
ATOM     15  C   UNL     1       7.348   5.271  14.211  0.00  0.00    +0.000 A 
ATOM     16  C   UNL     1       7.832   5.097  12.914  0.00  0.00    +0.000 A 
ATOM     17  C   UNL     1       7.191   4.222  12.037  0.00  0.00    +0.000 A 
ATOM     18  C   UNL     1       6.069   3.504  12.456  0.00  0.00    +0.000 A 
ATOM     19  C   UNL     1       5.582   3.665  13.755  0.00  0.00    +0.000 A 
ENDBRANCH  11  14
ENDBRANCH   1  11
TORSDOF 4
ENDMDL
