MODEL 1
REMARK VINA RESULT:      -6.1      0.000      0.000
REMARK  Name = 
REMARK  9 active torsions:
REMARK  status: ('A' for Active; 'I' for Inactive)
REMARK    1  A    between atoms: C_1  and  N_2
REMARK    2  A    between atoms: N_2  and  C_3
REMARK    3  A    between atoms: N_2  and  C_7
REMARK    4  A    between atoms: C_3  and  C_4
REMARK    5  A    between atoms: C_4  and  C_5
REMARK    6  A    between atoms: C_7  and  C_8
REMARK    7  A    between atoms: C_7  and  C_11
REMARK    8  A    between atoms: C_8  and  C_9
REMARK    9  A    between atoms: C_9  and  O_10
REMARK                            x       y       z     vdW  Elec       q    Type
REMARK                         _______ _______ _______ _____ _____    ______ ____
ROOT
ATOM      1  C   UNL     1       4.090   4.544  19.009  0.00  0.00    +0.000 C 
ENDROOT
BRANCH   1   2
ATOM      2  C   UNL     1       5.296   5.405  18.616  0.00  0.00    +0.000 A 
ATOM      3  C   UNL     1       5.172   6.314  17.551  0.00  0.00    +0.000 A 
ATOM      4  C   UNL     1       6.268   7.061  17.116  0.00  0.00    +0.000 A 
ATOM      5  C   UNL     1       7.507   6.908  17.733  0.00  0.00    +0.000 A 
ATOM      6  C   UNL     1       7.639   6.042  18.816  0.00  0.00    +0.000 A 
ATOM      7  C   UNL     1       6.536   5.317  19.271  0.00  0.00    +0.000 A 
ENDBRANCH   1   2
BRANCH   1   9
ATOM      8  C   UNL     1       1.939   4.694  17.831  0.00  0.00    +0.000 C 
ATOM      9  N   UNL     1       2.777   5.245  18.906  0.00  0.00    +0.000 NA
BRANCH   9  10
ATOM     10  C   UNL     1       2.005   5.272  20.177  0.00  0.00    +0.000 C 
BRANCH  10  11
ATOM     11  C   UNL     1       0.959   4.170  20.387  0.00  0.00    +0.000 C 
BRANCH  11  12
ATOM     12  C   UNL     1       1.446   3.181  21.354  0.00  0.00    +0.000 C 
ATOM     13  N   UNL     1       1.822   2.395  22.124  0.00  0.00    +0.000 NA
ENDBRANCH  11  12
ENDBRANCH  10  11
ENDBRANCH   9  10
ENDBRANCH   1   9
BRANCH   1  14
ATOM     14  C   UNL     1       4.172   3.180  18.277  0.00  0.00    +0.000 C 
BRANCH  14  15
ATOM     15  C   UNL     1       4.001   1.947  19.155  0.00  0.00    +0.000 C 
BRANCH  15  16
ATOM     16  O   UNL     1       3.966   0.788  18.322  0.00  0.00    +0.000 OA
ATOM     17  H   UNL     1       3.930   1.096  17.400  0.00  0.00    +0.000 HD
ENDBRANCH  15  16
ENDBRANCH  14  15
ENDBRANCH   1  14
TORSDOF 8
ENDMDL
MODEL 2
REMARK VINA RESULT:      -5.9      0.609      1.313
REMARK  Name = 
REMARK  9 active torsions:
REMARK  status: ('A' for Active; 'I' for Inactive)
REMARK    1  A    between atoms: C_1  and  N_2
REMARK    2  A    between atoms: N_2  and  C_3
REMARK    3  A    between atoms: N_2  and  C_7
REMARK    4  A    between atoms: C_3  and  C_4
REMARK    5  A    between atoms: C_4  and  C_5
REMARK    6  A    between atoms: C_7  and  C_8
REMARK    7  A    between atoms: C_7  and  C_11
REMARK    8  A    between atoms: C_8  and  C_9
REMARK    9  A    between atoms: C_9  and  O_10
REMARK                            x       y       z     vdW  Elec       q    Type
REMARK                         _______ _______ _______ _____ _____    ______ ____
ROOT
ATOM      1  C   UNL     1       3.818   4.256  18.539  0.00  0.00    +0.000 C 
ENDROOT
BRANCH   1   2
ATOM      2  C   UNL     1       5.047   5.065  18.110  0.00  0.00    +0.000 A 
ATOM      3  C   UNL     1       6.327   4.615  18.478  0.00  0.00    +0.000 A 
ATOM      4  C   UNL     1       7.465   5.364  18.170  0.00  0.00    +0.000 A 
ATOM      5  C   UNL     1       7.341   6.576  17.495  0.00  0.00    +0.000 A 
ATOM      6  C   UNL     1       6.085   7.018  17.088  0.00  0.00    +0.000 A 
ATOM      7  C   UNL     1       4.950   6.255  17.369  0.00  0.00    +0.000 A 
ENDBRANCH   1   2
BRANCH   1   9
ATOM      8  C   UNL     1       1.514   4.439  17.705  0.00  0.00    +0.000 C 
ATOM      9  N   UNL     1       2.547   5.037  18.564  0.00  0.00    +0.000 NA
BRANCH   9  10
ATOM     10  C   UNL     1       1.997   5.254  19.928  0.00  0.00    +0.000 C 
BRANCH  10  11
ATOM     11  C   UNL     1       1.080   4.165  20.498  0.00  0.00    +0.000 C 
BRANCH  11  12
ATOM     12  C   UNL     1       1.824   3.296  21.415  0.00  0.00    +0.000 C 
ATOM     13  N   UNL     1       2.423   2.608  22.136  0.00  0.00    +0.000 NA
ENDBRANCH  11  12
ENDBRANCH  10  11
ENDBRANCH   9  10
ENDBRANCH   1   9
BRANCH   1  14
ATOM     14  C   UNL     1       3.767   2.932  17.734  0.00  0.00    +0.000 C 
BRANCH  14  15
ATOM     15  C   UNL     1       3.337   1.699  18.515  0.00  0.00    +0.000 C 
BRANCH  15  16
ATOM     16  O   UNL     1       4.354   0.703  18.404  0.00  0.00    +0.000 OA
ATOM     17  H   UNL     1       3.962  -0.061  17.946  0.00  0.00    +0.000 HD
ENDBRANCH  15  16
ENDBRANCH  14  15
ENDBRANCH   1  14
TORSDOF 8
ENDMDL
MODEL 3
REMARK VINA RESULT:      -5.9      2.969      5.940
REMARK  Name = 
REMARK  9 active torsions:
REMARK  status: ('A' for Active; 'I' for Inactive)
REMARK    1  A    between atoms: C_1  and  N_2
REMARK    2  A    between atoms: N_2  and  C_3
REMARK    3  A    between atoms: N_2  and  C_7
REMARK    4  A    between atoms: C_3  and  C_4
REMARK    5  A    between atoms: C_4  and  C_5
REMARK    6  A    between atoms: C_7  and  C_8
REMARK    7  A    between atoms: C_7  and  C_11
REMARK    8  A    between atoms: C_8  and  C_9
REMARK    9  A    between atoms: C_9  and  O_10
REMARK                            x       y       z     vdW  Elec       q    Type
REMARK                         _______ _______ _______ _____ _____    ______ ____
ROOT
ATOM      1  C   UNL     1       4.819   5.041  16.854  0.00  0.00    +0.000 C 
ENDROOT
BRANCH   1   2
ATOM      2  C   UNL     1       3.688   4.140  17.364  0.00  0.00    +0.000 A 
ATOM      3  C   UNL     1       2.448   4.717  17.694  0.00  0.00    +0.000 A 
ATOM      4  C   UNL     1       1.419   3.941  18.232  0.00  0.00    +0.000 A 
ATOM      5  C   UNL     1       1.614   2.580  18.454  0.00  0.00    +0.000 A 
ATOM      6  C   UNL     1       2.821   1.985  18.096  0.00  0.00    +0.000 A 
ATOM      7  C   UNL     1       3.840   2.754  17.530  0.00  0.00    +0.000 A 
ENDBRANCH   1   2
BRANCH   1   9
ATOM      8  C   UNL     1       6.127   5.322  18.915  0.00  0.00    +0.000 C 
ATOM      9  N   UNL     1       5.345   5.999  17.870  0.00  0.00    +0.000 NA
BRANCH   9  10
ATOM     10  C   UNL     1       6.142   7.114  17.294  0.00  0.00    +0.000 C 
BRANCH  10  11
ATOM     11  C   UNL     1       7.639   7.153  17.628  0.00  0.00    +0.000 C 
BRANCH  11  12
ATOM     12  C   UNL     1       8.064   8.527  17.915  0.00  0.00    +0.000 C 
ATOM     13  N   UNL     1       8.399   9.618  18.133  0.00  0.00    +0.000 NA
ENDBRANCH  11  12
ENDBRANCH  10  11
ENDBRANCH   9  10
ENDBRANCH   1   9
BRANCH   1  14
ATOM     14  C   UNL     1       5.889   4.172  16.146  0.00  0.00    +0.000 C 
BRANCH  14  15
ATOM     15  C   UNL     1       6.201   4.551  14.705  0.00  0.00    +0.000 C 
BRANCH  15  16
ATOM     16  O   UNL     1       7.479   5.186  14.660  0.00  0.00    +0.000 OA
ATOM     17  H   UNL     1       8.103   4.613  15.139  0.00  0.00    +0.000 HD
ENDBRANCH  15  16
ENDBRANCH  14  15
ENDBRANCH   1  14
TORSDOF 8
ENDMDL
MODEL 4
REMARK VINA RESULT:      -5.8      3.338      6.174
REMARK  Name = 
REMARK  9 active torsions:
REMARK  status: ('A' for Active; 'I' for Inactive)
REMARK    1  A    between atoms: C_1  and  N_2
REMARK    2  A    between atoms: N_2  and  C_3
REMARK    3  A    between atoms: N_2  and  C_7
REMARK    4  A    between atoms: C_3  and  C_4
REMARK    5  A    between atoms: C_4  and  C_5
REMARK    6  A    between atoms: C_7  and  C_8
REMARK    7  A    between atoms: C_7  and  C_11
REMARK    8  A    between atoms: C_8  and  C_9
REMARK    9  A    between atoms: C_9  and  O_10
REMARK                            x       y       z     vdW  Elec       q    Type
REMARK                         _______ _______ _______ _____ _____    ______ ____
ROOT
ATOM      1  C   UNL     1       3.265   6.480  18.645  0.00  0.00    +0.000 C 
ENDROOT
BRANCH   1   2
ATOM      2  C   UNL     1       2.359   5.284  18.960  0.00  0.00    +0.000 A 
ATOM      3  C   UNL     1       1.916   5.088  20.280  0.00  0.00    +0.000 A 
ATOM      4  C   UNL     1       1.151   3.970  20.620  0.00  0.00    +0.000 A 
ATOM      5  C   UNL     1       0.822   3.029  19.648  0.00  0.00    +0.000 A 
ATOM      6  C   UNL     1       1.218   3.227  18.328  0.00  0.00    +0.000 A 
ATOM      7  C   UNL     1       1.957   4.360  17.981  0.00  0.00    +0.000 A 
ENDBRANCH   1   2
BRANCH   1   9
ATOM      8  C   UNL     1       5.054   4.798  18.705  0.00  0.00    +0.000 C 
ATOM      9  N   UNL     1       4.635   6.107  18.186  0.00  0.00    +0.000 NA
BRANCH   9  10
ATOM     10  C   UNL     1       4.807   6.138  16.710  0.00  0.00    +0.000 C 
BRANCH  10  11
ATOM     11  C   UNL     1       5.251   4.838  16.027  0.00  0.00    +0.000 C 
BRANCH  11  12
ATOM     12  C   UNL     1       6.504   5.047  15.295  0.00  0.00    +0.000 C 
ATOM     13  N   UNL     1       7.501   5.204  14.718  0.00  0.00    +0.000 NA
ENDBRANCH  11  12
ENDBRANCH  10  11
ENDBRANCH   9  10
ENDBRANCH   1   9
BRANCH   1  14
ATOM     14  C   UNL     1       2.506   7.473  17.729  0.00  0.00    +0.000 C 
BRANCH  14  15
ATOM     15  C   UNL     1       2.044   8.764  18.391  0.00  0.00    +0.000 C 
BRANCH  15  16
ATOM     16  O   UNL     1       1.817   9.747  17.381  0.00  0.00    +0.000 OA
ATOM     17  H   UNL     1       2.687  10.091  17.113  0.00  0.00    +0.000 HD
ENDBRANCH  15  16
ENDBRANCH  14  15
ENDBRANCH   1  14
TORSDOF 8
ENDMDL
MODEL 5
REMARK VINA RESULT:      -5.8      2.971      6.019
REMARK  Name = 
REMARK  9 active torsions:
REMARK  status: ('A' for Active; 'I' for Inactive)
REMARK    1  A    between atoms: C_1  and  N_2
REMARK    2  A    between atoms: N_2  and  C_3
REMARK    3  A    between atoms: N_2  and  C_7
REMARK    4  A    between atoms: C_3  and  C_4
REMARK    5  A    between atoms: C_4  and  C_5
REMARK    6  A    between atoms: C_7  and  C_8
REMARK    7  A    between atoms: C_7  and  C_11
REMARK    8  A    between atoms: C_8  and  C_9
REMARK    9  A    between atoms: C_9  and  O_10
REMARK                            x       y       z     vdW  Elec       q    Type
REMARK                         _______ _______ _______ _____ _____    ______ ____
ROOT
ATOM      1  C   UNL     1       4.701   5.102  16.877  0.00  0.00    +0.000 C 
ENDROOT
BRANCH   1   2
ATOM      2  C   UNL     1       3.592   4.220  17.462  0.00  0.00    +0.000 A 
ATOM      3  C   UNL     1       3.804   2.834  17.572  0.00  0.00    +0.000 A 
ATOM      4  C   UNL     1       2.791   1.989  18.029  0.00  0.00    +0.000 A 
ATOM      5  C   UNL     1       1.549   2.513  18.378  0.00  0.00    +0.000 A 
ATOM      6  C   UNL     1       1.334   3.887  18.313  0.00  0.00    +0.000 A 
ATOM      7  C   UNL     1       2.356   4.737  17.885  0.00  0.00    +0.000 A 
ENDBRANCH   1   2
BRANCH   1   9
ATOM      8  C   UNL     1       6.070   5.333  18.905  0.00  0.00    +0.000 C 
ATOM      9  N   UNL     1       5.318   6.041  17.859  0.00  0.00    +0.000 NA
BRANCH   9  10
ATOM     10  C   UNL     1       6.182   7.081  17.239  0.00  0.00    +0.000 C 
BRANCH  10  11
ATOM     11  C   UNL     1       7.651   7.127  17.681  0.00  0.00    +0.000 C 
BRANCH  11  12
ATOM     12  C   UNL     1       8.074   8.513  17.905  0.00  0.00    +0.000 C 
ATOM     13  N   UNL     1       8.401   9.614  18.087  0.00  0.00    +0.000 NA
ENDBRANCH  11  12
ENDBRANCH  10  11
ENDBRANCH   9  10
ENDBRANCH   1   9
BRANCH   1  14
ATOM     14  C   UNL     1       5.700   4.217  16.089  0.00  0.00    +0.000 C 
BRANCH  14  15
ATOM     15  C   UNL     1       5.827   4.525  14.604  0.00  0.00    +0.000 C 
BRANCH  15  16
ATOM     16  O   UNL     1       7.041   5.241  14.382  0.00  0.00    +0.000 OA
ATOM     17  H   UNL     1       7.561   4.734  13.734  0.00  0.00    +0.000 HD
ENDBRANCH  15  16
ENDBRANCH  14  15
ENDBRANCH   1  14
TORSDOF 8
ENDMDL
MODEL 6
REMARK VINA RESULT:      -5.8      1.626      1.946
REMARK  Name = 
REMARK  9 active torsions:
REMARK  status: ('A' for Active; 'I' for Inactive)
REMARK    1  A    between atoms: C_1  and  N_2
REMARK    2  A    between atoms: N_2  and  C_3
REMARK    3  A    between atoms: N_2  and  C_7
REMARK    4  A    between atoms: C_3  and  C_4
REMARK    5  A    between atoms: C_4  and  C_5
REMARK    6  A    between atoms: C_7  and  C_8
REMARK    7  A    between atoms: C_7  and  C_11
REMARK    8  A    between atoms: C_8  and  C_9
REMARK    9  A    between atoms: C_9  and  O_10
REMARK                            x       y       z     vdW  Elec       q    Type
REMARK                         _______ _______ _______ _____ _____    ______ ____
ROOT
ATOM      1  C   UNL     1       4.171   3.966  18.364  0.00  0.00    +0.000 C 
ENDROOT
BRANCH   1   2
ATOM      2  C   UNL     1       5.210   4.309  17.290  0.00  0.00    +0.000 A 
ATOM      3  C   UNL     1       6.155   5.318  17.547  0.00  0.00    +0.000 A 
ATOM      4  C   UNL     1       7.069   5.710  16.567  0.00  0.00    +0.000 A 
ATOM      5  C   UNL     1       7.051   5.104  15.313  0.00  0.00    +0.000 A 
ATOM      6  C   UNL     1       6.148   4.075  15.054  0.00  0.00    +0.000 A 
ATOM      7  C   UNL     1       5.254   3.662  16.043  0.00  0.00    +0.000 A 
ENDBRANCH   1   2
BRANCH   1   9
ATOM      8  C   UNL     1       1.946   4.884  17.869  0.00  0.00    +0.000 C 
ATOM      9  N   UNL     1       3.189   5.056  18.635  0.00  0.00    +0.000 NA
BRANCH   9  10
ATOM     10  C   UNL     1       2.866   5.233  20.076  0.00  0.00    +0.000 C 
BRANCH  10  11
ATOM     11  C   UNL     1       1.544   4.638  20.578  0.00  0.00    +0.000 C 
BRANCH  11  12
ATOM     12  C   UNL     1       1.796   3.437  21.381  0.00  0.00    +0.000 C 
ATOM     13  N   UNL     1       1.989   2.480  22.012  0.00  0.00    +0.000 NA
ENDBRANCH  11  12
ENDBRANCH  10  11
ENDBRANCH   9  10
ENDBRANCH   1   9
BRANCH   1  14
ATOM     14  C   UNL     1       3.553   2.578  18.057  0.00  0.00    +0.000 C 
BRANCH  14  15
ATOM     15  C   UNL     1       3.955   1.453  19.001  0.00  0.00    +0.000 C 
BRANCH  15  16
ATOM     16  O   UNL     1       4.925   1.947  19.923  0.00  0.00    +0.000 OA
ATOM     17  H   UNL     1       4.510   2.677  20.415  0.00  0.00    +0.000 HD
ENDBRANCH  15  16
ENDBRANCH  14  15
ENDBRANCH   1  14
TORSDOF 8
ENDMDL
MODEL 7
REMARK VINA RESULT:      -5.8      3.144      5.981
REMARK  Name = 
REMARK  9 active torsions:
REMARK  status: ('A' for Active; 'I' for Inactive)
REMARK    1  A    between atoms: C_1  and  N_2
REMARK    2  A    between atoms: N_2  and  C_3
REMARK    3  A    between atoms: N_2  and  C_7
REMARK    4  A    between atoms: C_3  and  C_4
REMARK    5  A    between atoms: C_4  and  C_5
REMARK    6  A    between atoms: C_7  and  C_8
REMARK    7  A    between atoms: C_7  and  C_11
REMARK    8  A    between atoms: C_8  and  C_9
REMARK    9  A    between atoms: C_9  and  O_10
REMARK                            x       y       z     vdW  Elec       q    Type
REMARK                         _______ _______ _______ _____ _____    ______ ____
ROOT
ATOM      1  C   UNL     1       3.226   6.348  18.589  0.00  0.00    +0.000 C 
ENDROOT
BRANCH   1   2
ATOM      2  C   UNL     1       2.315   5.168  18.950  0.00  0.00    +0.000 A 
ATOM      3  C   UNL     1       1.888   5.015  20.281  0.00  0.00    +0.000 A 
ATOM      4  C   UNL     1       1.120   3.913  20.663  0.00  0.00    +0.000 A 
ATOM      5  C   UNL     1       0.772   2.945  19.724  0.00  0.00    +0.000 A 
ATOM      6  C   UNL     1       1.153   3.101  18.394  0.00  0.00    +0.000 A 
ATOM      7  C   UNL     1       1.895   4.218  18.005  0.00  0.00    +0.000 A 
ENDBRANCH   1   2
BRANCH   1   9
ATOM      8  C   UNL     1       5.215   7.051  17.330  0.00  0.00    +0.000 C 
ATOM      9  N   UNL     1       4.560   5.951  18.052  0.00  0.00    +0.000 NA
BRANCH   9  10
ATOM     10  C   UNL     1       5.486   5.404  19.077  0.00  0.00    +0.000 C 
BRANCH  10  11
ATOM     11  C   UNL     1       6.981   5.709  18.908  0.00  0.00    +0.000 C 
BRANCH  11  12
ATOM     12  C   UNL     1       7.556   4.875  17.848  0.00  0.00    +0.000 C 
ATOM     13  N   UNL     1       8.020   4.221  17.007  0.00  0.00    +0.000 NA
ENDBRANCH  11  12
ENDBRANCH  10  11
ENDBRANCH   9  10
ENDBRANCH   1   9
BRANCH   1  14
ATOM     14  C   UNL     1       2.436   7.360  17.721  0.00  0.00    +0.000 C 
BRANCH  14  15
ATOM     15  C   UNL     1       2.074   8.673  18.400  0.00  0.00    +0.000 C 
BRANCH  15  16
ATOM     16  O   UNL     1       1.883   9.674  17.399  0.00  0.00    +0.000 OA
ATOM     17  H   UNL     1       1.912  10.538  17.846  0.00  0.00    +0.000 HD
ENDBRANCH  15  16
ENDBRANCH  14  15
ENDBRANCH   1  14
TORSDOF 8
ENDMDL
MODEL 8
REMARK VINA RESULT:      -5.7      2.758      5.610
REMARK  Name = 
REMARK  9 active torsions:
REMARK  status: ('A' for Active; 'I' for Inactive)
REMARK    1  A    between atoms: C_1  and  N_2
REMARK    2  A    between atoms: N_2  and  C_3
REMARK    3  A    between atoms: N_2  and  C_7
REMARK    4  A    between atoms: C_3  and  C_4
REMARK    5  A    between atoms: C_4  and  C_5
REMARK    6  A    between atoms: C_7  and  C_8
REMARK    7  A    between atoms: C_7  and  C_11
REMARK    8  A    between atoms: C_8  and  C_9
REMARK    9  A    between atoms: C_9  and  O_10
REMARK                            x       y       z     vdW  Elec       q    Type
REMARK                         _______ _______ _______ _____ _____    ______ ____
ROOT
ATOM      1  C   UNL     1       4.319   4.829  16.773  0.00  0.00    +0.000 C 
ENDROOT
BRANCH   1   2
ATOM      2  C   UNL     1       3.353   3.915  17.536  0.00  0.00    +0.000 A 
ATOM      3  C   UNL     1       3.817   2.680  18.022  0.00  0.00    +0.000 A 
ATOM      4  C   UNL     1       2.948   1.788  18.656  0.00  0.00    +0.000 A 
ATOM      5  C   UNL     1       1.603   2.114  18.809  0.00  0.00    +0.000 A 
ATOM      6  C   UNL     1       1.135   3.349  18.369  0.00  0.00    +0.000 A 
ATOM      7  C   UNL     1       2.008   4.254  17.763  0.00  0.00    +0.000 A 
ENDBRANCH   1   2
BRANCH   1   9
ATOM      8  C   UNL     1       3.800   6.922  17.950  0.00  0.00    +0.000 C 
ATOM      9  N   UNL     1       4.853   5.965  17.579  0.00  0.00    +0.000 NA
BRANCH   9  10
ATOM     10  C   UNL     1       5.599   5.547  18.795  0.00  0.00    +0.000 C 
BRANCH  10  11
ATOM     11  C   UNL     1       7.109   5.814  18.819  0.00  0.00    +0.000 C 
BRANCH  11  12
ATOM     12  C   UNL     1       7.458   6.865  17.858  0.00  0.00    +0.000 C 
ATOM     13  N   UNL     1       7.740   7.691  17.091  0.00  0.00    +0.000 NA
ENDBRANCH  11  12
ENDBRANCH  10  11
ENDBRANCH   9  10
ENDBRANCH   1   9
BRANCH   1  14
ATOM     14  C   UNL     1       5.388   3.964  16.058  0.00  0.00    +0.000 C 
BRANCH  14  15
ATOM     15  C   UNL     1       6.326   4.712  15.121  0.00  0.00    +0.000 C 
BRANCH  15  16
ATOM     16  O   UNL     1       5.847   6.047  14.958  0.00  0.00    +0.000 OA
ATOM     17  H   UNL     1       5.005   5.995  14.473  0.00  0.00    +0.000 HD
ENDBRANCH  15  16
ENDBRANCH  14  15
ENDBRANCH   1  14
TORSDOF 8
ENDMDL
MODEL 9
REMARK VINA RESULT:      -5.7      3.116      5.961
REMARK  Name = 
REMARK  9 active torsions:
REMARK  status: ('A' for Active; 'I' for Inactive)
REMARK    1  A    between atoms: C_1  and  N_2
REMARK    2  A    between atoms: N_2  and  C_3
REMARK    3  A    between atoms: N_2  and  C_7
REMARK    4  A    between atoms: C_3  and  C_4
REMARK    5  A    between atoms: C_4  and  C_5
REMARK    6  A    between atoms: C_7  and  C_8
REMARK    7  A    between atoms: C_7  and  C_11
REMARK    8  A    between atoms: C_8  and  C_9
REMARK    9  A    between atoms: C_9  and  O_10
REMARK                            x       y       z     vdW  Elec       q    Type
REMARK                         _______ _______ _______ _____ _____    ______ ____
ROOT
ATOM      1  C   UNL     1       4.912   4.381  18.241  0.00  0.00    +0.000 C 
ENDROOT
BRANCH   1   2
ATOM      2  C   UNL     1       3.529   4.115  18.847  0.00  0.00    +0.000 A 
ATOM      3  C   UNL     1       2.528   3.539  18.045  0.00  0.00    +0.000 A 
ATOM      4  C   UNL     1       1.236   3.351  18.539  0.00  0.00    +0.000 A 
ATOM      5  C   UNL     1       0.922   3.739  19.838  0.00  0.00    +0.000 A 
ATOM      6  C   UNL     1       1.910   4.274  20.660  0.00  0.00    +0.000 A 
ATOM      7  C   UNL     1       3.210   4.435  20.178  0.00  0.00    +0.000 A 
ENDBRANCH   1   2
BRANCH   1   9
ATOM      8  C   UNL     1       4.858   6.156  16.543  0.00  0.00    +0.000 C 
ATOM      9  N   UNL     1       4.891   4.707  16.785  0.00  0.00    +0.000 NA
BRANCH   9  10
ATOM     10  C   UNL     1       6.005   4.096  16.013  0.00  0.00    +0.000 C 
BRANCH  10  11
ATOM     11  C   UNL     1       5.922   4.170  14.482  0.00  0.00    +0.000 C 
BRANCH  11  12
ATOM     12  C   UNL     1       7.061   4.919  13.943  0.00  0.00    +0.000 C 
ATOM     13  N   UNL     1       7.959   5.522  13.518  0.00  0.00    +0.000 NA
ENDBRANCH  11  12
ENDBRANCH  10  11
ENDBRANCH   9  10
ENDBRANCH   1   9
BRANCH   1  14
ATOM     14  C   UNL     1       5.680   5.389  19.134  0.00  0.00    +0.000 C 
BRANCH  14  15
ATOM     15  C   UNL     1       7.199   5.319  19.055  0.00  0.00    +0.000 C 
BRANCH  15  16
ATOM     16  O   UNL     1       7.737   5.469  20.369  0.00  0.00    +0.000 OA
ATOM     17  H   UNL     1       8.505   6.063  20.300  0.00  0.00    +0.000 HD
ENDBRANCH  15  16
ENDBRANCH  14  15
ENDBRANCH   1  14
TORSDOF 8
ENDMDL
