MODEL 1
REMARK VINA RESULT:      -7.8      0.000      0.000
REMARK  Name = 
REMARK  12 active torsions:
REMARK  status: ('A' for Active; 'I' for Inactive)
REMARK    1  A    between atoms: C_1  and  O_2
REMARK    2  A    between atoms: O_2  and  C_3
REMARK    3  A    between atoms: C_6  and  C_7
REMARK    4  A    between atoms: C_7  and  N_8
REMARK    5  A    between atoms: C_9  and  C_10
REMARK    6  A    between atoms: C_10  and  O_12
REMARK    7  A    between atoms: C_13  and  C_14
REMARK    8  A    between atoms: C_14  and  N_15
REMARK    9  A    between atoms: N_15  and  C_16
REMARK   10  A    between atoms: C_16  and  C_17
REMARK   11  A    between atoms: C_17  and  C_18
REMARK   12  A    between atoms: C_28  and  C_29
REMARK                            x       y       z     vdW  Elec       q    Type
REMARK                         _______ _______ _______ _____ _____    ______ ____
ROOT
ATOM      1  N   UNL     1       6.420   5.762  16.732  0.00  0.00    +0.000 N 
ATOM      2  C   UNL     1       6.907   5.318  17.947  0.00  0.00    +0.000 A 
ATOM      3  C   UNL     1       5.805   4.463  18.172  0.00  0.00    +0.000 A 
ATOM      4  C   UNL     1       4.871   5.488  18.333  0.00  0.00    +0.000 A 
ATOM      5  C   UNL     1       3.701   5.576  19.086  0.00  0.00    +0.000 A 
ATOM      6  C   UNL     1       2.908   6.670  18.934  0.00  0.00    +0.000 A 
ATOM      7  C   UNL     1       3.215   7.635  17.970  0.00  0.00    +0.000 A 
ATOM      8  C   UNL     1       2.408   8.900  18.100  0.00  0.00    +0.000 C 
ATOM      9  C   UNL     1       4.301   7.440  17.011  0.00  0.00    +0.000 A 
ATOM     10  C   UNL     1       5.173   6.334  17.217  0.00  0.00    +0.000 A 
ENDROOT
BRANCH   2  11
ATOM     11  C   UNL     1       7.632   6.355  18.693  0.00  0.00    +0.000 C 
ATOM     12  O   UNL     1       7.947   7.462  18.270  0.00  0.00    +0.000 OA
BRANCH  11  13
ATOM     13  O   UNL     1       7.870   6.014  19.987  0.00  0.00    +0.000 OA
ATOM     14  H   UNL     1       8.707   5.524  20.067  0.00  0.00    +0.000 HD
ENDBRANCH  11  13
ENDBRANCH   2  11
BRANCH   1  15
ATOM     15  C   UNL     1       7.239   5.535  15.498  0.00  0.00    +0.000 C 
BRANCH  15  19
ATOM     16  C   UNL     1       5.388   3.287  11.993  0.00  0.00    +0.000 A 
ATOM     17  C   UNL     1       4.668   3.586  13.155  0.00  0.00    +0.000 A 
ATOM     18  C   UNL     1       5.274   4.243  14.277  0.00  0.00    +0.000 A 
ATOM     19  C   UNL     1       6.634   4.641  14.294  0.00  0.00    +0.000 A 
ATOM     20  C   UNL     1       7.317   4.306  13.101  0.00  0.00    +0.000 A 
ATOM     21  C   UNL     1       6.726   3.631  11.988  0.00  0.00    +0.000 A 
BRANCH  16  23
ATOM     22  C   UNL     1       3.444   3.211  10.565  0.00  0.00    +0.000 C 
ATOM     23  O   UNL     1       4.697   2.663  10.987  0.00  0.00    +0.000 OA
ENDBRANCH  16  23
ENDBRANCH  15  19
ENDBRANCH   1  15
BRANCH   3  24
ATOM     24  C   UNL     1       5.200   3.271  17.421  0.00  0.00    +0.000 C 
BRANCH  24  25
ATOM     25  N   UNL     1       3.959   3.588  16.752  0.00  0.00    +0.000 NA
ATOM     26  H   UNL     1       4.149   3.811  15.777  0.00  0.00    +0.000 HD
BRANCH  25  27
ATOM     27  C   UNL     1       2.992   2.495  16.835  0.00  0.00    +0.000 C 
BRANCH  27  28
ATOM     28  C   UNL     1       3.182   1.635  18.096  0.00  0.00    +0.000 C 
BRANCH  28  29
ATOM     29  C   UNL     1       2.550   2.194  19.338  0.00  0.00    +0.000 A 
ATOM     30  C   UNL     1       1.252   2.713  19.236  0.00  0.00    +0.000 A 
ATOM     31  C   UNL     1       0.644   3.315  20.332  0.00  0.00    +0.000 A 
ATOM     32  C   UNL     1       1.322   3.391  21.550  0.00  0.00    +0.000 A 
ATOM     33  C   UNL     1       2.612   2.880  21.666  0.00  0.00    +0.000 A 
ATOM     34  C   UNL     1       3.228   2.289  20.564  0.00  0.00    +0.000 A 
ATOM     35 CL   UNL     1       4.857   1.750  20.765  0.00  0.00    +0.000 Cl
ENDBRANCH  28  29
ENDBRANCH  27  28
ENDBRANCH  25  27
ENDBRANCH  24  25
ENDBRANCH   3  24
TORSDOF 10
ENDMDL
MODEL 2
REMARK VINA RESULT:      -7.6      6.121      9.419
REMARK  Name = 
REMARK  12 active torsions:
REMARK  status: ('A' for Active; 'I' for Inactive)
REMARK    1  A    between atoms: C_1  and  O_2
REMARK    2  A    between atoms: O_2  and  C_3
REMARK    3  A    between atoms: C_6  and  C_7
REMARK    4  A    between atoms: C_7  and  N_8
REMARK    5  A    between atoms: C_9  and  C_10
REMARK    6  A    between atoms: C_10  and  O_12
REMARK    7  A    between atoms: C_13  and  C_14
REMARK    8  A    between atoms: C_14  and  N_15
REMARK    9  A    between atoms: N_15  and  C_16
REMARK   10  A    between atoms: C_16  and  C_17
REMARK   11  A    between atoms: C_17  and  C_18
REMARK   12  A    between atoms: C_28  and  C_29
REMARK                            x       y       z     vdW  Elec       q    Type
REMARK                         _______ _______ _______ _____ _____    ______ ____
ROOT
ATOM      1  N   UNL     1       1.212   9.953  18.518  0.00  0.00    +0.000 N 
ATOM      2  C   UNL     1       1.410  11.195  19.091  0.00  0.00    +0.000 A 
ATOM      3  C   UNL     1       0.428  10.988  20.085  0.00  0.00    +0.000 A 
ATOM      4  C   UNL     1      -0.656  10.991  19.205  0.00  0.00    +0.000 A 
ATOM      5  C   UNL     1      -1.986  11.377  19.364  0.00  0.00    +0.000 A 
ATOM      6  C   UNL     1      -2.861  11.134  18.352  0.00  0.00    +0.000 A 
ATOM      7  C   UNL     1      -2.450  10.422  17.220  0.00  0.00    +0.000 A 
ATOM      8  C   UNL     1      -3.440  10.463  16.086  0.00  0.00    +0.000 C 
ATOM      9  C   UNL     1      -1.128   9.804  17.144  0.00  0.00    +0.000 A 
ATOM     10  C   UNL     1      -0.191  10.120  18.167  0.00  0.00    +0.000 A 
ENDROOT
BRANCH   2  11
ATOM     11  C   UNL     1       1.743  12.238  18.111  0.00  0.00    +0.000 C 
ATOM     12  O   UNL     1       1.358  13.401  18.135  0.00  0.00    +0.000 OA
BRANCH  11  13
ATOM     13  O   UNL     1       2.626  11.820  17.166  0.00  0.00    +0.000 OA
ATOM     14  H   UNL     1       2.376  10.945  16.821  0.00  0.00    +0.000 HD
ENDBRANCH  11  13
ENDBRANCH   2  11
BRANCH   1  15
ATOM     15  C   UNL     1       2.360   8.993  18.458  0.00  0.00    +0.000 C 
BRANCH  15  19
ATOM     16  C   UNL     1       2.072   4.648  19.801  0.00  0.00    +0.000 A 
ATOM     17  C   UNL     1       2.344   5.005  18.476  0.00  0.00    +0.000 A 
ATOM     18  C   UNL     1       2.376   6.374  18.050  0.00  0.00    +0.000 A 
ATOM     19  C   UNL     1       2.142   7.461  18.929  0.00  0.00    +0.000 A 
ATOM     20  C   UNL     1       1.861   7.044  20.251  0.00  0.00    +0.000 A 
ATOM     21  C   UNL     1       1.805   5.681  20.679  0.00  0.00    +0.000 A 
BRANCH  16  23
ATOM     22  C   UNL     1       2.120   2.894  21.458  0.00  0.00    +0.000 C 
ATOM     23  O   UNL     1       2.075   3.308  20.088  0.00  0.00    +0.000 OA
ENDBRANCH  16  23
ENDBRANCH  15  19
ENDBRANCH   1  15
BRANCH   3  24
ATOM     24  C   UNL     1       0.234   9.956  21.203  0.00  0.00    +0.000 C 
BRANCH  24  25
ATOM     25  N   UNL     1       0.177  10.545  22.521  0.00  0.00    +0.000 NA
ATOM     26  H   UNL     1       0.667  11.437  22.513  0.00  0.00    +0.000 HD
BRANCH  25  27
ATOM     27  C   UNL     1      -1.196  10.733  22.984  0.00  0.00    +0.000 C 
BRANCH  27  28
ATOM     28  C   UNL     1      -1.465  12.172  23.460  0.00  0.00    +0.000 C 
BRANCH  28  29
ATOM     29  C   UNL     1      -2.358  12.975  22.559  0.00  0.00    +0.000 A 
ATOM     30  C   UNL     1      -3.714  12.624  22.499  0.00  0.00    +0.000 A 
ATOM     31  C   UNL     1      -4.574  13.279  21.625  0.00  0.00    +0.000 A 
ATOM     32  C   UNL     1      -4.091  14.305  20.810  0.00  0.00    +0.000 A 
ATOM     33  C   UNL     1      -2.747  14.664  20.859  0.00  0.00    +0.000 A 
ATOM     34  C   UNL     1      -1.880  13.998  21.725  0.00  0.00    +0.000 A 
ATOM     35 CL   UNL     1      -0.213  14.446  21.671  0.00  0.00    +0.000 Cl
ENDBRANCH  28  29
ENDBRANCH  27  28
ENDBRANCH  25  27
ENDBRANCH  24  25
ENDBRANCH   3  24
TORSDOF 10
ENDMDL
MODEL 3
REMARK VINA RESULT:      -7.5      5.918      9.537
REMARK  Name = 
REMARK  12 active torsions:
REMARK  status: ('A' for Active; 'I' for Inactive)
REMARK    1  A    between atoms: C_1  and  O_2
REMARK    2  A    between atoms: O_2  and  C_3
REMARK    3  A    between atoms: C_6  and  C_7
REMARK    4  A    between atoms: C_7  and  N_8
REMARK    5  A    between atoms: C_9  and  C_10
REMARK    6  A    between atoms: C_10  and  O_12
REMARK    7  A    between atoms: C_13  and  C_14
REMARK    8  A    between atoms: C_14  and  N_15
REMARK    9  A    between atoms: N_15  and  C_16
REMARK   10  A    between atoms: C_16  and  C_17
REMARK   11  A    between atoms: C_17  and  C_18
REMARK   12  A    between atoms: C_28  and  C_29
REMARK                            x       y       z     vdW  Elec       q    Type
REMARK                         _______ _______ _______ _____ _____    ______ ____
ROOT
ATOM      1  N   UNL     1       0.391  11.759  19.839  0.00  0.00    +0.000 N 
ATOM      2  C   UNL     1       0.547  10.460  20.283  0.00  0.00    +0.000 A 
ATOM      3  C   UNL     1       0.752   9.950  18.982  0.00  0.00    +0.000 A 
ATOM      4  C   UNL     1      -0.549  10.192  18.537  0.00  0.00    +0.000 A 
ATOM      5  C   UNL     1      -1.353   9.541  17.602  0.00  0.00    +0.000 A 
ATOM      6  C   UNL     1      -2.549  10.096  17.270  0.00  0.00    +0.000 A 
ATOM      7  C   UNL     1      -2.913  11.345  17.785  0.00  0.00    +0.000 A 
ATOM      8  C   UNL     1      -4.357  11.702  17.543  0.00  0.00    +0.000 C 
ATOM      9  C   UNL     1      -1.982  12.148  18.574  0.00  0.00    +0.000 A 
ATOM     10  C   UNL     1      -0.763  11.537  18.981  0.00  0.00    +0.000 A 
ENDROOT
BRANCH   2  11
ATOM     11  C   UNL     1      -0.298  10.140  21.442  0.00  0.00    +0.000 C 
ATOM     12  O   UNL     1      -0.798  10.947  22.216  0.00  0.00    +0.000 OA
BRANCH  11  13
ATOM     13  O   UNL     1      -0.570   8.812  21.554  0.00  0.00    +0.000 OA
ATOM     14  H   UNL     1       0.004   8.396  22.221  0.00  0.00    +0.000 HD
ENDBRANCH  11  13
ENDBRANCH   2  11
BRANCH   1  15
ATOM     15  C   UNL     1       1.336  12.811  20.335  0.00  0.00    +0.000 C 
BRANCH  15  19
ATOM     16  C   UNL     1       0.831  16.990  18.590  0.00  0.00    +0.000 A 
ATOM     17  C   UNL     1       2.043  16.294  18.525  0.00  0.00    +0.000 A 
ATOM     18  C   UNL     1       2.210  15.002  19.128  0.00  0.00    +0.000 A 
ATOM     19  C   UNL     1       1.170  14.336  19.823  0.00  0.00    +0.000 A 
ATOM     20  C   UNL     1      -0.027  15.088  19.867  0.00  0.00    +0.000 A 
ATOM     21  C   UNL     1      -0.195  16.384  19.290  0.00  0.00    +0.000 A 
BRANCH  16  23
ATOM     22  C   UNL     1       1.202  18.308  16.603  0.00  0.00    +0.000 C 
ATOM     23  O   UNL     1       0.793  18.212  17.971  0.00  0.00    +0.000 OA
ENDBRANCH  16  23
ENDBRANCH  15  19
ENDBRANCH   1  15
BRANCH   3  24
ATOM     24  C   UNL     1       1.778  10.217  17.874  0.00  0.00    +0.000 C 
BRANCH  24  25
ATOM     25  N   UNL     1       2.634   9.085  17.603  0.00  0.00    +0.000 NA
ATOM     26  H   UNL     1       3.489   9.171  18.149  0.00  0.00    +0.000 HD
BRANCH  25  27
ATOM     27  C   UNL     1       1.978   7.813  17.898  0.00  0.00    +0.000 C 
BRANCH  27  28
ATOM     28  C   UNL     1       2.985   6.683  18.178  0.00  0.00    +0.000 C 
BRANCH  28  29
ATOM     29  C   UNL     1       2.369   5.388  18.618  0.00  0.00    +0.000 A 
ATOM     30  C   UNL     1       2.354   4.325  17.704  0.00  0.00    +0.000 A 
ATOM     31  C   UNL     1       1.727   3.126  18.025  0.00  0.00    +0.000 A 
ATOM     32  C   UNL     1       1.120   2.970  19.272  0.00  0.00    +0.000 A 
ATOM     33  C   UNL     1       1.127   4.016  20.190  0.00  0.00    +0.000 A 
ATOM     34  C   UNL     1       1.743   5.224  19.864  0.00  0.00    +0.000 A 
ATOM     35 CL   UNL     1       1.640   6.500  21.024  0.00  0.00    +0.000 Cl
ENDBRANCH  28  29
ENDBRANCH  27  28
ENDBRANCH  25  27
ENDBRANCH  24  25
ENDBRANCH   3  24
TORSDOF 10
ENDMDL
MODEL 4
REMARK VINA RESULT:      -7.5      6.644      9.651
REMARK  Name = 
REMARK  12 active torsions:
REMARK  status: ('A' for Active; 'I' for Inactive)
REMARK    1  A    between atoms: C_1  and  O_2
REMARK    2  A    between atoms: O_2  and  C_3
REMARK    3  A    between atoms: C_6  and  C_7
REMARK    4  A    between atoms: C_7  and  N_8
REMARK    5  A    between atoms: C_9  and  C_10
REMARK    6  A    between atoms: C_10  and  O_12
REMARK    7  A    between atoms: C_13  and  C_14
REMARK    8  A    between atoms: C_14  and  N_15
REMARK    9  A    between atoms: N_15  and  C_16
REMARK   10  A    between atoms: C_16  and  C_17
REMARK   11  A    between atoms: C_17  and  C_18
REMARK   12  A    between atoms: C_28  and  C_29
REMARK                            x       y       z     vdW  Elec       q    Type
REMARK                         _______ _______ _______ _____ _____    ______ ____
ROOT
ATOM      1  N   UNL     1       0.783  10.004  19.496  0.00  0.00    +0.000 N 
ATOM      2  C   UNL     1       1.393  11.222  19.265  0.00  0.00    +0.000 A 
ATOM      3  C   UNL     1       0.286  11.961  19.736  0.00  0.00    +0.000 A 
ATOM      4  C   UNL     1      -0.569  11.604  18.691  0.00  0.00    +0.000 A 
ATOM      5  C   UNL     1      -1.630  12.271  18.083  0.00  0.00    +0.000 A 
ATOM      6  C   UNL     1      -2.379  11.605  17.164  0.00  0.00    +0.000 A 
ATOM      7  C   UNL     1      -2.144  10.250  16.912  0.00  0.00    +0.000 A 
ATOM      8  C   UNL     1      -2.864   9.726  15.696  0.00  0.00    +0.000 C 
ATOM      9  C   UNL     1      -1.196   9.476  17.711  0.00  0.00    +0.000 A 
ATOM     10  C   UNL     1      -0.364  10.188  18.620  0.00  0.00    +0.000 A 
ENDROOT
BRANCH   2  11
ATOM     11  C   UNL     1       2.257  11.220  18.077  0.00  0.00    +0.000 C 
ATOM     12  O   UNL     1       2.613  10.233  17.444  0.00  0.00    +0.000 OA
BRANCH  11  13
ATOM     13  O   UNL     1       2.585  12.470  17.654  0.00  0.00    +0.000 OA
ATOM     14  H   UNL     1       3.352  12.443  17.056  0.00  0.00    +0.000 HD
ENDBRANCH  11  13
ENDBRANCH   2  11
BRANCH   1  15
ATOM     15  C   UNL     1       1.432   9.038  20.441  0.00  0.00    +0.000 C 
BRANCH  15  19
ATOM     16  C   UNL     1       2.708   4.872  19.107  0.00  0.00    +0.000 A 
ATOM     17  C   UNL     1       2.909   6.007  18.312  0.00  0.00    +0.000 A 
ATOM     18  C   UNL     1       2.452   7.305  18.715  0.00  0.00    +0.000 A 
ATOM     19  C   UNL     1       1.774   7.540  19.938  0.00  0.00    +0.000 A 
ATOM     20  C   UNL     1       1.589   6.360  20.694  0.00  0.00    +0.000 A 
ATOM     21  C   UNL     1       2.020   5.058  20.291  0.00  0.00    +0.000 A 
BRANCH  16  23
ATOM     22  C   UNL     1       4.314   3.078  19.271  0.00  0.00    +0.000 C 
ATOM     23  O   UNL     1       3.195   3.688  18.618  0.00  0.00    +0.000 OA
ENDBRANCH  16  23
ENDBRANCH  15  19
ENDBRANCH   1  15
BRANCH   3  24
ATOM     24  C   UNL     1      -0.468  12.034  21.070  0.00  0.00    +0.000 C 
BRANCH  24  25
ATOM     25  N   UNL     1      -0.569  13.375  21.597  0.00  0.00    +0.000 NA
ATOM     26  H   UNL     1      -1.035  13.971  20.916  0.00  0.00    +0.000 HD
BRANCH  25  27
ATOM     27  C   UNL     1      -1.285  13.417  22.870  0.00  0.00    +0.000 C 
BRANCH  27  28
ATOM     28  C   UNL     1      -2.176  12.181  23.085  0.00  0.00    +0.000 C 
BRANCH  28  29
ATOM     29  C   UNL     1      -3.639  12.480  23.232  0.00  0.00    +0.000 A 
ATOM     30  C   UNL     1      -4.198  12.402  24.516  0.00  0.00    +0.000 A 
ATOM     31  C   UNL     1      -5.563  12.591  24.705  0.00  0.00    +0.000 A 
ATOM     32  C   UNL     1      -6.384  12.875  23.612  0.00  0.00    +0.000 A 
ATOM     33  C   UNL     1      -5.843  12.955  22.332  0.00  0.00    +0.000 A 
ATOM     34  C   UNL     1      -4.478  12.752  22.140  0.00  0.00    +0.000 A 
ATOM     35 CL   UNL     1      -3.896  12.789  20.513  0.00  0.00    +0.000 Cl
ENDBRANCH  28  29
ENDBRANCH  27  28
ENDBRANCH  25  27
ENDBRANCH  24  25
ENDBRANCH   3  24
TORSDOF 10
ENDMDL
MODEL 5
REMARK VINA RESULT:      -7.4      6.008      9.460
REMARK  Name = 
REMARK  12 active torsions:
REMARK  status: ('A' for Active; 'I' for Inactive)
REMARK    1  A    between atoms: C_1  and  O_2
REMARK    2  A    between atoms: O_2  and  C_3
REMARK    3  A    between atoms: C_6  and  C_7
REMARK    4  A    between atoms: C_7  and  N_8
REMARK    5  A    between atoms: C_9  and  C_10
REMARK    6  A    between atoms: C_10  and  O_12
REMARK    7  A    between atoms: C_13  and  C_14
REMARK    8  A    between atoms: C_14  and  N_15
REMARK    9  A    between atoms: N_15  and  C_16
REMARK   10  A    between atoms: C_16  and  C_17
REMARK   11  A    between atoms: C_17  and  C_18
REMARK   12  A    between atoms: C_28  and  C_29
REMARK                            x       y       z     vdW  Elec       q    Type
REMARK                         _______ _______ _______ _____ _____    ______ ____
ROOT
ATOM      1  N   UNL     1       1.225  10.001  18.517  0.00  0.00    +0.000 N 
ATOM      2  C   UNL     1       1.388  11.237  19.113  0.00  0.00    +0.000 A 
ATOM      3  C   UNL     1       0.404  10.988  20.095  0.00  0.00    +0.000 A 
ATOM      4  C   UNL     1      -0.673  10.980  19.208  0.00  0.00    +0.000 A 
ATOM      5  C   UNL     1      -2.014  11.330  19.362  0.00  0.00    +0.000 A 
ATOM      6  C   UNL     1      -2.875  11.082  18.340  0.00  0.00    +0.000 A 
ATOM      7  C   UNL     1      -2.437  10.400  17.200  0.00  0.00    +0.000 A 
ATOM      8  C   UNL     1      -3.421  10.436  16.058  0.00  0.00    +0.000 C 
ATOM      9  C   UNL     1      -1.100   9.817  17.123  0.00  0.00    +0.000 A 
ATOM     10  C   UNL     1      -0.179  10.138  18.159  0.00  0.00    +0.000 A 
ENDROOT
BRANCH   2  11
ATOM     11  C   UNL     1       1.701  12.304  18.153  0.00  0.00    +0.000 C 
ATOM     12  O   UNL     1       1.302  13.462  18.204  0.00  0.00    +0.000 OA
BRANCH  11  13
ATOM     13  O   UNL     1       2.584  11.917  17.194  0.00  0.00    +0.000 OA
ATOM     14  H   UNL     1       3.289  12.578  17.084  0.00  0.00    +0.000 HD
ENDBRANCH  11  13
ENDBRANCH   2  11
BRANCH   1  15
ATOM     15  C   UNL     1       2.397   9.070  18.450  0.00  0.00    +0.000 C 
BRANCH  15  19
ATOM     16  C   UNL     1       2.219   4.706  19.750  0.00  0.00    +0.000 A 
ATOM     17  C   UNL     1       2.457   5.083  18.424  0.00  0.00    +0.000 A 
ATOM     18  C   UNL     1       2.454   6.457  18.013  0.00  0.00    +0.000 A 
ATOM     19  C   UNL     1       2.218   7.530  18.909  0.00  0.00    +0.000 A 
ATOM     20  C   UNL     1       1.973   7.093  20.231  0.00  0.00    +0.000 A 
ATOM     21  C   UNL     1       1.952   5.725  20.645  0.00  0.00    +0.000 A 
BRANCH  16  23
ATOM     22  C   UNL     1       1.182   2.781  20.772  0.00  0.00    +0.000 C 
ATOM     23  O   UNL     1       2.254   3.363  20.022  0.00  0.00    +0.000 OA
ENDBRANCH  16  23
ENDBRANCH  15  19
ENDBRANCH   1  15
BRANCH   3  24
ATOM     24  C   UNL     1       0.227   9.933  21.194  0.00  0.00    +0.000 C 
BRANCH  24  25
ATOM     25  N   UNL     1       0.156  10.497  22.522  0.00  0.00    +0.000 NA
ATOM     26  H   UNL     1       0.733  11.334  22.564  0.00  0.00    +0.000 HD
BRANCH  25  27
ATOM     27  C   UNL     1      -1.215  10.815  22.915  0.00  0.00    +0.000 C 
BRANCH  27  28
ATOM     28  C   UNL     1      -1.360  12.258  23.431  0.00  0.00    +0.000 C 
BRANCH  28  29
ATOM     29  C   UNL     1      -1.475  13.300  22.357  0.00  0.00    +0.000 A 
ATOM     30  C   UNL     1      -0.310  13.981  21.977  0.00  0.00    +0.000 A 
ATOM     31  C   UNL     1      -0.366  15.011  21.045  0.00  0.00    +0.000 A 
ATOM     32  C   UNL     1      -1.588  15.363  20.470  0.00  0.00    +0.000 A 
ATOM     33  C   UNL     1      -2.754  14.696  20.837  0.00  0.00    +0.000 A 
ATOM     34  C   UNL     1      -2.700  13.673  21.782  0.00  0.00    +0.000 A 
ATOM     35 CL   UNL     1      -4.199  12.947  22.244  0.00  0.00    +0.000 Cl
ENDBRANCH  28  29
ENDBRANCH  27  28
ENDBRANCH  25  27
ENDBRANCH  24  25
ENDBRANCH   3  24
TORSDOF 10
ENDMDL
MODEL 6
REMARK VINA RESULT:      -7.3      5.675      9.312
REMARK  Name = 
REMARK  12 active torsions:
REMARK  status: ('A' for Active; 'I' for Inactive)
REMARK    1  A    between atoms: C_1  and  O_2
REMARK    2  A    between atoms: O_2  and  C_3
REMARK    3  A    between atoms: C_6  and  C_7
REMARK    4  A    between atoms: C_7  and  N_8
REMARK    5  A    between atoms: C_9  and  C_10
REMARK    6  A    between atoms: C_10  and  O_12
REMARK    7  A    between atoms: C_13  and  C_14
REMARK    8  A    between atoms: C_14  and  N_15
REMARK    9  A    between atoms: N_15  and  C_16
REMARK   10  A    between atoms: C_16  and  C_17
REMARK   11  A    between atoms: C_17  and  C_18
REMARK   12  A    between atoms: C_28  and  C_29
REMARK                            x       y       z     vdW  Elec       q    Type
REMARK                         _______ _______ _______ _____ _____    ______ ____
ROOT
ATOM      1  N   UNL     1       0.509  11.623  20.391  0.00  0.00    +0.000 N 
ATOM      2  C   UNL     1       0.654  10.273  20.649  0.00  0.00    +0.000 A 
ATOM      3  C   UNL     1       0.731   9.933  19.281  0.00  0.00    +0.000 A 
ATOM      4  C   UNL     1      -0.594  10.264  18.986  0.00  0.00    +0.000 A 
ATOM      5  C   UNL     1      -1.495   9.761  18.050  0.00  0.00    +0.000 A 
ATOM      6  C   UNL     1      -2.694  10.385  17.898  0.00  0.00    +0.000 A 
ATOM      7  C   UNL     1      -2.968  11.564  18.599  0.00  0.00    +0.000 A 
ATOM      8  C   UNL     1      -4.413  11.986  18.533  0.00  0.00    +0.000 C 
ATOM      9  C   UNL     1      -1.945  12.234  19.400  0.00  0.00    +0.000 A 
ATOM     10  C   UNL     1      -0.720  11.544  19.616  0.00  0.00    +0.000 A 
ENDROOT
BRANCH   2  11
ATOM     11  C   UNL     1      -0.102   9.825  21.827  0.00  0.00    +0.000 C 
ATOM     12  O   UNL     1      -0.700   8.761  21.940  0.00  0.00    +0.000 OA
BRANCH  11  13
ATOM     13  O   UNL     1      -0.017  10.687  22.875  0.00  0.00    +0.000 OA
ATOM     14  H   UNL     1       0.635  10.376  23.527  0.00  0.00    +0.000 HD
ENDBRANCH  11  13
ENDBRANCH   2  11
BRANCH   1  15
ATOM     15  C   UNL     1       1.530  12.576  20.933  0.00  0.00    +0.000 C 
BRANCH  15  19
ATOM     16  C   UNL     1       2.039  16.505  18.682  0.00  0.00    +0.000 A 
ATOM     17  C   UNL     1       3.102  15.620  18.892  0.00  0.00    +0.000 A 
ATOM     18  C   UNL     1       2.946  14.413  19.651  0.00  0.00    +0.000 A 
ATOM     19  C   UNL     1       1.716  14.024  20.237  0.00  0.00    +0.000 A 
ATOM     20  C   UNL     1       0.680  14.958  20.004  0.00  0.00    +0.000 A 
ATOM     21  C   UNL     1       0.832  16.174  19.268  0.00  0.00    +0.000 A 
BRANCH  16  23
ATOM     22  C   UNL     1       2.353  17.506  16.509  0.00  0.00    +0.000 C 
ATOM     23  O   UNL     1       2.309  17.622  17.935  0.00  0.00    +0.000 OA
ENDBRANCH  16  23
ENDBRANCH  15  19
ENDBRANCH   1  15
BRANCH   3  24
ATOM     24  C   UNL     1       1.669  10.317  18.130  0.00  0.00    +0.000 C 
BRANCH  24  25
ATOM     25  N   UNL     1       2.452   9.207  17.637  0.00  0.00    +0.000 NA
ATOM     26  H   UNL     1       3.441   9.410  17.764  0.00  0.00    +0.000 HD
BRANCH  25  27
ATOM     27  C   UNL     1       2.110   7.951  18.300  0.00  0.00    +0.000 C 
BRANCH  27  28
ATOM     28  C   UNL     1       3.067   6.807  17.922  0.00  0.00    +0.000 C 
BRANCH  28  29
ATOM     29  C   UNL     1       2.958   5.586  18.789  0.00  0.00    +0.000 A 
ATOM     30  C   UNL     1       2.172   5.672  19.947  0.00  0.00    +0.000 A 
ATOM     31  C   UNL     1       2.097   4.600  20.830  0.00  0.00    +0.000 A 
ATOM     32  C   UNL     1       2.795   3.423  20.557  0.00  0.00    +0.000 A 
ATOM     33  C   UNL     1       3.579   3.323  19.411  0.00  0.00    +0.000 A 
ATOM     34  C   UNL     1       3.667   4.401  18.532  0.00  0.00    +0.000 A 
ATOM     35 CL   UNL     1       4.722   4.229  17.175  0.00  0.00    +0.000 Cl
ENDBRANCH  28  29
ENDBRANCH  27  28
ENDBRANCH  25  27
ENDBRANCH  24  25
ENDBRANCH   3  24
TORSDOF 10
ENDMDL
MODEL 7
REMARK VINA RESULT:      -7.3      6.644      9.681
REMARK  Name = 
REMARK  12 active torsions:
REMARK  status: ('A' for Active; 'I' for Inactive)
REMARK    1  A    between atoms: C_1  and  O_2
REMARK    2  A    between atoms: O_2  and  C_3
REMARK    3  A    between atoms: C_6  and  C_7
REMARK    4  A    between atoms: C_7  and  N_8
REMARK    5  A    between atoms: C_9  and  C_10
REMARK    6  A    between atoms: C_10  and  O_12
REMARK    7  A    between atoms: C_13  and  C_14
REMARK    8  A    between atoms: C_14  and  N_15
REMARK    9  A    between atoms: N_15  and  C_16
REMARK   10  A    between atoms: C_16  and  C_17
REMARK   11  A    between atoms: C_17  and  C_18
REMARK   12  A    between atoms: C_28  and  C_29
REMARK                            x       y       z     vdW  Elec       q    Type
REMARK                         _______ _______ _______ _____ _____    ______ ____
ROOT
ATOM      1  N   UNL     1       0.935  10.085  19.571  0.00  0.00    +0.000 N 
ATOM      2  C   UNL     1       1.387  11.388  19.473  0.00  0.00    +0.000 A 
ATOM      3  C   UNL     1       0.227  11.925  20.074  0.00  0.00    +0.000 A 
ATOM      4  C   UNL     1      -0.632  11.596  19.023  0.00  0.00    +0.000 A 
ATOM      5  C   UNL     1      -1.793  12.199  18.544  0.00  0.00    +0.000 A 
ATOM      6  C   UNL     1      -2.506  11.563  17.575  0.00  0.00    +0.000 A 
ATOM      7  C   UNL     1      -2.129  10.287  17.146  0.00  0.00    +0.000 A 
ATOM      8  C   UNL     1      -2.844   9.831  15.900  0.00  0.00    +0.000 C 
ATOM      9  C   UNL     1      -1.058   9.542  17.806  0.00  0.00    +0.000 A 
ATOM     10  C   UNL     1      -0.268  10.234  18.766  0.00  0.00    +0.000 A 
ENDROOT
BRANCH   2  11
ATOM     11  C   UNL     1       2.184  11.635  18.264  0.00  0.00    +0.000 C 
ATOM     12  O   UNL     1       2.780  12.670  17.990  0.00  0.00    +0.000 OA
BRANCH  11  13
ATOM     13  O   UNL     1       2.287  10.542  17.461  0.00  0.00    +0.000 OA
ATOM     14  H   UNL     1       2.155  10.784  16.528  0.00  0.00    +0.000 HD
ENDBRANCH  11  13
ENDBRANCH   2  11
BRANCH   1  15
ATOM     15  C   UNL     1       1.738   9.098  20.361  0.00  0.00    +0.000 C 
BRANCH  15  19
ATOM     16  C   UNL     1       2.542   4.866  18.875  0.00  0.00    +0.000 A 
ATOM     17  C   UNL     1       2.807   5.997  18.094  0.00  0.00    +0.000 A 
ATOM     18  C   UNL     1       2.498   7.322  18.547  0.00  0.00    +0.000 A 
ATOM     19  C   UNL     1       1.910   7.588  19.810  0.00  0.00    +0.000 A 
ATOM     20  C   UNL     1       1.654   6.412  20.552  0.00  0.00    +0.000 A 
ATOM     21  C   UNL     1       1.938   5.086  20.099  0.00  0.00    +0.000 A 
BRANCH  16  23
ATOM     22  C   UNL     1       3.669   3.627  17.138  0.00  0.00    +0.000 C 
ATOM     23  O   UNL     1       2.888   3.654  18.337  0.00  0.00    +0.000 OA
ENDBRANCH  16  23
ENDBRANCH  15  19
ENDBRANCH   1  15
BRANCH   3  24
ATOM     24  C   UNL     1      -0.461  11.744  21.433  0.00  0.00    +0.000 C 
BRANCH  24  25
ATOM     25  N   UNL     1      -0.261  12.859  22.328  0.00  0.00    +0.000 NA
ATOM     26  H   UNL     1      -0.054  13.695  21.784  0.00  0.00    +0.000 HD
BRANCH  25  27
ATOM     27  C   UNL     1      -1.420  13.095  23.185  0.00  0.00    +0.000 C 
BRANCH  27  28
ATOM     28  C   UNL     1      -2.564  12.103  22.914  0.00  0.00    +0.000 C 
BRANCH  28  29
ATOM     29  C   UNL     1      -3.866  12.738  22.518  0.00  0.00    +0.000 A 
ATOM     30  C   UNL     1      -3.965  13.278  21.228  0.00  0.00    +0.000 A 
ATOM     31  C   UNL     1      -5.116  13.948  20.830  0.00  0.00    +0.000 A 
ATOM     32  C   UNL     1      -6.189  14.074  21.714  0.00  0.00    +0.000 A 
ATOM     33  C   UNL     1      -6.105  13.543  22.998  0.00  0.00    +0.000 A 
ATOM     34  C   UNL     1      -4.946  12.883  23.403  0.00  0.00    +0.000 A 
ATOM     35 CL   UNL     1      -4.887  12.322  25.036  0.00  0.00    +0.000 Cl
ENDBRANCH  28  29
ENDBRANCH  27  28
ENDBRANCH  25  27
ENDBRANCH  24  25
ENDBRANCH   3  24
TORSDOF 10
ENDMDL
MODEL 8
REMARK VINA RESULT:      -7.3      5.688      9.279
REMARK  Name = 
REMARK  12 active torsions:
REMARK  status: ('A' for Active; 'I' for Inactive)
REMARK    1  A    between atoms: C_1  and  O_2
REMARK    2  A    between atoms: O_2  and  C_3
REMARK    3  A    between atoms: C_6  and  C_7
REMARK    4  A    between atoms: C_7  and  N_8
REMARK    5  A    between atoms: C_9  and  C_10
REMARK    6  A    between atoms: C_10  and  O_12
REMARK    7  A    between atoms: C_13  and  C_14
REMARK    8  A    between atoms: C_14  and  N_15
REMARK    9  A    between atoms: N_15  and  C_16
REMARK   10  A    between atoms: C_16  and  C_17
REMARK   11  A    between atoms: C_17  and  C_18
REMARK   12  A    between atoms: C_28  and  C_29
REMARK                            x       y       z     vdW  Elec       q    Type
REMARK                         _______ _______ _______ _____ _____    ______ ____
ROOT
ATOM      1  N   UNL     1       0.201  11.499  20.230  0.00  0.00    +0.000 N 
ATOM      2  C   UNL     1       0.275  10.149  20.517  0.00  0.00    +0.000 A 
ATOM      3  C   UNL     1       0.224   9.771  19.157  0.00  0.00    +0.000 A 
ATOM      4  C   UNL     1      -1.094  10.185  18.952  0.00  0.00    +0.000 A 
ATOM      5  C   UNL     1      -2.096   9.722  18.101  0.00  0.00    +0.000 A 
ATOM      6  C   UNL     1      -3.258  10.423  18.020  0.00  0.00    +0.000 A 
ATOM      7  C   UNL     1      -3.399  11.635  18.704  0.00  0.00    +0.000 A 
ATOM      8  C   UNL     1      -4.813  12.154  18.732  0.00  0.00    +0.000 C 
ATOM      9  C   UNL     1      -2.276  12.253  19.406  0.00  0.00    +0.000 A 
ATOM     10  C   UNL     1      -1.086  11.486  19.551  0.00  0.00    +0.000 A 
ENDROOT
BRANCH   2  11
ATOM     11  C   UNL     1      -0.417   9.783  21.760  0.00  0.00    +0.000 C 
ATOM     12  O   UNL     1      -0.818  10.560  22.619  0.00  0.00    +0.000 OA
BRANCH  11  13
ATOM     13  O   UNL     1      -0.670   8.451  21.858  0.00  0.00    +0.000 OA
ATOM     14  H   UNL     1      -0.078   7.942  21.277  0.00  0.00    +0.000 HD
ENDBRANCH  11  13
ENDBRANCH   2  11
BRANCH   1  15
ATOM     15  C   UNL     1       1.322  12.393  20.666  0.00  0.00    +0.000 C 
BRANCH  15  19
ATOM     16  C   UNL     1       2.710  16.032  18.300  0.00  0.00    +0.000 A 
ATOM     17  C   UNL     1       1.824  16.134  19.379  0.00  0.00    +0.000 A 
ATOM     18  C   UNL     1       1.348  14.978  20.082  0.00  0.00    +0.000 A 
ATOM     19  C   UNL     1       1.736  13.656  19.746  0.00  0.00    +0.000 A 
ATOM     20  C   UNL     1       2.621  13.611  18.643  0.00  0.00    +0.000 A 
ATOM     21  C   UNL     1       3.083  14.756  17.923  0.00  0.00    +0.000 A 
BRANCH  16  23
ATOM     22  C   UNL     1       2.482  17.605  16.484  0.00  0.00    +0.000 C 
ATOM     23  O   UNL     1       3.099  17.208  17.714  0.00  0.00    +0.000 OA
ENDBRANCH  16  23
ENDBRANCH  15  19
ENDBRANCH   1  15
BRANCH   3  24
ATOM     24  C   UNL     1       1.096  10.061  17.929  0.00  0.00    +0.000 C 
BRANCH  24  25
ATOM     25  N   UNL     1       2.434   9.528  18.039  0.00  0.00    +0.000 NA
ATOM     26  H   UNL     1       2.722   9.540  19.015  0.00  0.00    +0.000 HD
BRANCH  25  27
ATOM     27  C   UNL     1       2.534   8.171  17.504  0.00  0.00    +0.000 C 
BRANCH  27  28
ATOM     28  C   UNL     1       2.675   7.112  18.611  0.00  0.00    +0.000 C 
BRANCH  28  29
ATOM     29  C   UNL     1       2.825   5.702  18.116  0.00  0.00    +0.000 A 
ATOM     30  C   UNL     1       1.721   4.846  18.235  0.00  0.00    +0.000 A 
ATOM     31  C   UNL     1       1.824   3.508  17.867  0.00  0.00    +0.000 A 
ATOM     32  C   UNL     1       3.027   3.016  17.361  0.00  0.00    +0.000 A 
ATOM     33  C   UNL     1       4.131   3.855  17.237  0.00  0.00    +0.000 A 
ATOM     34  C   UNL     1       4.034   5.192  17.619  0.00  0.00    +0.000 A 
ATOM     35 CL   UNL     1       5.468   6.149  17.510  0.00  0.00    +0.000 Cl
ENDBRANCH  28  29
ENDBRANCH  27  28
ENDBRANCH  25  27
ENDBRANCH  24  25
ENDBRANCH   3  24
TORSDOF 10
ENDMDL
MODEL 9
REMARK VINA RESULT:      -7.2      6.906      9.736
REMARK  Name = 
REMARK  12 active torsions:
REMARK  status: ('A' for Active; 'I' for Inactive)
REMARK    1  A    between atoms: C_1  and  O_2
REMARK    2  A    between atoms: O_2  and  C_3
REMARK    3  A    between atoms: C_6  and  C_7
REMARK    4  A    between atoms: C_7  and  N_8
REMARK    5  A    between atoms: C_9  and  C_10
REMARK    6  A    between atoms: C_10  and  O_12
REMARK    7  A    between atoms: C_13  and  C_14
REMARK    8  A    between atoms: C_14  and  N_15
REMARK    9  A    between atoms: N_15  and  C_16
REMARK   10  A    between atoms: C_16  and  C_17
REMARK   11  A    between atoms: C_17  and  C_18
REMARK   12  A    between atoms: C_28  and  C_29
REMARK                            x       y       z     vdW  Elec       q    Type
REMARK                         _______ _______ _______ _____ _____    ______ ____
ROOT
ATOM      1  N   UNL     1       0.527  10.049  19.525  0.00  0.00    +0.000 N 
ATOM      2  C   UNL     1       0.922  11.373  19.578  0.00  0.00    +0.000 A 
ATOM      3  C   UNL     1      -0.323  11.812  20.080  0.00  0.00    +0.000 A 
ATOM      4  C   UNL     1      -1.043  11.534  18.917  0.00  0.00    +0.000 A 
ATOM      5  C   UNL     1      -2.172  12.126  18.354  0.00  0.00    +0.000 A 
ATOM      6  C   UNL     1      -2.740  11.542  17.265  0.00  0.00    +0.000 A 
ATOM      7  C   UNL     1      -2.255  10.320  16.787  0.00  0.00    +0.000 A 
ATOM      8  C   UNL     1      -2.804   9.937  15.437  0.00  0.00    +0.000 C 
ATOM      9  C   UNL     1      -1.229   9.570  17.508  0.00  0.00    +0.000 A 
ATOM     10  C   UNL     1      -0.586  10.213  18.601  0.00  0.00    +0.000 A 
ENDROOT
BRANCH   2  11
ATOM     11  C   UNL     1       1.835  11.748  18.490  0.00  0.00    +0.000 C 
ATOM     12  O   UNL     1       2.495  12.778  18.424  0.00  0.00    +0.000 OA
BRANCH  11  13
ATOM     13  O   UNL     1       1.967  10.779  17.546  0.00  0.00    +0.000 OA
ATOM     14  H   UNL     1       1.346  10.924  16.811  0.00  0.00    +0.000 HD
ENDBRANCH  11  13
ENDBRANCH   2  11
BRANCH   1  15
ATOM     15  C   UNL     1       1.285   9.035  20.326  0.00  0.00    +0.000 C 
BRANCH  15  19
ATOM     16  C   UNL     1       3.011   5.452  18.102  0.00  0.00    +0.000 A 
ATOM     17  C   UNL     1       2.447   5.340  19.378  0.00  0.00    +0.000 A 
ATOM     18  C   UNL     1       1.958   6.482  20.095  0.00  0.00    +0.000 A 
ATOM     19  C   UNL     1       2.003   7.799  19.570  0.00  0.00    +0.000 A 
ATOM     20  C   UNL     1       2.591   7.855  18.285  0.00  0.00    +0.000 A 
ATOM     21  C   UNL     1       3.101   6.726  17.574  0.00  0.00    +0.000 A 
BRANCH  16  23
ATOM     22  C   UNL     1       4.787   3.863  17.723  0.00  0.00    +0.000 C 
ATOM     23  O   UNL     1       3.436   4.288  17.516  0.00  0.00    +0.000 OA
ENDBRANCH  16  23
ENDBRANCH  15  19
ENDBRANCH   1  15
BRANCH   3  24
ATOM     24  C   UNL     1      -1.148  11.495  21.334  0.00  0.00    +0.000 C 
BRANCH  24  25
ATOM     25  N   UNL     1      -1.628  12.674  22.016  0.00  0.00    +0.000 NA
ATOM     26  H   UNL     1      -1.531  13.481  21.403  0.00  0.00    +0.000 HD
BRANCH  25  27
ATOM     27  C   UNL     1      -3.018  12.536  22.446  0.00  0.00    +0.000 C 
BRANCH  27  28
ATOM     28  C   UNL     1      -3.987  13.355  21.576  0.00  0.00    +0.000 C 
BRANCH  28  29
ATOM     29  C   UNL     1      -5.251  12.638  21.199  0.00  0.00    +0.000 A 
ATOM     30  C   UNL     1      -5.345  12.113  19.903  0.00  0.00    +0.000 A 
ATOM     31  C   UNL     1      -6.520  11.508  19.469  0.00  0.00    +0.000 A 
ATOM     32  C   UNL     1      -7.610  11.407  20.334  0.00  0.00    +0.000 A 
ATOM     33  C   UNL     1      -7.532  11.924  21.624  0.00  0.00    +0.000 A 
ATOM     34  C   UNL     1      -6.360  12.543  22.055  0.00  0.00    +0.000 A 
ATOM     35 CL   UNL     1      -6.367  13.229  23.641  0.00  0.00    +0.000 Cl
ENDBRANCH  28  29
ENDBRANCH  27  28
ENDBRANCH  25  27
ENDBRANCH  24  25
ENDBRANCH   3  24
TORSDOF 10
ENDMDL
