MODEL 1
REMARK VINA RESULT:      -7.7      0.000      0.000
REMARK  Name = 
REMARK  9 active torsions:
REMARK  status: ('A' for Active; 'I' for Inactive)
REMARK    1  A    between atoms: C_1  and  C_2
REMARK    2  A    between atoms: C_2  and  N_3
REMARK    3  A    between atoms: N_3  and  C_4
REMARK    4  A    between atoms: C_4  and  C_5
REMARK    5  A    between atoms: C_6  and  C_8
REMARK    6  A    between atoms: C_11  and  C_12
REMARK    7  A    between atoms: C_12  and  C_25
REMARK    8  A    between atoms: N_16  and  C_17
REMARK    9  A    between atoms: C_17  and  C_18
REMARK                            x       y       z     vdW  Elec       q    Type
REMARK                         _______ _______ _______ _____ _____    ______ ____
ROOT
ATOM      1  C   UNL     1       2.716   5.572  18.762  0.00  0.00    +0.000 C 
ATOM      2  C   UNL     1       3.563   5.170  17.773  0.00  0.00    +0.000 C 
ATOM      3  C   UNL     1       4.199   6.094  16.738  0.00  0.00    +0.000 C 
ATOM      4  C   UNL     1       5.717   5.848  16.576  0.00  0.00    +0.000 C 
ATOM      5  N   UNL     1       6.098   4.439  16.336  0.00  0.00    +0.000 NA
ATOM      6  C   UNL     1       5.538   3.621  17.431  0.00  0.00    +0.000 C 
ATOM      7  C   UNL     1       4.014   3.725  17.586  0.00  0.00    +0.000 C 
ENDROOT
BRANCH   1  11
ATOM      8  C   UNL     1       1.374   9.652  19.079  0.00  0.00    +0.000 A 
ATOM      9  C   UNL     1       1.406   8.803  20.192  0.00  0.00    +0.000 A 
ATOM     10  C   UNL     1       1.928   7.512  20.103  0.00  0.00    +0.000 A 
ATOM     11  C   UNL     1       2.301   6.991  18.863  0.00  0.00    +0.000 A 
ATOM     12  C   UNL     1       2.242   7.814  17.733  0.00  0.00    +0.000 A 
ATOM     13  C   UNL     1       1.796   9.142  17.843  0.00  0.00    +0.000 A 
BRANCH   8  15
ATOM     14  N   UNL     1      -0.534  11.308  18.803  0.00  0.00    +0.000 N 
ATOM     15  C   UNL     1       0.822  11.044  19.131  0.00  0.00    +0.000 C 
ATOM     16  O   UNL     1       1.595  11.936  19.469  0.00  0.00    +0.000 OA
BRANCH  14  18
ATOM     17  C   UNL     1      -1.631  13.222  19.963  0.00  0.00    +0.000 C 
ATOM     18  C   UNL     1      -0.922  12.717  18.711  0.00  0.00    +0.000 C 
ENDBRANCH  14  18
BRANCH  14  19
ATOM     19  C   UNL     1      -1.497  10.253  18.478  0.00  0.00    +0.000 C 
ATOM     20  C   UNL     1      -2.070  10.137  17.077  0.00  0.00    +0.000 C 
ENDBRANCH  14  19
ENDBRANCH   8  15
ENDBRANCH   1  11
BRANCH   1  21
ATOM     21  C   UNL     1       2.206   4.593  19.748  0.00  0.00    +0.000 A 
ATOM     22  C   UNL     1       1.081   3.817  19.485  0.00  0.00    +0.000 A 
ATOM     23  C   UNL     1       0.647   2.928  20.465  0.00  0.00    +0.000 A 
ATOM     24  C   UNL     1       1.347   2.843  21.664  0.00  0.00    +0.000 A 
ATOM     25  C   UNL     1       2.461   3.648  21.832  0.00  0.00    +0.000 A 
ATOM     26  N   UNL     1       2.906   4.519  20.904  0.00  0.00    +0.000 NA
ENDBRANCH   1  21
BRANCH   5  27
ATOM     27  C   UNL     1       5.666   4.007  14.990  0.00  0.00    +0.000 C 
BRANCH  27  28
ATOM     28  C   UNL     1       6.596   4.496  13.914  0.00  0.00    +0.000 A 
ATOM     29  C   UNL     1       6.559   4.163  12.571  0.00  0.00    +0.000 A 
ATOM     30  S   UNL     1       7.804   4.981  11.723  0.00  0.00    +0.000 S 
ATOM     31  C   UNL     1       8.305   5.707  13.193  0.00  0.00    +0.000 A 
ATOM     32  N   UNL     1       7.611   5.384  14.262  0.00  0.00    +0.000 NA
ENDBRANCH  27  28
ENDBRANCH   5  27
TORSDOF 7
ENDMDL
MODEL 2
REMARK VINA RESULT:      -7.6      4.481     10.031
REMARK  Name = 
REMARK  9 active torsions:
REMARK  status: ('A' for Active; 'I' for Inactive)
REMARK    1  A    between atoms: C_1  and  C_2
REMARK    2  A    between atoms: C_2  and  N_3
REMARK    3  A    between atoms: N_3  and  C_4
REMARK    4  A    between atoms: C_4  and  C_5
REMARK    5  A    between atoms: C_6  and  C_8
REMARK    6  A    between atoms: C_11  and  C_12
REMARK    7  A    between atoms: C_12  and  C_25
REMARK    8  A    between atoms: N_16  and  C_17
REMARK    9  A    between atoms: C_17  and  C_18
REMARK                            x       y       z     vdW  Elec       q    Type
REMARK                         _______ _______ _______ _____ _____    ______ ____
ROOT
ATOM      1  C   UNL     1       0.835  10.850  18.740  0.00  0.00    +0.000 C 
ATOM      2  C   UNL     1      -0.488  10.993  18.450  0.00  0.00    +0.000 C 
ATOM      3  C   UNL     1      -1.434   9.848  18.098  0.00  0.00    +0.000 C 
ATOM      4  C   UNL     1      -2.765   9.914  18.881  0.00  0.00    +0.000 C 
ATOM      5  N   UNL     1      -3.461  11.217  18.817  0.00  0.00    +0.000 NA
ATOM      6  C   UNL     1      -2.521  12.261  19.272  0.00  0.00    +0.000 C 
ATOM      7  C   UNL     1      -1.215  12.334  18.468  0.00  0.00    +0.000 C 
ENDROOT
BRANCH   1  11
ATOM      8  C   UNL     1       2.812   7.026  18.634  0.00  0.00    +0.000 A 
ATOM      9  C   UNL     1       2.216   7.509  19.805  0.00  0.00    +0.000 A 
ATOM     10  C   UNL     1       1.497   8.706  19.811  0.00  0.00    +0.000 A 
ATOM     11  C   UNL     1       1.478   9.517  18.675  0.00  0.00    +0.000 A 
ATOM     12  C   UNL     1       2.101   9.066  17.506  0.00  0.00    +0.000 A 
ATOM     13  C   UNL     1       2.750   7.821  17.481  0.00  0.00    +0.000 A 
BRANCH   8  15
ATOM     14  N   UNL     1       2.951   4.490  18.734  0.00  0.00    +0.000 N 
ATOM     15  C   UNL     1       3.593   5.748  18.585  0.00  0.00    +0.000 C 
ATOM     16  O   UNL     1       4.804   5.844  18.410  0.00  0.00    +0.000 OA
BRANCH  14  18
ATOM     17  C   UNL     1       3.196   2.049  18.293  0.00  0.00    +0.000 C 
ATOM     18  C   UNL     1       3.825   3.321  18.851  0.00  0.00    +0.000 C 
ENDBRANCH  14  18
BRANCH  14  19
ATOM     19  C   UNL     1       1.499   4.344  18.859  0.00  0.00    +0.000 C 
ATOM     20  C   UNL     1       0.865   4.072  20.211  0.00  0.00    +0.000 C 
ENDBRANCH  14  19
ENDBRANCH   8  15
ENDBRANCH   1  11
BRANCH   1  21
ATOM     21  C   UNL     1       1.643  12.029  19.127  0.00  0.00    +0.000 A 
ATOM     22  C   UNL     1       2.405  12.725  18.194  0.00  0.00    +0.000 A 
ATOM     23  C   UNL     1       3.154  13.814  18.633  0.00  0.00    +0.000 A 
ATOM     24  C   UNL     1       3.114  14.170  19.977  0.00  0.00    +0.000 A 
ATOM     25  C   UNL     1       2.319  13.425  20.830  0.00  0.00    +0.000 A 
ATOM     26  N   UNL     1       1.584  12.365  20.438  0.00  0.00    +0.000 NA
ENDBRANCH   1  21
BRANCH   5  27
ATOM     27  C   UNL     1      -3.999  11.452  17.460  0.00  0.00    +0.000 C 
BRANCH  27  28
ATOM     28  C   UNL     1      -5.369  12.071  17.495  0.00  0.00    +0.000 A 
ATOM     29  C   UNL     1      -5.869  13.030  16.632  0.00  0.00    +0.000 A 
ATOM     30  S   UNL     1      -7.486  13.417  17.046  0.00  0.00    +0.000 S 
ATOM     31  C   UNL     1      -7.405  12.295  18.341  0.00  0.00    +0.000 A 
ATOM     32  N   UNL     1      -6.263  11.657  18.480  0.00  0.00    +0.000 NA
ENDBRANCH  27  28
ENDBRANCH   5  27
TORSDOF 7
ENDMDL
MODEL 3
REMARK VINA RESULT:      -7.6      3.328      8.234
REMARK  Name = 
REMARK  9 active torsions:
REMARK  status: ('A' for Active; 'I' for Inactive)
REMARK    1  A    between atoms: C_1  and  C_2
REMARK    2  A    between atoms: C_2  and  N_3
REMARK    3  A    between atoms: N_3  and  C_4
REMARK    4  A    between atoms: C_4  and  C_5
REMARK    5  A    between atoms: C_6  and  C_8
REMARK    6  A    between atoms: C_11  and  C_12
REMARK    7  A    between atoms: C_12  and  C_25
REMARK    8  A    between atoms: N_16  and  C_17
REMARK    9  A    between atoms: C_17  and  C_18
REMARK                            x       y       z     vdW  Elec       q    Type
REMARK                         _______ _______ _______ _____ _____    ______ ____
ROOT
ATOM      1  C   UNL     1       2.713   6.042  18.805  0.00  0.00    +0.000 C 
ATOM      2  C   UNL     1       2.329   7.323  19.066  0.00  0.00    +0.000 C 
ATOM      3  C   UNL     1       2.724   8.540  18.233  0.00  0.00    +0.000 C 
ATOM      4  C   UNL     1       1.519   9.451  17.905  0.00  0.00    +0.000 C 
ATOM      5  N   UNL     1       0.701   9.848  19.071  0.00  0.00    +0.000 NA
ATOM      6  C   UNL     1       0.267   8.618  19.765  0.00  0.00    +0.000 C 
ATOM      7  C   UNL     1       1.416   7.710  20.225  0.00  0.00    +0.000 C 
ENDROOT
BRANCH   1  11
ATOM      8  C   UNL     1       5.461   5.139  15.615  0.00  0.00    +0.000 A 
ATOM      9  C   UNL     1       4.844   4.125  16.358  0.00  0.00    +0.000 A 
ATOM     10  C   UNL     1       3.885   4.421  17.328  0.00  0.00    +0.000 A 
ATOM     11  C   UNL     1       3.625   5.747  17.675  0.00  0.00    +0.000 A 
ATOM     12  C   UNL     1       4.261   6.773  16.967  0.00  0.00    +0.000 A 
ATOM     13  C   UNL     1       5.161   6.471  15.932  0.00  0.00    +0.000 A 
BRANCH   8  15
ATOM     14  N   UNL     1       6.158   4.196  13.360  0.00  0.00    +0.000 N 
ATOM     15  C   UNL     1       6.496   4.865  14.566  0.00  0.00    +0.000 C 
ATOM     16  O   UNL     1       7.639   5.247  14.801  0.00  0.00    +0.000 OA
BRANCH  14  18
ATOM     17  C   UNL     1       7.651   4.917  11.499  0.00  0.00    +0.000 C 
ATOM     18  C   UNL     1       7.274   3.820  12.488  0.00  0.00    +0.000 C 
ENDBRANCH  14  18
BRANCH  14  19
ATOM     19  C   UNL     1       4.789   3.806  13.020  0.00  0.00    +0.000 C 
ATOM     20  C   UNL     1       4.473   3.203  11.662  0.00  0.00    +0.000 C 
ENDBRANCH  14  19
ENDBRANCH   8  15
ENDBRANCH   1  11
BRANCH   1  21
ATOM     21  C   UNL     1       2.218   4.931  19.649  0.00  0.00    +0.000 A 
ATOM     22  C   UNL     1       1.187   4.100  19.222  0.00  0.00    +0.000 A 
ATOM     23  C   UNL     1       0.761   3.085  20.076  0.00  0.00    +0.000 A 
ATOM     24  C   UNL     1       1.375   2.935  21.314  0.00  0.00    +0.000 A 
ATOM     25  C   UNL     1       2.400   3.804  21.649  0.00  0.00    +0.000 A 
ATOM     26  N   UNL     1       2.835   4.796  20.847  0.00  0.00    +0.000 NA
ENDBRANCH   1  21
BRANCH   5  27
ATOM     27  C   UNL     1       1.449  10.785  19.934  0.00  0.00    +0.000 C 
BRANCH  27  28
ATOM     28  C   UNL     1       1.208  12.220  19.552  0.00  0.00    +0.000 A 
ATOM     29  C   UNL     1       2.090  13.277  19.699  0.00  0.00    +0.000 A 
ATOM     30  S   UNL     1       1.387  14.722  19.103  0.00  0.00    +0.000 S 
ATOM     31  C   UNL     1      -0.033  13.847  18.703  0.00  0.00    +0.000 A 
ATOM     32  N   UNL     1      -0.015  12.562  18.981  0.00  0.00    +0.000 NA
ENDBRANCH  27  28
ENDBRANCH   5  27
TORSDOF 7
ENDMDL
MODEL 4
REMARK VINA RESULT:      -7.6      3.614      8.586
REMARK  Name = 
REMARK  9 active torsions:
REMARK  status: ('A' for Active; 'I' for Inactive)
REMARK    1  A    between atoms: C_1  and  C_2
REMARK    2  A    between atoms: C_2  and  N_3
REMARK    3  A    between atoms: N_3  and  C_4
REMARK    4  A    between atoms: C_4  and  C_5
REMARK    5  A    between atoms: C_6  and  C_8
REMARK    6  A    between atoms: C_11  and  C_12
REMARK    7  A    between atoms: C_12  and  C_25
REMARK    8  A    between atoms: N_16  and  C_17
REMARK    9  A    between atoms: C_17  and  C_18
REMARK                            x       y       z     vdW  Elec       q    Type
REMARK                         _______ _______ _______ _____ _____    ______ ____
ROOT
ATOM      1  C   UNL     1       2.918   5.908  18.605  0.00  0.00    +0.000 C 
ATOM      2  C   UNL     1       2.555   7.190  18.892  0.00  0.00    +0.000 C 
ATOM      3  C   UNL     1       2.930   8.412  18.057  0.00  0.00    +0.000 C 
ATOM      4  C   UNL     1       1.723   9.337  17.782  0.00  0.00    +0.000 C 
ATOM      5  N   UNL     1       0.952   9.729  18.982  0.00  0.00    +0.000 NA
ATOM      6  C   UNL     1       0.533   8.497  19.680  0.00  0.00    +0.000 C 
ATOM      7  C   UNL     1       1.690   7.573  20.088  0.00  0.00    +0.000 C 
ENDROOT
BRANCH   1  11
ATOM      8  C   UNL     1       5.537   5.015  15.306  0.00  0.00    +0.000 A 
ATOM      9  C   UNL     1       4.963   4.000  16.080  0.00  0.00    +0.000 A 
ATOM     10  C   UNL     1       4.043   4.291  17.088  0.00  0.00    +0.000 A 
ATOM     11  C   UNL     1       3.784   5.617  17.439  0.00  0.00    +0.000 A 
ATOM     12  C   UNL     1       4.378   6.645  16.698  0.00  0.00    +0.000 A 
ATOM     13  C   UNL     1       5.237   6.346  15.628  0.00  0.00    +0.000 A 
BRANCH   8  15
ATOM     14  N   UNL     1       6.181   3.963  13.083  0.00  0.00    +0.000 N 
ATOM     15  C   UNL     1       6.530   4.746  14.215  0.00  0.00    +0.000 C 
ATOM     16  O   UNL     1       7.648   5.235  14.350  0.00  0.00    +0.000 OA
BRANCH  14  18
ATOM     17  C   UNL     1       7.095   2.241  11.530  0.00  0.00    +0.000 C 
ATOM     18  C   UNL     1       7.273   3.613  12.171  0.00  0.00    +0.000 C 
ENDBRANCH  14  18
BRANCH  14  19
ATOM     19  C   UNL     1       4.832   3.441  12.859  0.00  0.00    +0.000 C 
ATOM     20  C   UNL     1       4.174   3.565  11.495  0.00  0.00    +0.000 C 
ENDBRANCH  14  19
ENDBRANCH   8  15
ENDBRANCH   1  11
BRANCH   1  21
ATOM     21  C   UNL     1       2.445   4.794  19.456  0.00  0.00    +0.000 A 
ATOM     22  C   UNL     1       3.119   4.431  20.618  0.00  0.00    +0.000 A 
ATOM     23  C   UNL     1       2.626   3.361  21.361  0.00  0.00    +0.000 A 
ATOM     24  C   UNL     1       1.485   2.697  20.924  0.00  0.00    +0.000 A 
ATOM     25  C   UNL     1       0.876   3.135  19.760  0.00  0.00    +0.000 A 
ATOM     26  N   UNL     1       1.328   4.166  19.018  0.00  0.00    +0.000 NA
ENDBRANCH   1  21
BRANCH   5  27
ATOM     27  C   UNL     1       1.741  10.651  19.826  0.00  0.00    +0.000 C 
BRANCH  27  28
ATOM     28  C   UNL     1       0.894  11.753  20.402  0.00  0.00    +0.000 A 
ATOM     29  C   UNL     1       0.583  12.961  19.801  0.00  0.00    +0.000 A 
ATOM     30  S   UNL     1      -0.428  13.890  20.826  0.00  0.00    +0.000 S 
ATOM     31  C   UNL     1      -0.374  12.632  21.991  0.00  0.00    +0.000 A 
ATOM     32  N   UNL     1       0.340  11.577  21.667  0.00  0.00    +0.000 NA
ENDBRANCH  27  28
ENDBRANCH   5  27
TORSDOF 7
ENDMDL
MODEL 5
REMARK VINA RESULT:      -7.5      0.930      1.183
REMARK  Name = 
REMARK  9 active torsions:
REMARK  status: ('A' for Active; 'I' for Inactive)
REMARK    1  A    between atoms: C_1  and  C_2
REMARK    2  A    between atoms: C_2  and  N_3
REMARK    3  A    between atoms: N_3  and  C_4
REMARK    4  A    between atoms: C_4  and  C_5
REMARK    5  A    between atoms: C_6  and  C_8
REMARK    6  A    between atoms: C_11  and  C_12
REMARK    7  A    between atoms: C_12  and  C_25
REMARK    8  A    between atoms: N_16  and  C_17
REMARK    9  A    between atoms: C_17  and  C_18
REMARK                            x       y       z     vdW  Elec       q    Type
REMARK                         _______ _______ _______ _____ _____    ______ ____
ROOT
ATOM      1  C   UNL     1       2.474   5.828  19.111  0.00  0.00    +0.000 C 
ATOM      2  C   UNL     1       3.232   5.590  18.004  0.00  0.00    +0.000 C 
ATOM      3  C   UNL     1       3.753   6.666  17.055  0.00  0.00    +0.000 C 
ATOM      4  C   UNL     1       5.253   6.490  16.724  0.00  0.00    +0.000 C 
ATOM      5  N   UNL     1       5.635   5.140  16.258  0.00  0.00    +0.000 NA
ATOM      6  C   UNL     1       5.194   4.163  17.275  0.00  0.00    +0.000 C 
ATOM      7  C   UNL     1       3.690   4.199  17.579  0.00  0.00    +0.000 C 
ENDROOT
BRANCH   1  11
ATOM      8  C   UNL     1       1.092   9.786  20.091  0.00  0.00    +0.000 A 
ATOM      9  C   UNL     1       1.086   8.754  21.037  0.00  0.00    +0.000 A 
ATOM     10  C   UNL     1       1.621   7.499  20.742  0.00  0.00    +0.000 A 
ATOM     11  C   UNL     1       2.046   7.205  19.446  0.00  0.00    +0.000 A 
ATOM     12  C   UNL     1       2.024   8.216  18.477  0.00  0.00    +0.000 A 
ATOM     13  C   UNL     1       1.565   9.503  18.802  0.00  0.00    +0.000 A 
BRANCH   8  15
ATOM     14  N   UNL     1      -0.694  11.568  19.777  0.00  0.00    +0.000 N 
ATOM     15  C   UNL     1       0.527  11.147  20.366  0.00  0.00    +0.000 C 
ATOM     16  O   UNL     1       1.169  11.872  21.122  0.00  0.00    +0.000 OA
BRANCH  14  18
ATOM     17  C   UNL     1      -2.433  13.148  20.608  0.00  0.00    +0.000 C 
ATOM     18  C   UNL     1      -1.061  12.973  19.967  0.00  0.00    +0.000 C 
ENDBRANCH  14  18
BRANCH  14  19
ATOM     19  C   UNL     1      -1.520  10.694  18.942  0.00  0.00    +0.000 C 
ATOM     20  C   UNL     1      -1.904  11.111  17.533  0.00  0.00    +0.000 C 
ENDBRANCH  14  19
ENDBRANCH   8  15
ENDBRANCH   1  11
BRANCH   1  21
ATOM     21  C   UNL     1       2.076   4.708  19.994  0.00  0.00    +0.000 A 
ATOM     22  C   UNL     1       2.813   4.380  21.128  0.00  0.00    +0.000 A 
ATOM     23  C   UNL     1       2.389   3.304  21.903  0.00  0.00    +0.000 A 
ATOM     24  C   UNL     1       1.252   2.598  21.524  0.00  0.00    +0.000 A 
ATOM     25  C   UNL     1       0.577   3.004  20.385  0.00  0.00    +0.000 A 
ATOM     26  N   UNL     1       0.961   4.040  19.612  0.00  0.00    +0.000 NA
ENDBRANCH   1  21
BRANCH   5  27
ATOM     27  C   UNL     1       5.087   4.882  14.910  0.00  0.00    +0.000 C 
BRANCH  27  28
ATOM     28  C   UNL     1       6.172   4.670  13.890  0.00  0.00    +0.000 A 
ATOM     29  C   UNL     1       6.178   3.739  12.866  0.00  0.00    +0.000 A 
ATOM     30  S   UNL     1       7.615   3.883  11.943  0.00  0.00    +0.000 S 
ATOM     31  C   UNL     1       8.127   5.158  12.968  0.00  0.00    +0.000 A 
ATOM     32  N   UNL     1       7.304   5.481  13.942  0.00  0.00    +0.000 NA
ENDBRANCH  27  28
ENDBRANCH   5  27
TORSDOF 7
ENDMDL
MODEL 6
REMARK VINA RESULT:      -7.5      4.109      9.551
REMARK  Name = 
REMARK  9 active torsions:
REMARK  status: ('A' for Active; 'I' for Inactive)
REMARK    1  A    between atoms: C_1  and  C_2
REMARK    2  A    between atoms: C_2  and  N_3
REMARK    3  A    between atoms: N_3  and  C_4
REMARK    4  A    between atoms: C_4  and  C_5
REMARK    5  A    between atoms: C_6  and  C_8
REMARK    6  A    between atoms: C_11  and  C_12
REMARK    7  A    between atoms: C_12  and  C_25
REMARK    8  A    between atoms: N_16  and  C_17
REMARK    9  A    between atoms: C_17  and  C_18
REMARK                            x       y       z     vdW  Elec       q    Type
REMARK                         _______ _______ _______ _____ _____    ______ ____
ROOT
ATOM      1  C   UNL     1      -0.071  10.990  18.957  0.00  0.00    +0.000 C 
ATOM      2  C   UNL     1       0.372  12.198  19.402  0.00  0.00    +0.000 C 
ATOM      3  C   UNL     1       1.761  12.460  19.979  0.00  0.00    +0.000 C 
ATOM      4  C   UNL     1       2.428  13.717  19.374  0.00  0.00    +0.000 C 
ATOM      5  N   UNL     1       1.599  14.941  19.408  0.00  0.00    +0.000 NA
ATOM      6  C   UNL     1       0.315  14.643  18.740  0.00  0.00    +0.000 C 
ATOM      7  C   UNL     1      -0.465  13.473  19.356  0.00  0.00    +0.000 C 
ENDROOT
BRANCH   1  11
ATOM      8  C   UNL     1       2.338   7.428  19.176  0.00  0.00    +0.000 A 
ATOM      9  C   UNL     1       2.193   8.140  17.979  0.00  0.00    +0.000 A 
ATOM     10  C   UNL     1       1.487   9.344  17.935  0.00  0.00    +0.000 A 
ATOM     11  C   UNL     1       0.791   9.789  19.059  0.00  0.00    +0.000 A 
ATOM     12  C   UNL     1       0.895   9.069  20.255  0.00  0.00    +0.000 A 
ATOM     13  C   UNL     1       1.677   7.904  20.317  0.00  0.00    +0.000 A 
BRANCH   8  15
ATOM     14  N   UNL     1       4.159   5.841  18.384  0.00  0.00    +0.000 N 
ATOM     15  C   UNL     1       3.086   6.132  19.267  0.00  0.00    +0.000 C 
ATOM     16  O   UNL     1       2.727   5.343  20.137  0.00  0.00    +0.000 OA
BRANCH  14  18
ATOM     17  C   UNL     1       4.237   3.608  17.279  0.00  0.00    +0.000 C 
ATOM     18  C   UNL     1       4.700   4.481  18.440  0.00  0.00    +0.000 C 
ENDBRANCH  14  18
BRANCH  14  19
ATOM     19  C   UNL     1       4.661   6.797  17.395  0.00  0.00    +0.000 C 
ATOM     20  C   UNL     1       6.149   6.906  17.114  0.00  0.00    +0.000 C 
ENDBRANCH  14  19
ENDBRANCH   8  15
ENDBRANCH   1  11
BRANCH   1  21
ATOM     21  C   UNL     1      -1.421  10.867  18.361  0.00  0.00    +0.000 A 
ATOM     22  C   UNL     1      -1.651  10.068  17.245  0.00  0.00    +0.000 A 
ATOM     23  C   UNL     1      -2.943  10.013  16.727  0.00  0.00    +0.000 A 
ATOM     24  C   UNL     1      -3.953  10.749  17.338  0.00  0.00    +0.000 A 
ATOM     25  C   UNL     1      -3.631  11.508  18.450  0.00  0.00    +0.000 A 
ATOM     26  N   UNL     1      -2.391  11.584  18.975  0.00  0.00    +0.000 NA
ENDBRANCH   1  21
BRANCH   5  27
ATOM     27  C   UNL     1       1.448  15.426  20.795  0.00  0.00    +0.000 C 
BRANCH  27  28
ATOM     28  C   UNL     1       2.775  15.718  21.439  0.00  0.00    +0.000 A 
ATOM     29  C   UNL     1       3.675  16.705  21.076  0.00  0.00    +0.000 A 
ATOM     30  S   UNL     1       5.041  16.673  22.111  0.00  0.00    +0.000 S 
ATOM     31  C   UNL     1       4.347  15.352  22.957  0.00  0.00    +0.000 A 
ATOM     32  N   UNL     1       3.176  14.940  22.523  0.00  0.00    +0.000 NA
ENDBRANCH  27  28
ENDBRANCH   5  27
TORSDOF 7
ENDMDL
MODEL 7
REMARK VINA RESULT:      -7.4      4.178      9.442
REMARK  Name = 
REMARK  9 active torsions:
REMARK  status: ('A' for Active; 'I' for Inactive)
REMARK    1  A    between atoms: C_1  and  C_2
REMARK    2  A    between atoms: C_2  and  N_3
REMARK    3  A    between atoms: N_3  and  C_4
REMARK    4  A    between atoms: C_4  and  C_5
REMARK    5  A    between atoms: C_6  and  C_8
REMARK    6  A    between atoms: C_11  and  C_12
REMARK    7  A    between atoms: C_12  and  C_25
REMARK    8  A    between atoms: N_16  and  C_17
REMARK    9  A    between atoms: C_17  and  C_18
REMARK                            x       y       z     vdW  Elec       q    Type
REMARK                         _______ _______ _______ _____ _____    ______ ____
ROOT
ATOM      1  C   UNL     1      -0.158  11.004  18.941  0.00  0.00    +0.000 C 
ATOM      2  C   UNL     1       0.341  12.172  19.435  0.00  0.00    +0.000 C 
ATOM      3  C   UNL     1       1.765  12.364  19.952  0.00  0.00    +0.000 C 
ATOM      4  C   UNL     1       2.433  13.640  19.390  0.00  0.00    +0.000 C 
ATOM      5  N   UNL     1       1.640  14.879  19.542  0.00  0.00    +0.000 NA
ATOM      6  C   UNL     1       0.316  14.653  18.927  0.00  0.00    +0.000 C 
ATOM      7  C   UNL     1      -0.462  13.466  19.512  0.00  0.00    +0.000 C 
ENDROOT
BRANCH   1  11
ATOM      8  C   UNL     1       2.366   7.515  18.965  0.00  0.00    +0.000 A 
ATOM      9  C   UNL     1       1.746   7.978  20.132  0.00  0.00    +0.000 A 
ATOM     10  C   UNL     1       0.856   9.053  20.102  0.00  0.00    +0.000 A 
ATOM     11  C   UNL     1       0.676   9.780  18.924  0.00  0.00    +0.000 A 
ATOM     12  C   UNL     1       1.317   9.353  17.755  0.00  0.00    +0.000 A 
ATOM     13  C   UNL     1       2.145   8.218  17.772  0.00  0.00    +0.000 A 
BRANCH   8  15
ATOM     14  N   UNL     1       3.111   5.220  19.764  0.00  0.00    +0.000 N 
ATOM     15  C   UNL     1       3.328   6.366  18.954  0.00  0.00    +0.000 C 
ATOM     16  O   UNL     1       4.303   6.466  18.215  0.00  0.00    +0.000 OA
BRANCH  14  18
ATOM     17  C   UNL     1       4.055   3.139  18.769  0.00  0.00    +0.000 C 
ATOM     18  C   UNL     1       4.198   4.240  19.813  0.00  0.00    +0.000 C 
ENDBRANCH  14  18
BRANCH  14  19
ATOM     19  C   UNL     1       1.915   5.040  20.588  0.00  0.00    +0.000 C 
ATOM     20  C   UNL     1       0.911   3.947  20.265  0.00  0.00    +0.000 C 
ENDBRANCH  14  19
ENDBRANCH   8  15
ENDBRANCH   1  11
BRANCH   1  21
ATOM     21  C   UNL     1      -1.539  10.951  18.412  0.00  0.00    +0.000 A 
ATOM     22  C   UNL     1      -1.852  10.217  17.271  0.00  0.00    +0.000 A 
ATOM     23  C   UNL     1      -3.169  10.226  16.820  0.00  0.00    +0.000 A 
ATOM     24  C   UNL     1      -4.122  10.960  17.519  0.00  0.00    +0.000 A 
ATOM     25  C   UNL     1      -3.720  11.651  18.648  0.00  0.00    +0.000 A 
ATOM     26  N   UNL     1      -2.454  11.664  19.111  0.00  0.00    +0.000 NA
ENDBRANCH   1  21
BRANCH   5  27
ATOM     27  C   UNL     1       1.575  15.280  20.963  0.00  0.00    +0.000 C 
BRANCH  27  28
ATOM     28  C   UNL     1       2.936  15.578  21.529  0.00  0.00    +0.000 A 
ATOM     29  C   UNL     1       3.807  16.572  21.117  0.00  0.00    +0.000 A 
ATOM     30  S   UNL     1       5.230  16.546  22.071  0.00  0.00    +0.000 S 
ATOM     31  C   UNL     1       4.596  15.218  22.952  0.00  0.00    +0.000 A 
ATOM     32  N   UNL     1       3.404  14.800  22.586  0.00  0.00    +0.000 NA
ENDBRANCH  27  28
ENDBRANCH   5  27
TORSDOF 7
ENDMDL
MODEL 8
REMARK VINA RESULT:      -7.3      4.131      9.452
REMARK  Name = 
REMARK  9 active torsions:
REMARK  status: ('A' for Active; 'I' for Inactive)
REMARK    1  A    between atoms: C_1  and  C_2
REMARK    2  A    between atoms: C_2  and  N_3
REMARK    3  A    between atoms: N_3  and  C_4
REMARK    4  A    between atoms: C_4  and  C_5
REMARK    5  A    between atoms: C_6  and  C_8
REMARK    6  A    between atoms: C_11  and  C_12
REMARK    7  A    between atoms: C_12  and  C_25
REMARK    8  A    between atoms: N_16  and  C_17
REMARK    9  A    between atoms: C_17  and  C_18
REMARK                            x       y       z     vdW  Elec       q    Type
REMARK                         _______ _______ _______ _____ _____    ______ ____
ROOT
ATOM      1  C   UNL     1       0.144  10.848  18.881  0.00  0.00    +0.000 C 
ATOM      2  C   UNL     1       0.561  12.039  19.395  0.00  0.00    +0.000 C 
ATOM      3  C   UNL     1       1.952  12.306  19.963  0.00  0.00    +0.000 C 
ATOM      4  C   UNL     1       2.570  13.618  19.427  0.00  0.00    +0.000 C 
ATOM      5  N   UNL     1       1.707  14.811  19.554  0.00  0.00    +0.000 NA
ATOM      6  C   UNL     1       0.420  14.517  18.891  0.00  0.00    +0.000 C 
ATOM      7  C   UNL     1      -0.314  13.287  19.445  0.00  0.00    +0.000 C 
ENDROOT
BRANCH   1  11
ATOM      8  C   UNL     1       2.665   7.357  18.822  0.00  0.00    +0.000 A 
ATOM      9  C   UNL     1       2.536   8.185  17.700  0.00  0.00    +0.000 A 
ATOM     10  C   UNL     1       1.792   9.365  17.754  0.00  0.00    +0.000 A 
ATOM     11  C   UNL     1       1.043   9.670  18.891  0.00  0.00    +0.000 A 
ATOM     12  C   UNL     1       1.131   8.832  20.009  0.00  0.00    +0.000 A 
ATOM     13  C   UNL     1       1.950   7.692  19.980  0.00  0.00    +0.000 A 
BRANCH   8  15
ATOM     14  N   UNL     1       2.841   4.837  19.107  0.00  0.00    +0.000 N 
ATOM     15  C   UNL     1       3.453   6.082  18.807  0.00  0.00    +0.000 C 
ATOM     16  O   UNL     1       4.645   6.170  18.522  0.00  0.00    +0.000 OA
BRANCH  14  18
ATOM     17  C   UNL     1       3.696   2.759  18.030  0.00  0.00    +0.000 C 
ATOM     18  C   UNL     1       3.735   3.685  19.241  0.00  0.00    +0.000 C 
ENDBRANCH  14  18
BRANCH  14  19
ATOM     19  C   UNL     1       1.407   4.695  19.366  0.00  0.00    +0.000 C 
ATOM     20  C   UNL     1       0.903   3.695  20.392  0.00  0.00    +0.000 C 
ENDBRANCH  14  19
ENDBRANCH   8  15
ENDBRANCH   1  11
BRANCH   1  21
ATOM     21  C   UNL     1      -1.213  10.722  18.301  0.00  0.00    +0.000 A 
ATOM     22  C   UNL     1      -2.306  11.370  18.867  0.00  0.00    +0.000 A 
ATOM     23  C   UNL     1      -3.556  11.193  18.280  0.00  0.00    +0.000 A 
ATOM     24  C   UNL     1      -3.670  10.384  17.154  0.00  0.00    +0.000 A 
ATOM     25  C   UNL     1      -2.524   9.788  16.655  0.00  0.00    +0.000 A 
ATOM     26  N   UNL     1      -1.301   9.938  17.201  0.00  0.00    +0.000 NA
ENDBRANCH   1  21
BRANCH   5  27
ATOM     27  C   UNL     1       1.568  15.203  20.972  0.00  0.00    +0.000 C 
BRANCH  27  28
ATOM     28  C   UNL     1       2.886  15.598  21.580  0.00  0.00    +0.000 A 
ATOM     29  C   UNL     1       3.700  16.646  21.187  0.00  0.00    +0.000 A 
ATOM     30  S   UNL     1       5.090  16.725  22.187  0.00  0.00    +0.000 S 
ATOM     31  C   UNL     1       4.518  15.364  23.060  0.00  0.00    +0.000 A 
ATOM     32  N   UNL     1       3.371  14.862  22.659  0.00  0.00    +0.000 NA
ENDBRANCH  27  28
ENDBRANCH   5  27
TORSDOF 7
ENDMDL
MODEL 9
REMARK VINA RESULT:      -7.3      3.625      8.544
REMARK  Name = 
REMARK  9 active torsions:
REMARK  status: ('A' for Active; 'I' for Inactive)
REMARK    1  A    between atoms: C_1  and  C_2
REMARK    2  A    between atoms: C_2  and  N_3
REMARK    3  A    between atoms: N_3  and  C_4
REMARK    4  A    between atoms: C_4  and  C_5
REMARK    5  A    between atoms: C_6  and  C_8
REMARK    6  A    between atoms: C_11  and  C_12
REMARK    7  A    between atoms: C_12  and  C_25
REMARK    8  A    between atoms: N_16  and  C_17
REMARK    9  A    between atoms: C_17  and  C_18
REMARK                            x       y       z     vdW  Elec       q    Type
REMARK                         _______ _______ _______ _____ _____    ______ ____
ROOT
ATOM      1  C   UNL     1       2.648   5.987  19.292  0.00  0.00    +0.000 C 
ATOM      2  C   UNL     1       2.225   7.236  19.632  0.00  0.00    +0.000 C 
ATOM      3  C   UNL     1       2.627   8.521  18.912  0.00  0.00    +0.000 C 
ATOM      4  C   UNL     1       1.417   9.432  18.602  0.00  0.00    +0.000 C 
ATOM      5  N   UNL     1       0.543   9.722  19.759  0.00  0.00    +0.000 NA
ATOM      6  C   UNL     1       0.108   8.435  20.339  0.00  0.00    +0.000 C 
ATOM      7  C   UNL     1       1.257   7.516  20.777  0.00  0.00    +0.000 C 
ENDROOT
BRANCH   1  11
ATOM      8  C   UNL     1       5.555   5.438  16.163  0.00  0.00    +0.000 A 
ATOM      9  C   UNL     1       5.290   4.432  17.099  0.00  0.00    +0.000 A 
ATOM     10  C   UNL     1       4.282   4.579  18.054  0.00  0.00    +0.000 A 
ATOM     11  C   UNL     1       3.611   5.796  18.182  0.00  0.00    +0.000 A 
ATOM     12  C   UNL     1       3.890   6.826  17.277  0.00  0.00    +0.000 A 
ATOM     13  C   UNL     1       4.845   6.643  16.263  0.00  0.00    +0.000 A 
BRANCH   8  15
ATOM     14  N   UNL     1       6.392   4.643  13.898  0.00  0.00    +0.000 N 
ATOM     15  C   UNL     1       6.628   5.321  15.123  0.00  0.00    +0.000 C 
ATOM     16  O   UNL     1       7.712   5.837  15.383  0.00  0.00    +0.000 OA
BRANCH  14  18
ATOM     17  C   UNL     1       7.754   5.549  12.018  0.00  0.00    +0.000 C 
ATOM     18  C   UNL     1       7.555   4.430  13.034  0.00  0.00    +0.000 C 
ENDBRANCH  14  18
BRANCH  14  19
ATOM     19  C   UNL     1       5.086   4.093  13.529  0.00  0.00    +0.000 C 
ATOM     20  C   UNL     1       4.911   3.325  12.231  0.00  0.00    +0.000 C 
ENDBRANCH  14  19
ENDBRANCH   8  15
ENDBRANCH   1  11
BRANCH   1  21
ATOM     21  C   UNL     1       2.143   4.805  20.027  0.00  0.00    +0.000 A 
ATOM     22  C   UNL     1       1.123   4.010  19.511  0.00  0.00    +0.000 A 
ATOM     23  C   UNL     1       0.686   2.924  20.265  0.00  0.00    +0.000 A 
ATOM     24  C   UNL     1       1.280   2.669  21.498  0.00  0.00    +0.000 A 
ATOM     25  C   UNL     1       2.294   3.509  21.924  0.00  0.00    +0.000 A 
ATOM     26  N   UNL     1       2.739   4.569  21.220  0.00  0.00    +0.000 NA
ENDBRANCH   1  21
BRANCH   5  27
ATOM     27  C   UNL     1       1.235  10.605  20.722  0.00  0.00    +0.000 C 
BRANCH  27  28
ATOM     28  C   UNL     1       0.285  11.553  21.402  0.00  0.00    +0.000 A 
ATOM     29  C   UNL     1       0.028  12.866  21.047  0.00  0.00    +0.000 A 
ATOM     30  S   UNL     1      -1.143  13.546  22.097  0.00  0.00    +0.000 S 
ATOM     31  C   UNL     1      -1.218  12.059  22.949  0.00  0.00    +0.000 A 
ATOM     32  N   UNL     1      -0.436  11.100  22.504  0.00  0.00    +0.000 NA
ENDBRANCH  27  28
ENDBRANCH   5  27
TORSDOF 7
ENDMDL
