MODEL 1
REMARK VINA RESULT:      -6.6      0.000      0.000
REMARK  Name = 
REMARK  8 active torsions:
REMARK  status: ('A' for Active; 'I' for Inactive)
REMARK    1  A    between atoms: C_1  and  C_2
REMARK    2  A    between atoms: C_2  and  C_3
REMARK    3  A    between atoms: C_3  and  C_4
REMARK    4  A    between atoms: C_7  and  C_8
REMARK    5  A    between atoms: C_10  and  C_11
REMARK    6  A    between atoms: C_12  and  C_13
REMARK    7  A    between atoms: C_13  and  O_15
REMARK    8  A    between atoms: O_15  and  C_16
REMARK                            x       y       z     vdW  Elec       q    Type
REMARK                         _______ _______ _______ _____ _____    ______ ____
ROOT
ATOM      1  C   UNL     1       2.547   7.502  18.546  0.00  0.00    +0.000 A 
ATOM      2  N   UNL     1       2.213   7.403  19.818  0.00  0.00    +0.000 NA
ATOM      3  C   UNL     1       1.437   8.479  20.221  0.00  0.00    +0.000 A 
ATOM      4  C   UNL     1       1.008   8.506  21.646  0.00  0.00    +0.000 C 
ATOM      5  C   UNL     1       1.165   9.405  19.226  0.00  0.00    +0.000 A 
ATOM      6  S   UNL     1       1.912   8.895  17.765  0.00  0.00    +0.000 S 
ENDROOT
BRANCH   1  10
ATOM      7  C   UNL     1       5.070   4.722  16.414  0.00  0.00    +0.000 A 
ATOM      8  C   UNL     1       5.315   6.098  16.388  0.00  0.00    +0.000 A 
ATOM      9  C   UNL     1       4.492   6.976  17.099  0.00  0.00    +0.000 A 
ATOM     10  C   UNL     1       3.396   6.514  17.847  0.00  0.00    +0.000 A 
ATOM     11  C   UNL     1       3.160   5.132  17.867  0.00  0.00    +0.000 A 
ATOM     12  C   UNL     1       3.984   4.249  17.157  0.00  0.00    +0.000 A 
BRANCH   7  13
ATOM     13  C   UNL     1       5.937   3.760  15.638  0.00  0.00    +0.000 C 
BRANCH  13  15
ATOM     14  C   UNL     1       5.979   3.693  13.088  0.00  0.00    +0.000 C 
ATOM     15  C   UNL     1       6.537   4.336  14.351  0.00  0.00    +0.000 C 
ENDBRANCH  13  15
ENDBRANCH   7  13
ENDBRANCH   1  10
BRANCH   5  16
ATOM     16  C   UNL     1       0.410  10.639  19.239  0.00  0.00    +0.000 C 
ATOM     17  O   UNL     1       0.872  11.774  19.227  0.00  0.00    +0.000 OA
BRANCH  16  18
ATOM     18  O   UNL     1      -0.928  10.371  19.266  0.00  0.00    +0.000 OA
ATOM     19  C   UNL     1      -1.732  11.274  18.507  0.00  0.00    +0.000 C 
ENDBRANCH  16  18
ENDBRANCH   5  16
TORSDOF 5
ENDMDL
MODEL 2
REMARK VINA RESULT:      -6.6      3.601      7.503
REMARK  Name = 
REMARK  8 active torsions:
REMARK  status: ('A' for Active; 'I' for Inactive)
REMARK    1  A    between atoms: C_1  and  C_2
REMARK    2  A    between atoms: C_2  and  C_3
REMARK    3  A    between atoms: C_3  and  C_4
REMARK    4  A    between atoms: C_7  and  C_8
REMARK    5  A    between atoms: C_10  and  C_11
REMARK    6  A    between atoms: C_12  and  C_13
REMARK    7  A    between atoms: C_13  and  O_15
REMARK    8  A    between atoms: O_15  and  C_16
REMARK                            x       y       z     vdW  Elec       q    Type
REMARK                         _______ _______ _______ _____ _____    ______ ____
ROOT
ATOM      1  C   UNL     1       3.575   6.494  18.370  0.00  0.00    +0.000 A 
ATOM      2  N   UNL     1       3.594   5.371  19.061  0.00  0.00    +0.000 NA
ATOM      3  C   UNL     1       4.557   4.498  18.580  0.00  0.00    +0.000 A 
ATOM      4  C   UNL     1       4.671   3.177  19.257  0.00  0.00    +0.000 C 
ATOM      5  C   UNL     1       5.295   4.979  17.510  0.00  0.00    +0.000 A 
ATOM      6  S   UNL     1       4.747   6.559  17.115  0.00  0.00    +0.000 S 
ENDROOT
BRANCH   1  10
ATOM      7  C   UNL     1       0.755   9.642  19.252  0.00  0.00    +0.000 A 
ATOM      8  C   UNL     1       1.106   8.687  20.211  0.00  0.00    +0.000 A 
ATOM      9  C   UNL     1       2.033   7.686  19.905  0.00  0.00    +0.000 A 
ATOM     10  C   UNL     1       2.630   7.599  18.636  0.00  0.00    +0.000 A 
ATOM     11  C   UNL     1       2.271   8.562  17.682  0.00  0.00    +0.000 A 
ATOM     12  C   UNL     1       1.344   9.568  17.986  0.00  0.00    +0.000 A 
BRANCH   7  13
ATOM     13  C   UNL     1      -0.258  10.720  19.558  0.00  0.00    +0.000 C 
BRANCH  13  15
ATOM     14  C   UNL     1      -2.191  10.076  18.023  0.00  0.00    +0.000 C 
ATOM     15  C   UNL     1      -1.140  11.122  18.371  0.00  0.00    +0.000 C 
ENDBRANCH  13  15
ENDBRANCH   7  13
ENDBRANCH   1  10
BRANCH   5  16
ATOM     16  C   UNL     1       6.368   4.392  16.738  0.00  0.00    +0.000 C 
ATOM     17  O   UNL     1       7.569   4.549  16.926  0.00  0.00    +0.000 OA
BRANCH  16  18
ATOM     18  O   UNL     1       5.858   3.613  15.739  0.00  0.00    +0.000 OA
ATOM     19  C   UNL     1       6.273   3.984  14.425  0.00  0.00    +0.000 C 
ENDBRANCH  16  18
ENDBRANCH   5  16
TORSDOF 5
ENDMDL
MODEL 3
REMARK VINA RESULT:      -6.5      4.306      7.426
REMARK  Name = 
REMARK  8 active torsions:
REMARK  status: ('A' for Active; 'I' for Inactive)
REMARK    1  A    between atoms: C_1  and  C_2
REMARK    2  A    between atoms: C_2  and  C_3
REMARK    3  A    between atoms: C_3  and  C_4
REMARK    4  A    between atoms: C_7  and  C_8
REMARK    5  A    between atoms: C_10  and  C_11
REMARK    6  A    between atoms: C_12  and  C_13
REMARK    7  A    between atoms: C_13  and  O_15
REMARK    8  A    between atoms: O_15  and  C_16
REMARK                            x       y       z     vdW  Elec       q    Type
REMARK                         _______ _______ _______ _____ _____    ______ ____
ROOT
ATOM      1  C   UNL     1       2.379   6.248  19.762  0.00  0.00    +0.000 A 
ATOM      2  N   UNL     1       1.828   5.461  20.666  0.00  0.00    +0.000 NA
ATOM      3  C   UNL     1       2.405   4.201  20.657  0.00  0.00    +0.000 A 
ATOM      4  C   UNL     1       1.860   3.201  21.615  0.00  0.00    +0.000 C 
ATOM      5  C   UNL     1       3.427   4.036  19.735  0.00  0.00    +0.000 A 
ATOM      6  S   UNL     1       3.647   5.505  18.871  0.00  0.00    +0.000 S 
ENDROOT
BRANCH   1  10
ATOM      7  C   UNL     1       1.025  10.306  19.174  0.00  0.00    +0.000 A 
ATOM      8  C   UNL     1       0.924   9.676  20.417  0.00  0.00    +0.000 A 
ATOM      9  C   UNL     1       1.383   8.366  20.586  0.00  0.00    +0.000 A 
ATOM     10  C   UNL     1       1.946   7.641  19.522  0.00  0.00    +0.000 A 
ATOM     11  C   UNL     1       2.044   8.283  18.279  0.00  0.00    +0.000 A 
ATOM     12  C   UNL     1       1.587   9.596  18.107  0.00  0.00    +0.000 A 
BRANCH   7  13
ATOM     13  C   UNL     1       0.519  11.713  18.968  0.00  0.00    +0.000 C 
BRANCH  13  15
ATOM     14  C   UNL     1      -1.721  11.605  17.752  0.00  0.00    +0.000 C 
ATOM     15  C   UNL     1      -1.002  11.865  19.069  0.00  0.00    +0.000 C 
ENDBRANCH  13  15
ENDBRANCH   7  13
ENDBRANCH   1  10
BRANCH   5  16
ATOM     16  C   UNL     1       4.264   2.899  19.417  0.00  0.00    +0.000 C 
ATOM     17  O   UNL     1       5.030   2.324  20.181  0.00  0.00    +0.000 OA
BRANCH  16  18
ATOM     18  O   UNL     1       4.087   2.535  18.113  0.00  0.00    +0.000 OA
ATOM     19  C   UNL     1       2.827   1.929  17.829  0.00  0.00    +0.000 C 
ENDBRANCH  16  18
ENDBRANCH   5  16
TORSDOF 5
ENDMDL
MODEL 4
REMARK VINA RESULT:      -6.5      3.646      7.816
REMARK  Name = 
REMARK  8 active torsions:
REMARK  status: ('A' for Active; 'I' for Inactive)
REMARK    1  A    between atoms: C_1  and  C_2
REMARK    2  A    between atoms: C_2  and  C_3
REMARK    3  A    between atoms: C_3  and  C_4
REMARK    4  A    between atoms: C_7  and  C_8
REMARK    5  A    between atoms: C_10  and  C_11
REMARK    6  A    between atoms: C_12  and  C_13
REMARK    7  A    between atoms: C_13  and  O_15
REMARK    8  A    between atoms: O_15  and  C_16
REMARK                            x       y       z     vdW  Elec       q    Type
REMARK                         _______ _______ _______ _____ _____    ______ ____
ROOT
ATOM      1  C   UNL     1       3.321   6.448  17.954  0.00  0.00    +0.000 A 
ATOM      2  N   UNL     1       3.093   5.159  18.112  0.00  0.00    +0.000 NA
ATOM      3  C   UNL     1       4.030   4.394  17.434  0.00  0.00    +0.000 A 
ATOM      4  C   UNL     1       3.877   2.916  17.508  0.00  0.00    +0.000 C 
ATOM      5  C   UNL     1       4.998   5.123  16.761  0.00  0.00    +0.000 A 
ATOM      6  S   UNL     1       4.704   6.799  16.995  0.00  0.00    +0.000 S 
ENDROOT
BRANCH   1  10
ATOM      7  C   UNL     1       0.786   9.441  19.760  0.00  0.00    +0.000 A 
ATOM      8  C   UNL     1       1.302   8.376  20.504  0.00  0.00    +0.000 A 
ATOM      9  C   UNL     1       2.133   7.428  19.899  0.00  0.00    +0.000 A 
ATOM     10  C   UNL     1       2.466   7.505  18.537  0.00  0.00    +0.000 A 
ATOM     11  C   UNL     1       1.943   8.577  17.800  0.00  0.00    +0.000 A 
ATOM     12  C   UNL     1       1.113   9.530  18.403  0.00  0.00    +0.000 A 
BRANCH   7  13
ATOM     13  C   UNL     1      -0.128  10.464  20.391  0.00  0.00    +0.000 C 
BRANCH  13  15
ATOM     14  C   UNL     1      -0.869  10.634  22.825  0.00  0.00    +0.000 C 
ATOM     15  C   UNL     1       0.252  10.863  21.820  0.00  0.00    +0.000 C 
ENDBRANCH  13  15
ENDBRANCH   7  13
ENDBRANCH   1  10
BRANCH   5  16
ATOM     16  C   UNL     1       6.126   4.711  15.954  0.00  0.00    +0.000 C 
ATOM     17  O   UNL     1       6.082   4.019  14.944  0.00  0.00    +0.000 OA
BRANCH  16  18
ATOM     18  O   UNL     1       7.285   5.208  16.476  0.00  0.00    +0.000 OA
ATOM     19  C   UNL     1       7.719   4.571  17.677  0.00  0.00    +0.000 C 
ENDBRANCH  16  18
ENDBRANCH   5  16
TORSDOF 5
ENDMDL
MODEL 5
REMARK VINA RESULT:      -6.5      3.688      7.725
REMARK  Name = 
REMARK  8 active torsions:
REMARK  status: ('A' for Active; 'I' for Inactive)
REMARK    1  A    between atoms: C_1  and  C_2
REMARK    2  A    between atoms: C_2  and  C_3
REMARK    3  A    between atoms: C_3  and  C_4
REMARK    4  A    between atoms: C_7  and  C_8
REMARK    5  A    between atoms: C_10  and  C_11
REMARK    6  A    between atoms: C_12  and  C_13
REMARK    7  A    between atoms: C_13  and  O_15
REMARK    8  A    between atoms: O_15  and  C_16
REMARK                            x       y       z     vdW  Elec       q    Type
REMARK                         _______ _______ _______ _____ _____    ______ ____
ROOT
ATOM      1  C   UNL     1       3.447   6.246  18.073  0.00  0.00    +0.000 A 
ATOM      2  N   UNL     1       3.144   4.969  18.203  0.00  0.00    +0.000 NA
ATOM      3  C   UNL     1       4.112   4.159  17.631  0.00  0.00    +0.000 A 
ATOM      4  C   UNL     1       3.883   2.690  17.685  0.00  0.00    +0.000 C 
ATOM      5  C   UNL     1       5.181   4.840  17.068  0.00  0.00    +0.000 A 
ATOM      6  S   UNL     1       4.941   6.529  17.271  0.00  0.00    +0.000 S 
ENDROOT
BRANCH   1  10
ATOM      7  C   UNL     1       0.979   9.534  19.393  0.00  0.00    +0.000 A 
ATOM      8  C   UNL     1       1.444   9.452  18.077  0.00  0.00    +0.000 A 
ATOM      9  C   UNL     1       2.230   8.370  17.670  0.00  0.00    +0.000 A 
ATOM     10  C   UNL     1       2.584   7.343  18.561  0.00  0.00    +0.000 A 
ATOM     11  C   UNL     1       2.112   7.434  19.878  0.00  0.00    +0.000 A 
ATOM     12  C   UNL     1       1.322   8.516  20.289  0.00  0.00    +0.000 A 
BRANCH   7  13
ATOM     13  C   UNL     1       0.145  10.704  19.855  0.00  0.00    +0.000 C 
BRANCH  13  15
ATOM     14  C   UNL     1      -0.633  10.961  22.271  0.00  0.00    +0.000 C 
ATOM     15  C   UNL     1       0.480  11.211  21.262  0.00  0.00    +0.000 C 
ENDBRANCH  13  15
ENDBRANCH   7  13
ENDBRANCH   1  10
BRANCH   5  16
ATOM     16  C   UNL     1       6.369   4.374  16.387  0.00  0.00    +0.000 C 
ATOM     17  O   UNL     1       7.529   4.583  16.724  0.00  0.00    +0.000 OA
BRANCH  16  18
ATOM     18  O   UNL     1       6.025   3.647  15.284  0.00  0.00    +0.000 OA
ATOM     19  C   UNL     1       6.402   4.237  14.041  0.00  0.00    +0.000 C 
ENDBRANCH  16  18
ENDBRANCH   5  16
TORSDOF 5
ENDMDL
MODEL 6
REMARK VINA RESULT:      -6.5      0.700      1.192
REMARK  Name = 
REMARK  8 active torsions:
REMARK  status: ('A' for Active; 'I' for Inactive)
REMARK    1  A    between atoms: C_1  and  C_2
REMARK    2  A    between atoms: C_2  and  C_3
REMARK    3  A    between atoms: C_3  and  C_4
REMARK    4  A    between atoms: C_7  and  C_8
REMARK    5  A    between atoms: C_10  and  C_11
REMARK    6  A    between atoms: C_12  and  C_13
REMARK    7  A    between atoms: C_13  and  O_15
REMARK    8  A    between atoms: O_15  and  C_16
REMARK                            x       y       z     vdW  Elec       q    Type
REMARK                         _______ _______ _______ _____ _____    ______ ____
ROOT
ATOM      1  C   UNL     1       2.383   7.682  18.712  0.00  0.00    +0.000 A 
ATOM      2  N   UNL     1       2.058   7.615  19.988  0.00  0.00    +0.000 NA
ATOM      3  C   UNL     1       1.319   8.720  20.380  0.00  0.00    +0.000 A 
ATOM      4  C   UNL     1       0.905   8.784  21.808  0.00  0.00    +0.000 C 
ATOM      5  C   UNL     1       1.067   9.638  19.372  0.00  0.00    +0.000 A 
ATOM      6  S   UNL     1       1.784   9.082  17.913  0.00  0.00    +0.000 S 
ENDROOT
BRANCH   1  10
ATOM      7  C   UNL     1       4.802   4.792  16.606  0.00  0.00    +0.000 A 
ATOM      8  C   UNL     1       5.106   6.156  16.579  0.00  0.00    +0.000 A 
ATOM      9  C   UNL     1       4.315   7.071  17.281  0.00  0.00    +0.000 A 
ATOM     10  C   UNL     1       3.195   6.658  18.022  0.00  0.00    +0.000 A 
ATOM     11  C   UNL     1       2.900   5.287  18.043  0.00  0.00    +0.000 A 
ATOM     12  C   UNL     1       3.692   4.367  17.342  0.00  0.00    +0.000 A 
BRANCH   7  13
ATOM     13  C   UNL     1       5.634   3.792  15.839  0.00  0.00    +0.000 C 
BRANCH  13  15
ATOM     14  C   UNL     1       6.001   3.770  13.315  0.00  0.00    +0.000 C 
ATOM     15  C   UNL     1       6.404   4.379  14.651  0.00  0.00    +0.000 C 
ENDBRANCH  13  15
ENDBRANCH   7  13
ENDBRANCH   1  10
BRANCH   5  16
ATOM     16  C   UNL     1       0.350  10.895  19.371  0.00  0.00    +0.000 C 
ATOM     17  O   UNL     1      -0.741  11.108  18.855  0.00  0.00    +0.000 OA
BRANCH  16  18
ATOM     18  O   UNL     1       1.066  11.846  20.039  0.00  0.00    +0.000 OA
ATOM     19  C   UNL     1       1.879  12.673  19.207  0.00  0.00    +0.000 C 
ENDBRANCH  16  18
ENDBRANCH   5  16
TORSDOF 5
ENDMDL
MODEL 7
REMARK VINA RESULT:      -6.4      4.828      6.234
REMARK  Name = 
REMARK  8 active torsions:
REMARK  status: ('A' for Active; 'I' for Inactive)
REMARK    1  A    between atoms: C_1  and  C_2
REMARK    2  A    between atoms: C_2  and  C_3
REMARK    3  A    between atoms: C_3  and  C_4
REMARK    4  A    between atoms: C_7  and  C_8
REMARK    5  A    between atoms: C_10  and  C_11
REMARK    6  A    between atoms: C_12  and  C_13
REMARK    7  A    between atoms: C_13  and  O_15
REMARK    8  A    between atoms: O_15  and  C_16
REMARK                            x       y       z     vdW  Elec       q    Type
REMARK                         _______ _______ _______ _____ _____    ______ ____
ROOT
ATOM      1  C   UNL     1       4.443   4.579  18.472  0.00  0.00    +0.000 A 
ATOM      2  N   UNL     1       4.674   3.283  18.387  0.00  0.00    +0.000 NA
ATOM      3  C   UNL     1       3.530   2.548  18.654  0.00  0.00    +0.000 A 
ATOM      4  C   UNL     1       3.654   1.066  18.615  0.00  0.00    +0.000 C 
ATOM      5  C   UNL     1       2.403   3.307  18.933  0.00  0.00    +0.000 A 
ATOM      6  S   UNL     1       2.815   4.973  18.856  0.00  0.00    +0.000 S 
ENDROOT
BRANCH   1  10
ATOM      7  C   UNL     1       7.422   7.621  17.751  0.00  0.00    +0.000 A 
ATOM      8  C   UNL     1       6.147   7.698  17.184  0.00  0.00    +0.000 A 
ATOM      9  C   UNL     1       5.195   6.708  17.444  0.00  0.00    +0.000 A 
ATOM     10  C   UNL     1       5.485   5.608  18.268  0.00  0.00    +0.000 A 
ATOM     11  C   UNL     1       6.767   5.540  18.833  0.00  0.00    +0.000 A 
ATOM     12  C   UNL     1       7.723   6.532  18.576  0.00  0.00    +0.000 A 
BRANCH   7  13
ATOM     13  C   UNL     1       8.469   8.671  17.467  0.00  0.00    +0.000 C 
BRANCH  13  15
ATOM     14  C   UNL     1       9.598  10.838  18.196  0.00  0.00    +0.000 C 
ATOM     15  C   UNL     1       8.646   9.712  18.577  0.00  0.00    +0.000 C 
ENDBRANCH  13  15
ENDBRANCH   7  13
ENDBRANCH   1  10
BRANCH   5  16
ATOM     16  C   UNL     1       1.044   2.931  19.256  0.00  0.00    +0.000 C 
ATOM     17  O   UNL     1       0.279   2.288  18.547  0.00  0.00    +0.000 OA
BRANCH  16  18
ATOM     18  O   UNL     1       0.708   3.398  20.494  0.00  0.00    +0.000 OA
ATOM     19  C   UNL     1       1.389   2.763  21.576  0.00  0.00    +0.000 C 
ENDBRANCH  16  18
ENDBRANCH   5  16
TORSDOF 5
ENDMDL
MODEL 8
REMARK VINA RESULT:      -6.4      4.837      6.265
REMARK  Name = 
REMARK  8 active torsions:
REMARK  status: ('A' for Active; 'I' for Inactive)
REMARK    1  A    between atoms: C_1  and  C_2
REMARK    2  A    between atoms: C_2  and  C_3
REMARK    3  A    between atoms: C_3  and  C_4
REMARK    4  A    between atoms: C_7  and  C_8
REMARK    5  A    between atoms: C_10  and  C_11
REMARK    6  A    between atoms: C_12  and  C_13
REMARK    7  A    between atoms: C_13  and  O_15
REMARK    8  A    between atoms: O_15  and  C_16
REMARK                            x       y       z     vdW  Elec       q    Type
REMARK                         _______ _______ _______ _____ _____    ______ ____
ROOT
ATOM      1  C   UNL     1       4.444   4.615  18.366  0.00  0.00    +0.000 A 
ATOM      2  N   UNL     1       4.666   3.318  18.275  0.00  0.00    +0.000 NA
ATOM      3  C   UNL     1       3.529   2.588  18.585  0.00  0.00    +0.000 A 
ATOM      4  C   UNL     1       3.646   1.105  18.543  0.00  0.00    +0.000 C 
ATOM      5  C   UNL     1       2.417   3.351  18.903  0.00  0.00    +0.000 A 
ATOM      6  S   UNL     1       2.832   5.016  18.808  0.00  0.00    +0.000 S 
ENDROOT
BRANCH   1  10
ATOM      7  C   UNL     1       7.538   7.569  17.780  0.00  0.00    +0.000 A 
ATOM      8  C   UNL     1       7.741   6.450  18.593  0.00  0.00    +0.000 A 
ATOM      9  C   UNL     1       6.729   5.500  18.756  0.00  0.00    +0.000 A 
ATOM     10  C   UNL     1       5.482   5.638  18.123  0.00  0.00    +0.000 A 
ATOM     11  C   UNL     1       5.289   6.764  17.308  0.00  0.00    +0.000 A 
ATOM     12  C   UNL     1       6.302   7.717  17.141  0.00  0.00    +0.000 A 
BRANCH   7  13
ATOM     13  C   UNL     1       8.613   8.614  17.607  0.00  0.00    +0.000 C 
BRANCH  13  15
ATOM     14  C   UNL     1       9.325  10.292  19.391  0.00  0.00    +0.000 C 
ATOM     15  C   UNL     1       8.322   9.950  18.298  0.00  0.00    +0.000 C 
ENDBRANCH  13  15
ENDBRANCH   7  13
ENDBRANCH   1  10
BRANCH   5  16
ATOM     16  C   UNL     1       1.069   2.982  19.276  0.00  0.00    +0.000 C 
ATOM     17  O   UNL     1       0.270   2.358  18.588  0.00  0.00    +0.000 OA
BRANCH  16  18
ATOM     18  O   UNL     1       0.789   3.431  20.535  0.00  0.00    +0.000 OA
ATOM     19  C   UNL     1       1.461   2.731  21.580  0.00  0.00    +0.000 C 
ENDBRANCH  16  18
ENDBRANCH   5  16
TORSDOF 5
ENDMDL
MODEL 9
REMARK VINA RESULT:      -6.4      3.691      7.841
REMARK  Name = 
REMARK  8 active torsions:
REMARK  status: ('A' for Active; 'I' for Inactive)
REMARK    1  A    between atoms: C_1  and  C_2
REMARK    2  A    between atoms: C_2  and  C_3
REMARK    3  A    between atoms: C_3  and  C_4
REMARK    4  A    between atoms: C_7  and  C_8
REMARK    5  A    between atoms: C_10  and  C_11
REMARK    6  A    between atoms: C_12  and  C_13
REMARK    7  A    between atoms: C_13  and  O_15
REMARK    8  A    between atoms: O_15  and  C_16
REMARK                            x       y       z     vdW  Elec       q    Type
REMARK                         _______ _______ _______ _____ _____    ______ ____
ROOT
ATOM      1  C   UNL     1       3.772   6.446  17.824  0.00  0.00    +0.000 A 
ATOM      2  N   UNL     1       3.510   5.155  17.776  0.00  0.00    +0.000 NA
ATOM      3  C   UNL     1       4.529   4.456  17.147  0.00  0.00    +0.000 A 
ATOM      4  C   UNL     1       4.352   2.986  17.003  0.00  0.00    +0.000 C 
ATOM      5  C   UNL     1       5.593   5.237  16.723  0.00  0.00    +0.000 A 
ATOM      6  S   UNL     1       5.284   6.877  17.130  0.00  0.00    +0.000 S 
ENDROOT
BRANCH   1  10
ATOM      7  C   UNL     1       1.033   9.257  19.625  0.00  0.00    +0.000 A 
ATOM      8  C   UNL     1       1.476   8.125  20.315  0.00  0.00    +0.000 A 
ATOM      9  C   UNL     1       2.375   7.237  19.716  0.00  0.00    +0.000 A 
ATOM     10  C   UNL     1       2.851   7.444  18.410  0.00  0.00    +0.000 A 
ATOM     11  C   UNL     1       2.401   8.583  17.727  0.00  0.00    +0.000 A 
ATOM     12  C   UNL     1       1.502   9.475  18.326  0.00  0.00    +0.000 A 
BRANCH   7  13
ATOM     13  C   UNL     1       0.050  10.217  20.250  0.00  0.00    +0.000 C 
BRANCH  13  15
ATOM     14  C   UNL     1      -0.611  10.873  22.624  0.00  0.00    +0.000 C 
ATOM     15  C   UNL     1      -0.527   9.756  21.593  0.00  0.00    +0.000 C 
ENDBRANCH  13  15
ENDBRANCH   7  13
ENDBRANCH   1  10
BRANCH   5  16
ATOM     16  C   UNL     1       6.824   4.899  16.041  0.00  0.00    +0.000 C 
ATOM     17  O   UNL     1       7.818   4.389  16.544  0.00  0.00    +0.000 OA
BRANCH  16  18
ATOM     18  O   UNL     1       6.736   5.233  14.720  0.00  0.00    +0.000 OA
ATOM     19  C   UNL     1       6.445   4.141  13.848  0.00  0.00    +0.000 C 
ENDBRANCH  16  18
ENDBRANCH   5  16
TORSDOF 5
ENDMDL
