MODEL 1
REMARK VINA RESULT:      -7.8      0.000      0.000
REMARK  Name = 
REMARK  5 active torsions:
REMARK  status: ('A' for Active; 'I' for Inactive)
REMARK    1  A    between atoms: C_1  and  N_2
REMARK    2  A    between atoms: C_4  and  C_5
REMARK    3  A    between atoms: C_18  and  C_19
REMARK    4  A    between atoms: C_20  and  C_21
REMARK    5  A    between atoms: N_23  and  O_24
REMARK                            x       y       z     vdW  Elec       q    Type
REMARK                         _______ _______ _______ _____ _____    ______ ____
ROOT
ATOM      1  C   UNL     1       5.360   6.395  17.058  0.00  0.00    +0.000 C 
ATOM      2  N   UNL     1       4.023   6.689  17.537  0.00  0.00    +0.000 N 
ATOM      3  C   UNL     1       3.485   7.956  17.508  0.00  0.00    +0.000 A 
ATOM      4  C   UNL     1       2.239   7.900  18.084  0.00  0.00    +0.000 A 
ATOM      5  C   UNL     1       1.998   6.560  18.446  0.00  0.00    +0.000 A 
ATOM      6  C   UNL     1       3.118   5.808  18.110  0.00  0.00    +0.000 A 
ENDROOT
BRANCH   4   7
ATOM      7  C   UNL     1       1.388   9.021  18.279  0.00  0.00    +0.000 C 
ATOM      8  C   UNL     1       1.167   9.627  19.458  0.00  0.00    +0.000 C 
ATOM      9  C   UNL     1       1.793   9.274  20.774  0.00  0.00    +0.000 C 
ATOM     10  C   UNL     1       0.700   8.953  21.784  0.00  0.00    +0.000 C 
ATOM     11  C   UNL     1      -0.266  10.103  21.905  0.00  0.00    +0.000 A 
ATOM     12  C   UNL     1      -0.965  10.302  23.104  0.00  0.00    +0.000 A 
ATOM     13  C   UNL     1      -1.866  11.359  23.227  0.00  0.00    +0.000 A 
ATOM     14  C   UNL     1      -2.086  12.220  22.153  0.00  0.00    +0.000 A 
ATOM     15  C   UNL     1      -1.415  12.021  20.946  0.00  0.00    +0.000 A 
ATOM     16  C   UNL     1      -0.511  10.960  20.814  0.00  0.00    +0.000 A 
ATOM     17  C   UNL     1       0.161  10.734  19.500  0.00  0.00    +0.000 C 
ATOM     18  O   UNL     1      -0.113  11.414  18.517  0.00  0.00    +0.000 OA
ENDBRANCH   4   7
BRANCH   6  19
ATOM     19  C   UNL     1       3.435   4.428  18.271  0.00  0.00    +0.000 C 
ATOM     20  C   UNL     1       4.003   3.984  19.404  0.00  0.00    +0.000 C 
BRANCH  20  21
ATOM     21  C   UNL     1       4.345   2.553  19.566  0.00  0.00    +0.000 C 
ATOM     22  O   UNL     1       4.809   2.076  20.596  0.00  0.00    +0.000 OA
ATOM     23  N   UNL     1       4.085   1.802  18.451  0.00  0.00    +0.000 N 
ATOM     24  H   UNL     1       3.668   2.139  17.592  0.00  0.00    +0.000 HD
BRANCH  23  25
ATOM     25  O   UNL     1       4.351   0.419  18.533  0.00  0.00    +0.000 OA
ATOM     26  H   UNL     1       4.408   0.275  19.504  0.00  0.00    +0.000 HD
ENDBRANCH  23  25
ENDBRANCH  20  21
ENDBRANCH   6  19
TORSDOF 4
ENDMDL
MODEL 2
REMARK VINA RESULT:      -7.6      2.882      4.018
REMARK  Name = 
REMARK  5 active torsions:
REMARK  status: ('A' for Active; 'I' for Inactive)
REMARK    1  A    between atoms: C_1  and  N_2
REMARK    2  A    between atoms: C_4  and  C_5
REMARK    3  A    between atoms: C_18  and  C_19
REMARK    4  A    between atoms: C_20  and  C_21
REMARK    5  A    between atoms: N_23  and  O_24
REMARK                            x       y       z     vdW  Elec       q    Type
REMARK                         _______ _______ _______ _____ _____    ______ ____
ROOT
ATOM      1  C   UNL     1       3.142   2.706  17.831  0.00  0.00    +0.000 C 
ATOM      2  N   UNL     1       3.299   4.098  18.207  0.00  0.00    +0.000 N 
ATOM      3  C   UNL     1       2.466   4.724  19.106  0.00  0.00    +0.000 A 
ATOM      4  C   UNL     1       2.849   6.040  19.192  0.00  0.00    +0.000 A 
ATOM      5  C   UNL     1       3.965   6.214  18.349  0.00  0.00    +0.000 A 
ATOM      6  C   UNL     1       4.238   5.000  17.730  0.00  0.00    +0.000 A 
ENDROOT
BRANCH   4   7
ATOM      7  C   UNL     1       2.197   7.022  19.986  0.00  0.00    +0.000 C 
ATOM      8  C   UNL     1       1.614   8.137  19.512  0.00  0.00    +0.000 C 
ATOM      9  C   UNL     1       1.503   8.542  18.073  0.00  0.00    +0.000 C 
ATOM     10  C   UNL     1       2.148   9.908  17.881  0.00  0.00    +0.000 C 
ATOM     11  C   UNL     1       1.528  10.922  18.807  0.00  0.00    +0.000 A 
ATOM     12  C   UNL     1       1.514  12.277  18.446  0.00  0.00    +0.000 A 
ATOM     13  C   UNL     1       0.949  13.227  19.296  0.00  0.00    +0.000 A 
ATOM     14  C   UNL     1       0.402  12.837  20.518  0.00  0.00    +0.000 A 
ATOM     15  C   UNL     1       0.429  11.494  20.900  0.00  0.00    +0.000 A 
ATOM     16  C   UNL     1       0.997  10.536  20.053  0.00  0.00    +0.000 A 
ATOM     17  C   UNL     1       1.060   9.113  20.501  0.00  0.00    +0.000 C 
ATOM     18  O   UNL     1       0.687   8.779  21.621  0.00  0.00    +0.000 OA
ENDBRANCH   4   7
BRANCH   6  19
ATOM     19  C   UNL     1       5.218   4.607  16.773  0.00  0.00    +0.000 C 
ATOM     20  C   UNL     1       5.334   5.259  15.604  0.00  0.00    +0.000 C 
BRANCH  20  21
ATOM     21  C   UNL     1       6.342   4.842  14.604  0.00  0.00    +0.000 C 
ATOM     22  O   UNL     1       7.498   5.253  14.590  0.00  0.00    +0.000 OA
ATOM     23  N   UNL     1       5.863   3.939  13.693  0.00  0.00    +0.000 N 
ATOM     24  H   UNL     1       4.932   3.541  13.685  0.00  0.00    +0.000 HD
BRANCH  23  25
ATOM     25  O   UNL     1       6.771   3.462  12.725  0.00  0.00    +0.000 OA
ATOM     26  H   UNL     1       7.492   3.090  13.280  0.00  0.00    +0.000 HD
ENDBRANCH  23  25
ENDBRANCH  20  21
ENDBRANCH   6  19
TORSDOF 4
ENDMDL
MODEL 3
REMARK VINA RESULT:      -7.6      1.044      1.168
REMARK  Name = 
REMARK  5 active torsions:
REMARK  status: ('A' for Active; 'I' for Inactive)
REMARK    1  A    between atoms: C_1  and  N_2
REMARK    2  A    between atoms: C_4  and  C_5
REMARK    3  A    between atoms: C_18  and  C_19
REMARK    4  A    between atoms: C_20  and  C_21
REMARK    5  A    between atoms: N_23  and  O_24
REMARK                            x       y       z     vdW  Elec       q    Type
REMARK                         _______ _______ _______ _____ _____    ______ ____
ROOT
ATOM      1  C   UNL     1       4.503   6.452  17.081  0.00  0.00    +0.000 C 
ATOM      2  N   UNL     1       3.461   7.007  17.923  0.00  0.00    +0.000 N 
ATOM      3  C   UNL     1       2.761   8.144  17.589  0.00  0.00    +0.000 A 
ATOM      4  C   UNL     1       1.899   8.428  18.620  0.00  0.00    +0.000 A 
ATOM      5  C   UNL     1       2.054   7.422  19.594  0.00  0.00    +0.000 A 
ATOM      6  C   UNL     1       3.037   6.541  19.158  0.00  0.00    +0.000 A 
ENDROOT
BRANCH   4   7
ATOM      7  C   UNL     1       1.037   9.557  18.664  0.00  0.00    +0.000 C 
ATOM      8  C   UNL     1       0.736  10.256  19.772  0.00  0.00    +0.000 C 
ATOM      9  C   UNL     1       1.270  10.014  21.152  0.00  0.00    +0.000 C 
ATOM     10  C   UNL     1       0.110   9.771  22.108  0.00  0.00    +0.000 C 
ATOM     11  C   UNL     1      -0.861  10.923  22.068  0.00  0.00    +0.000 A 
ATOM     12  C   UNL     1      -1.641  11.215  23.196  0.00  0.00    +0.000 A 
ATOM     13  C   UNL     1      -2.547  12.274  23.171  0.00  0.00    +0.000 A 
ATOM     14  C   UNL     1      -2.692  13.044  22.018  0.00  0.00    +0.000 A 
ATOM     15  C   UNL     1      -1.939  12.751  20.880  0.00  0.00    +0.000 A 
ATOM     16  C   UNL     1      -1.030  11.687  20.897  0.00  0.00    +0.000 A 
ATOM     17  C   UNL     1      -0.269  11.358  19.655  0.00  0.00    +0.000 C 
ATOM     18  O   UNL     1      -0.475  11.955  18.603  0.00  0.00    +0.000 OA
ENDBRANCH   4   7
BRANCH   6  19
ATOM     19  C   UNL     1       3.612   5.376  19.744  0.00  0.00    +0.000 C 
ATOM     20  C   UNL     1       2.999   4.185  19.644  0.00  0.00    +0.000 C 
BRANCH  20  21
ATOM     21  C   UNL     1       3.589   2.978  20.265  0.00  0.00    +0.000 C 
ATOM     22  O   UNL     1       3.105   2.407  21.238  0.00  0.00    +0.000 OA
ATOM     23  N   UNL     1       4.731   2.548  19.643  0.00  0.00    +0.000 N 
ATOM     24  H   UNL     1       5.148   2.960  18.818  0.00  0.00    +0.000 HD
BRANCH  23  25
ATOM     25  O   UNL     1       5.338   1.381  20.153  0.00  0.00    +0.000 OA
ATOM     26  H   UNL     1       6.267   1.479  19.850  0.00  0.00    +0.000 HD
ENDBRANCH  23  25
ENDBRANCH  20  21
ENDBRANCH   6  19
TORSDOF 4
ENDMDL
MODEL 4
REMARK VINA RESULT:      -7.5      2.183      2.795
REMARK  Name = 
REMARK  5 active torsions:
REMARK  status: ('A' for Active; 'I' for Inactive)
REMARK    1  A    between atoms: C_1  and  N_2
REMARK    2  A    between atoms: C_4  and  C_5
REMARK    3  A    between atoms: C_18  and  C_19
REMARK    4  A    between atoms: C_20  and  C_21
REMARK    5  A    between atoms: N_23  and  O_24
REMARK                            x       y       z     vdW  Elec       q    Type
REMARK                         _______ _______ _______ _____ _____    ______ ____
ROOT
ATOM      1  C   UNL     1       3.073   5.458  19.927  0.00  0.00    +0.000 C 
ATOM      2  N   UNL     1       2.797   6.673  19.185  0.00  0.00    +0.000 N 
ATOM      3  C   UNL     1       1.810   7.560  19.550  0.00  0.00    +0.000 A 
ATOM      4  C   UNL     1       1.774   8.562  18.612  0.00  0.00    +0.000 A 
ATOM      5  C   UNL     1       2.785   8.298  17.667  0.00  0.00    +0.000 A 
ATOM      6  C   UNL     1       3.417   7.112  18.024  0.00  0.00    +0.000 A 
ENDROOT
BRANCH   4   7
ATOM      7  C   UNL     1       0.851   9.644  18.620  0.00  0.00    +0.000 C 
ATOM      8  C   UNL     1       0.554  10.397  19.692  0.00  0.00    +0.000 C 
ATOM      9  C   UNL     1       1.153  10.277  21.061  0.00  0.00    +0.000 C 
ATOM     10  C   UNL     1       0.045  10.035  22.078  0.00  0.00    +0.000 C 
ATOM     11  C   UNL     1      -0.991  11.127  22.005  0.00  0.00    +0.000 A 
ATOM     12  C   UNL     1      -1.742  11.451  23.143  0.00  0.00    +0.000 A 
ATOM     13  C   UNL     1      -2.707  12.455  23.088  0.00  0.00    +0.000 A 
ATOM     14  C   UNL     1      -2.939  13.139  21.895  0.00  0.00    +0.000 A 
ATOM     15  C   UNL     1      -2.215  12.811  20.748  0.00  0.00    +0.000 A 
ATOM     16  C   UNL     1      -1.246  11.802  20.795  0.00  0.00    +0.000 A 
ATOM     17  C   UNL     1      -0.516  11.433  19.546  0.00  0.00    +0.000 C 
ATOM     18  O   UNL     1      -0.795  11.947  18.468  0.00  0.00    +0.000 OA
ENDBRANCH   4   7
BRANCH   6  19
ATOM     19  C   UNL     1       4.472   6.366  17.424  0.00  0.00    +0.000 C 
ATOM     20  C   UNL     1       5.755   6.701  17.638  0.00  0.00    +0.000 C 
BRANCH  20  21
ATOM     21  C   UNL     1       6.851   5.935  17.002  0.00  0.00    +0.000 C 
ATOM     22  O   UNL     1       7.415   6.284  15.970  0.00  0.00    +0.000 OA
ATOM     23  N   UNL     1       7.185   4.796  17.683  0.00  0.00    +0.000 N 
ATOM     24  H   UNL     1       6.777   4.485  18.556  0.00  0.00    +0.000 HD
BRANCH  23  25
ATOM     25  O   UNL     1       8.246   4.025  17.162  0.00  0.00    +0.000 OA
ATOM     26  H   UNL     1       7.908   3.108  17.266  0.00  0.00    +0.000 HD
ENDBRANCH  23  25
ENDBRANCH  20  21
ENDBRANCH   6  19
TORSDOF 4
ENDMDL
MODEL 5
REMARK VINA RESULT:      -7.5      2.264      2.760
REMARK  Name = 
REMARK  5 active torsions:
REMARK  status: ('A' for Active; 'I' for Inactive)
REMARK    1  A    between atoms: C_1  and  N_2
REMARK    2  A    between atoms: C_4  and  C_5
REMARK    3  A    between atoms: C_18  and  C_19
REMARK    4  A    between atoms: C_20  and  C_21
REMARK    5  A    between atoms: N_23  and  O_24
REMARK                            x       y       z     vdW  Elec       q    Type
REMARK                         _______ _______ _______ _____ _____    ______ ____
ROOT
ATOM      1  C   UNL     1       3.491   5.087  19.840  0.00  0.00    +0.000 C 
ATOM      2  N   UNL     1       3.157   6.271  19.073  0.00  0.00    +0.000 N 
ATOM      3  C   UNL     1       2.304   7.244  19.541  0.00  0.00    +0.000 A 
ATOM      4  C   UNL     1       2.157   8.188  18.554  0.00  0.00    +0.000 A 
ATOM      5  C   UNL     1       2.967   7.799  17.469  0.00  0.00    +0.000 A 
ATOM      6  C   UNL     1       3.584   6.596  17.794  0.00  0.00    +0.000 A 
ENDROOT
BRANCH   4   7
ATOM      7  C   UNL     1       1.314   9.329  18.646  0.00  0.00    +0.000 C 
ATOM      8  C   UNL     1       1.005   9.971  19.785  0.00  0.00    +0.000 C 
ATOM      9  C   UNL     1       1.508   9.644  21.159  0.00  0.00    +0.000 C 
ATOM     10  C   UNL     1       0.326   9.370  22.079  0.00  0.00    +0.000 C 
ATOM     11  C   UNL     1      -0.624  10.539  22.086  0.00  0.00    +0.000 A 
ATOM     12  C   UNL     1      -1.419  10.783  23.214  0.00  0.00    +0.000 A 
ATOM     13  C   UNL     1      -2.306  11.859  23.232  0.00  0.00    +0.000 A 
ATOM     14  C   UNL     1      -2.416  12.694  22.121  0.00  0.00    +0.000 A 
ATOM     15  C   UNL     1      -1.648  12.449  20.981  0.00  0.00    +0.000 A 
ATOM     16  C   UNL     1      -0.757  11.370  20.956  0.00  0.00    +0.000 A 
ATOM     17  C   UNL     1       0.021  11.096  19.712  0.00  0.00    +0.000 C 
ATOM     18  O   UNL     1      -0.155  11.753  18.691  0.00  0.00    +0.000 OA
ENDBRANCH   4   7
BRANCH   6  19
ATOM     19  C   UNL     1       4.470   5.745  17.074  0.00  0.00    +0.000 C 
ATOM     20  C   UNL     1       5.250   6.237  16.097  0.00  0.00    +0.000 C 
BRANCH  20  21
ATOM     21  C   UNL     1       6.160   5.350  15.338  0.00  0.00    +0.000 C 
ATOM     22  O   UNL     1       7.363   5.554  15.215  0.00  0.00    +0.000 OA
ATOM     23  N   UNL     1       5.530   4.265  14.790  0.00  0.00    +0.000 N 
ATOM     24  H   UNL     1       4.551   4.031  14.895  0.00  0.00    +0.000 HD
BRANCH  23  25
ATOM     25  O   UNL     1       6.334   3.348  14.079  0.00  0.00    +0.000 OA
ATOM     26  H   UNL     1       5.754   3.103  13.325  0.00  0.00    +0.000 HD
ENDBRANCH  23  25
ENDBRANCH  20  21
ENDBRANCH   6  19
TORSDOF 4
ENDMDL
MODEL 6
REMARK VINA RESULT:      -7.4      3.433      4.715
REMARK  Name = 
REMARK  5 active torsions:
REMARK  status: ('A' for Active; 'I' for Inactive)
REMARK    1  A    between atoms: C_1  and  N_2
REMARK    2  A    between atoms: C_4  and  C_5
REMARK    3  A    between atoms: C_18  and  C_19
REMARK    4  A    between atoms: C_20  and  C_21
REMARK    5  A    between atoms: N_23  and  O_24
REMARK                            x       y       z     vdW  Elec       q    Type
REMARK                         _______ _______ _______ _____ _____    ______ ____
ROOT
ATOM      1  C   UNL     1       7.514   5.581  16.108  0.00  0.00    +0.000 C 
ATOM      2  N   UNL     1       6.172   5.312  16.585  0.00  0.00    +0.000 N 
ATOM      3  C   UNL     1       5.643   5.920  17.701  0.00  0.00    +0.000 A 
ATOM      4  C   UNL     1       4.387   5.404  17.909  0.00  0.00    +0.000 A 
ATOM      5  C   UNL     1       4.130   4.482  16.875  0.00  0.00    +0.000 A 
ATOM      6  C   UNL     1       5.250   4.422  16.055  0.00  0.00    +0.000 A 
ENDROOT
BRANCH   4   7
ATOM      7  C   UNL     1       3.539   5.752  18.996  0.00  0.00    +0.000 C 
ATOM      8  C   UNL     1       2.560   6.671  18.948  0.00  0.00    +0.000 C 
ATOM      9  C   UNL     1       2.145   7.472  17.751  0.00  0.00    +0.000 C 
ATOM     10  C   UNL     1       2.259   8.957  18.071  0.00  0.00    +0.000 C 
ATOM     11  C   UNL     1       1.447   9.299  19.293  0.00  0.00    +0.000 A 
ATOM     12  C   UNL     1       0.930  10.594  19.445  0.00  0.00    +0.000 A 
ATOM     13  C   UNL     1       0.182  10.926  20.573  0.00  0.00    +0.000 A 
ATOM     14  C   UNL     1      -0.050   9.974  21.565  0.00  0.00    +0.000 A 
ATOM     15  C   UNL     1       0.478   8.688  21.439  0.00  0.00    +0.000 A 
ATOM     16  C   UNL     1       1.232   8.348  20.310  0.00  0.00    +0.000 A 
ATOM     17  C   UNL     1       1.829   6.983  20.216  0.00  0.00    +0.000 C 
ATOM     18  O   UNL     1       1.729   6.177  21.135  0.00  0.00    +0.000 OA
ENDBRANCH   4   7
BRANCH   6  19
ATOM     19  C   UNL     1       5.554   3.650  14.896  0.00  0.00    +0.000 C 
ATOM     20  C   UNL     1       5.277   4.120  13.668  0.00  0.00    +0.000 C 
BRANCH  20  21
ATOM     21  C   UNL     1       5.579   3.312  12.465  0.00  0.00    +0.000 C 
ATOM     22  O   UNL     1       4.768   3.094  11.571  0.00  0.00    +0.000 OA
ATOM     23  N   UNL     1       6.861   2.833  12.439  0.00  0.00    +0.000 N 
ATOM     24  H   UNL     1       7.577   3.016  13.130  0.00  0.00    +0.000 HD
BRANCH  23  25
ATOM     25  O   UNL     1       7.241   2.080  11.307  0.00  0.00    +0.000 OA
ATOM     26  H   UNL     1       6.760   2.537  10.582  0.00  0.00    +0.000 HD
ENDBRANCH  23  25
ENDBRANCH  20  21
ENDBRANCH   6  19
TORSDOF 4
ENDMDL
MODEL 7
REMARK VINA RESULT:      -7.3      3.233      4.341
REMARK  Name = 
REMARK  5 active torsions:
REMARK  status: ('A' for Active; 'I' for Inactive)
REMARK    1  A    between atoms: C_1  and  N_2
REMARK    2  A    between atoms: C_4  and  C_5
REMARK    3  A    between atoms: C_18  and  C_19
REMARK    4  A    between atoms: C_20  and  C_21
REMARK    5  A    between atoms: N_23  and  O_24
REMARK                            x       y       z     vdW  Elec       q    Type
REMARK                         _______ _______ _______ _____ _____    ______ ____
ROOT
ATOM      1  C   UNL     1       7.526   4.475  17.816  0.00  0.00    +0.000 C 
ATOM      2  N   UNL     1       6.246   5.153  17.766  0.00  0.00    +0.000 N 
ATOM      3  C   UNL     1       5.538   5.490  18.897  0.00  0.00    +0.000 A 
ATOM      4  C   UNL     1       4.353   6.062  18.501  0.00  0.00    +0.000 A 
ATOM      5  C   UNL     1       4.352   6.104  17.093  0.00  0.00    +0.000 A 
ATOM      6  C   UNL     1       5.532   5.528  16.637  0.00  0.00    +0.000 A 
ENDROOT
BRANCH   4   7
ATOM      7  C   UNL     1       3.331   6.499  19.386  0.00  0.00    +0.000 C 
ATOM      8  C   UNL     1       2.372   7.390  19.079  0.00  0.00    +0.000 C 
ATOM      9  C   UNL     1       2.169   8.059  17.753  0.00  0.00    +0.000 C 
ATOM     10  C   UNL     1       2.222   9.570  17.935  0.00  0.00    +0.000 C 
ATOM     11  C   UNL     1       1.211  10.017  18.959  0.00  0.00    +0.000 A 
ATOM     12  C   UNL     1       0.674  11.310  18.887  0.00  0.00    +0.000 A 
ATOM     13  C   UNL     1      -0.258  11.739  19.831  0.00  0.00    +0.000 A 
ATOM     14  C   UNL     1      -0.655  10.887  20.861  0.00  0.00    +0.000 A 
ATOM     15  C   UNL     1      -0.111   9.605  20.958  0.00  0.00    +0.000 A 
ATOM     16  C   UNL     1       0.827   9.169  20.015  0.00  0.00    +0.000 A 
ATOM     17  C   UNL     1       1.433   7.813  20.164  0.00  0.00    +0.000 C 
ATOM     18  O   UNL     1       1.179   7.102  21.130  0.00  0.00    +0.000 OA
ENDBRANCH   4   7
BRANCH   6  19
ATOM     19  C   UNL     1       6.040   5.282  15.329  0.00  0.00    +0.000 C 
ATOM     20  C   UNL     1       5.827   4.102  14.723  0.00  0.00    +0.000 C 
BRANCH  20  21
ATOM     21  C   UNL     1       6.368   3.841  13.370  0.00  0.00    +0.000 C 
ATOM     22  O   UNL     1       7.164   4.581  12.801  0.00  0.00    +0.000 OA
ATOM     23  N   UNL     1       5.900   2.682  12.811  0.00  0.00    +0.000 N 
ATOM     24  H   UNL     1       5.275   2.020  13.254  0.00  0.00    +0.000 HD
BRANCH  23  25
ATOM     25  O   UNL     1       6.394   2.341  11.534  0.00  0.00    +0.000 OA
ATOM     26  H   UNL     1       6.248   3.169  11.026  0.00  0.00    +0.000 HD
ENDBRANCH  23  25
ENDBRANCH  20  21
ENDBRANCH   6  19
TORSDOF 4
ENDMDL
MODEL 8
REMARK VINA RESULT:      -7.3      1.630      2.453
REMARK  Name = 
REMARK  5 active torsions:
REMARK  status: ('A' for Active; 'I' for Inactive)
REMARK    1  A    between atoms: C_1  and  N_2
REMARK    2  A    between atoms: C_4  and  C_5
REMARK    3  A    between atoms: C_18  and  C_19
REMARK    4  A    between atoms: C_20  and  C_21
REMARK    5  A    between atoms: N_23  and  O_24
REMARK                            x       y       z     vdW  Elec       q    Type
REMARK                         _______ _______ _______ _____ _____    ______ ____
ROOT
ATOM      1  C   UNL     1       3.424   6.882  17.568  0.00  0.00    +0.000 C 
ATOM      2  N   UNL     1       2.733   6.862  18.843  0.00  0.00    +0.000 N 
ATOM      3  C   UNL     1       2.222   7.998  19.430  0.00  0.00    +0.000 A 
ATOM      4  C   UNL     1       1.688   7.643  20.645  0.00  0.00    +0.000 A 
ATOM      5  C   UNL     1       1.849   6.250  20.789  0.00  0.00    +0.000 A 
ATOM      6  C   UNL     1       2.510   5.768  19.665  0.00  0.00    +0.000 A 
ENDROOT
BRANCH   4   7
ATOM      7  C   UNL     1       1.106   8.552  21.569  0.00  0.00    +0.000 C 
ATOM      8  C   UNL     1       0.162   9.460  21.268  0.00  0.00    +0.000 C 
ATOM      9  C   UNL     1      -0.483   9.667  19.931  0.00  0.00    +0.000 C 
ATOM     10  C   UNL     1      -0.267  11.106  19.481  0.00  0.00    +0.000 C 
ATOM     11  C   UNL     1      -0.786  12.069  20.518  0.00  0.00    +0.000 A 
ATOM     12  C   UNL     1      -1.227  13.341  20.127  0.00  0.00    +0.000 A 
ATOM     13  C   UNL     1      -1.704  14.244  21.076  0.00  0.00    +0.000 A 
ATOM     14  C   UNL     1      -1.737  13.890  22.424  0.00  0.00    +0.000 A 
ATOM     15  C   UNL     1      -1.280  12.636  22.831  0.00  0.00    +0.000 A 
ATOM     16  C   UNL     1      -0.798  11.725  21.884  0.00  0.00    +0.000 A 
ATOM     17  C   UNL     1      -0.269  10.407  22.343  0.00  0.00    +0.000 C 
ATOM     18  O   UNL     1      -0.186  10.133  23.536  0.00  0.00    +0.000 OA
ENDBRANCH   4   7
BRANCH   6  19
ATOM     19  C   UNL     1       2.952   4.465  19.295  0.00  0.00    +0.000 C 
ATOM     20  C   UNL     1       3.771   3.766  20.098  0.00  0.00    +0.000 C 
BRANCH  20  21
ATOM     21  C   UNL     1       4.243   2.419  19.706  0.00  0.00    +0.000 C 
ATOM     22  O   UNL     1       5.016   1.746  20.380  0.00  0.00    +0.000 OA
ATOM     23  N   UNL     1       3.724   1.986  18.515  0.00  0.00    +0.000 N 
ATOM     24  H   UNL     1       3.055   2.485  17.943  0.00  0.00    +0.000 HD
BRANCH  23  25
ATOM     25  O   UNL     1       4.097   0.694  18.086  0.00  0.00    +0.000 OA
ATOM     26  H   UNL     1       3.591   0.117  18.699  0.00  0.00    +0.000 HD
ENDBRANCH  23  25
ENDBRANCH  20  21
ENDBRANCH   6  19
TORSDOF 4
ENDMDL
MODEL 9
REMARK VINA RESULT:      -7.3      2.670      3.792
REMARK  Name = 
REMARK  5 active torsions:
REMARK  status: ('A' for Active; 'I' for Inactive)
REMARK    1  A    between atoms: C_1  and  N_2
REMARK    2  A    between atoms: C_4  and  C_5
REMARK    3  A    between atoms: C_18  and  C_19
REMARK    4  A    between atoms: C_20  and  C_21
REMARK    5  A    between atoms: N_23  and  O_24
REMARK                            x       y       z     vdW  Elec       q    Type
REMARK                         _______ _______ _______ _____ _____    ______ ____
ROOT
ATOM      1  C   UNL     1       3.207   3.431  19.545  0.00  0.00    +0.000 C 
ATOM      2  N   UNL     1       3.100   4.874  19.447  0.00  0.00    +0.000 N 
ATOM      3  C   UNL     1       2.205   5.605  20.195  0.00  0.00    +0.000 A 
ATOM      4  C   UNL     1       2.319   6.922  19.822  0.00  0.00    +0.000 A 
ATOM      5  C   UNL     1       3.331   7.001  18.845  0.00  0.00    +0.000 A 
ATOM      6  C   UNL     1       3.810   5.718  18.608  0.00  0.00    +0.000 A 
ENDROOT
BRANCH   4   7
ATOM      7  C   UNL     1       1.525   7.981  20.340  0.00  0.00    +0.000 C 
ATOM      8  C   UNL     1       1.135   9.065  19.647  0.00  0.00    +0.000 C 
ATOM      9  C   UNL     1       1.422   9.351  18.204  0.00  0.00    +0.000 C 
ATOM     10  C   UNL     1       2.153  10.682  18.087  0.00  0.00    +0.000 C 
ATOM     11  C   UNL     1       1.356  11.783  18.738  0.00  0.00    +0.000 A 
ATOM     12  C   UNL     1       1.496  13.103  18.287  0.00  0.00    +0.000 A 
ATOM     13  C   UNL     1       0.770  14.133  18.883  0.00  0.00    +0.000 A 
ATOM     14  C   UNL     1      -0.094  13.857  19.942  0.00  0.00    +0.000 A 
ATOM     15  C   UNL     1      -0.227  12.551  20.417  0.00  0.00    +0.000 A 
ATOM     16  C   UNL     1       0.502  11.514  19.824  0.00  0.00    +0.000 A 
ATOM     17  C   UNL     1       0.384  10.132  20.378  0.00  0.00    +0.000 C 
ATOM     18  O   UNL     1      -0.283   9.900  21.381  0.00  0.00    +0.000 OA
ENDBRANCH   4   7
BRANCH   6  19
ATOM     19  C   UNL     1       4.798   5.210  17.715  0.00  0.00    +0.000 C 
ATOM     20  C   UNL     1       6.008   5.787  17.633  0.00  0.00    +0.000 C 
BRANCH  20  21
ATOM     21  C   UNL     1       7.029   5.269  16.694  0.00  0.00    +0.000 C 
ATOM     22  O   UNL     1       7.816   4.370  16.973  0.00  0.00    +0.000 OA
ATOM     23  N   UNL     1       7.006   5.884  15.471  0.00  0.00    +0.000 N 
ATOM     24  H   UNL     1       6.354   6.601  15.179  0.00  0.00    +0.000 HD
BRANCH  23  25
ATOM     25  O   UNL     1       7.926   5.424  14.505  0.00  0.00    +0.000 OA
ATOM     26  H   UNL     1       8.266   6.263  14.124  0.00  0.00    +0.000 HD
ENDBRANCH  23  25
ENDBRANCH  20  21
ENDBRANCH   6  19
TORSDOF 4
ENDMDL
