MODEL 1
REMARK VINA RESULT:      -7.9      0.000      0.000
REMARK  Name = 
REMARK  8 active torsions:
REMARK  status: ('A' for Active; 'I' for Inactive)
REMARK    1  A    between atoms: N_3  and  C_4
REMARK    2  A    between atoms: C_4  and  C_5
REMARK    3  A    between atoms: C_5  and  C_6
REMARK    4  A    between atoms: C_6  and  N_7
REMARK    5  A    between atoms: C_8  and  C_10
REMARK    6  A    between atoms: C_14  and  O_15
REMARK    7  A    between atoms: N_17  and  C_18
REMARK    8  A    between atoms: C_18  and  C_19
REMARK                            x       y       z     vdW  Elec       q    Type
REMARK                         _______ _______ _______ _____ _____    ______ ____
ROOT
ATOM      1  C   UNL     1       1.541   2.141  18.779  0.00  0.00    +0.000 C 
ENDROOT
BRANCH   1   4
ATOM      2  O   UNL     1       2.606   3.955  16.881  0.00  0.00    +0.000 OA
ATOM      3  C   UNL     1       3.338   3.121  17.393  0.00  0.00    +0.000 C 
ATOM      4  N   UNL     1       2.925   2.203  18.326  0.00  0.00    +0.000 N 
ATOM      5  N   UNL     1       4.669   2.983  17.100  0.00  0.00    +0.000 N 
ATOM      6  H   UNL     1       3.518   1.413  18.502  0.00  0.00    +0.000 HD
ATOM      7  H   UNL     1       5.237   2.403  17.697  0.00  0.00    +0.000 HD
BRANCH   5   8
ATOM      8  C   UNL     1       5.357   3.867  16.182  0.00  0.00    +0.000 C 
BRANCH   8   9
ATOM      9  C   UNL     1       6.151   4.941  16.875  0.00  0.00    +0.000 A 
ATOM     10  C   UNL     1       7.147   4.616  17.809  0.00  0.00    +0.000 A 
ATOM     11  C   UNL     1       7.865   5.622  18.465  0.00  0.00    +0.000 A 
ATOM     12  C   UNL     1       7.600   6.965  18.195  0.00  0.00    +0.000 A 
ATOM     13  C   UNL     1       6.618   7.300  17.263  0.00  0.00    +0.000 A 
ATOM     14  C   UNL     1       5.910   6.292  16.613  0.00  0.00    +0.000 A 
ATOM     15  F   UNL     1       4.967   6.639  15.725  0.00  0.00    +0.000 F 
ENDBRANCH   8   9
ENDBRANCH   5   8
ENDBRANCH   1   4
BRANCH   1  16
ATOM     16  C   UNL     1       1.385   2.463  20.266  0.00  0.00    +0.000 C 
BRANCH  16  17
ATOM     17  C   UNL     1       2.394   3.508  20.729  0.00  0.00    +0.000 C 
BRANCH  17  18
ATOM     18  N   UNL     1       2.021   4.839  20.302  0.00  0.00    +0.000 N 
ATOM     19  C   UNL     1       2.949   5.739  19.820  0.00  0.00    +0.000 C 
ATOM     20  O   UNL     1       4.142   5.488  19.701  0.00  0.00    +0.000 OA
ATOM     21  H   UNL     1       1.035   5.039  20.195  0.00  0.00    +0.000 HD
BRANCH  19  22
ATOM     22  C   UNL     1       2.413   7.068  19.420  0.00  0.00    +0.000 A 
ATOM     23  C   UNL     1       2.683   7.561  18.136  0.00  0.00    +0.000 A 
ATOM     24  C   UNL     1       2.186   8.809  17.748  0.00  0.00    +0.000 A 
ATOM     25  C   UNL     1       1.433   9.571  18.644  0.00  0.00    +0.000 A 
ATOM     26  C   UNL     1       1.182   9.079  19.920  0.00  0.00    +0.000 A 
ATOM     27  C   UNL     1       1.666   7.838  20.317  0.00  0.00    +0.000 A 
BRANCH  26  28
ATOM     28  O   UNL     1       0.456   9.786  20.831  0.00  0.00    +0.000 OA
ATOM     29  H   UNL     1       0.226  10.650  20.444  0.00  0.00    +0.000 HD
ENDBRANCH  26  28
ENDBRANCH  19  22
ENDBRANCH  17  18
ENDBRANCH  16  17
ENDBRANCH   1  16
TORSDOF 8
ENDMDL
MODEL 2
REMARK VINA RESULT:      -7.8      2.044      4.761
REMARK  Name = 
REMARK  8 active torsions:
REMARK  status: ('A' for Active; 'I' for Inactive)
REMARK    1  A    between atoms: N_3  and  C_4
REMARK    2  A    between atoms: C_4  and  C_5
REMARK    3  A    between atoms: C_5  and  C_6
REMARK    4  A    between atoms: C_6  and  N_7
REMARK    5  A    between atoms: C_8  and  C_10
REMARK    6  A    between atoms: C_14  and  O_15
REMARK    7  A    between atoms: N_17  and  C_18
REMARK    8  A    between atoms: C_18  and  C_19
REMARK                            x       y       z     vdW  Elec       q    Type
REMARK                         _______ _______ _______ _____ _____    ______ ____
ROOT
ATOM      1  C   UNL     1       7.190   5.658  17.656  0.00  0.00    +0.000 C 
ENDROOT
BRANCH   1   4
ATOM      2  O   UNL     1       5.577   5.065  19.909  0.00  0.00    +0.000 OA
ATOM      3  C   UNL     1       5.814   4.188  19.090  0.00  0.00    +0.000 C 
ATOM      4  N   UNL     1       6.575   4.373  17.963  0.00  0.00    +0.000 N 
ATOM      5  N   UNL     1       5.357   2.901  19.189  0.00  0.00    +0.000 N 
ATOM      6  H   UNL     1       6.918   3.557  17.490  0.00  0.00    +0.000 HD
ATOM      7  H   UNL     1       5.438   2.297  18.386  0.00  0.00    +0.000 HD
BRANCH   5   8
ATOM      8  C   UNL     1       4.489   2.466  20.263  0.00  0.00    +0.000 C 
BRANCH   8   9
ATOM      9  C   UNL     1       3.037   2.773  20.013  0.00  0.00    +0.000 A 
ATOM     10  C   UNL     1       2.369   3.764  20.748  0.00  0.00    +0.000 A 
ATOM     11  C   UNL     1       1.013   4.027  20.523  0.00  0.00    +0.000 A 
ATOM     12  C   UNL     1       0.308   3.306  19.560  0.00  0.00    +0.000 A 
ATOM     13  C   UNL     1       0.963   2.323  18.817  0.00  0.00    +0.000 A 
ATOM     14  C   UNL     1       2.313   2.070  19.046  0.00  0.00    +0.000 A 
ATOM     15  F   UNL     1       2.920   1.117  18.323  0.00  0.00    +0.000 F 
ENDBRANCH   8   9
ENDBRANCH   5   8
ENDBRANCH   1   4
BRANCH   1  16
ATOM     16  C   UNL     1       6.566   6.342  16.438  0.00  0.00    +0.000 C 
BRANCH  16  17
ATOM     17  C   UNL     1       5.084   6.009  16.299  0.00  0.00    +0.000 C 
BRANCH  17  18
ATOM     18  N   UNL     1       4.257   6.912  17.069  0.00  0.00    +0.000 N 
ATOM     19  C   UNL     1       3.108   6.487  17.704  0.00  0.00    +0.000 C 
ATOM     20  O   UNL     1       2.706   5.331  17.683  0.00  0.00    +0.000 OA
ATOM     21  H   UNL     1       4.634   7.827  17.283  0.00  0.00    +0.000 HD
BRANCH  19  22
ATOM     22  C   UNL     1       2.365   7.532  18.459  0.00  0.00    +0.000 A 
ATOM     23  C   UNL     1       1.844   8.638  17.774  0.00  0.00    +0.000 A 
ATOM     24  C   UNL     1       1.144   9.626  18.472  0.00  0.00    +0.000 A 
ATOM     25  C   UNL     1       0.975   9.521  19.854  0.00  0.00    +0.000 A 
ATOM     26  C   UNL     1       1.508   8.426  20.527  0.00  0.00    +0.000 A 
ATOM     27  C   UNL     1       2.201   7.434  19.846  0.00  0.00    +0.000 A 
BRANCH  26  28
ATOM     28  O   UNL     1       1.374   8.280  21.876  0.00  0.00    +0.000 OA
ATOM     29  H   UNL     1       0.426   8.287  22.098  0.00  0.00    +0.000 HD
ENDBRANCH  26  28
ENDBRANCH  19  22
ENDBRANCH  17  18
ENDBRANCH  16  17
ENDBRANCH   1  16
TORSDOF 8
ENDMDL
MODEL 3
REMARK VINA RESULT:      -7.7      2.111      4.845
REMARK  Name = 
REMARK  8 active torsions:
REMARK  status: ('A' for Active; 'I' for Inactive)
REMARK    1  A    between atoms: N_3  and  C_4
REMARK    2  A    between atoms: C_4  and  C_5
REMARK    3  A    between atoms: C_5  and  C_6
REMARK    4  A    between atoms: C_6  and  N_7
REMARK    5  A    between atoms: C_8  and  C_10
REMARK    6  A    between atoms: C_14  and  O_15
REMARK    7  A    between atoms: N_17  and  C_18
REMARK    8  A    between atoms: C_18  and  C_19
REMARK                            x       y       z     vdW  Elec       q    Type
REMARK                         _______ _______ _______ _____ _____    ______ ____
ROOT
ATOM      1  C   UNL     1       7.425   5.865  17.352  0.00  0.00    +0.000 C 
ENDROOT
BRANCH   1   4
ATOM      2  O   UNL     1       6.201   5.085  19.786  0.00  0.00    +0.000 OA
ATOM      3  C   UNL     1       6.059   4.389  18.789  0.00  0.00    +0.000 C 
ATOM      4  N   UNL     1       6.602   4.682  17.563  0.00  0.00    +0.000 N 
ATOM      5  N   UNL     1       5.344   3.222  18.763  0.00  0.00    +0.000 N 
ATOM      6  H   UNL     1       6.644   3.946  16.881  0.00  0.00    +0.000 HD
ATOM      7  H   UNL     1       5.120   2.813  17.870  0.00  0.00    +0.000 HD
BRANCH   5   8
ATOM      8  C   UNL     1       4.630   2.723  19.920  0.00  0.00    +0.000 C 
BRANCH   8   9
ATOM      9  C   UNL     1       3.143   2.944  19.840  0.00  0.00    +0.000 A 
ATOM     10  C   UNL     1       2.495   3.833  20.711  0.00  0.00    +0.000 A 
ATOM     11  C   UNL     1       1.109   4.015  20.643  0.00  0.00    +0.000 A 
ATOM     12  C   UNL     1       0.353   3.314  19.703  0.00  0.00    +0.000 A 
ATOM     13  C   UNL     1       0.987   2.433  18.826  0.00  0.00    +0.000 A 
ATOM     14  C   UNL     1       2.368   2.261  18.899  0.00  0.00    +0.000 A 
ATOM     15  F   UNL     1       2.954   1.406  18.049  0.00  0.00    +0.000 F 
ENDBRANCH   8   9
ENDBRANCH   5   8
ENDBRANCH   1   4
BRANCH   1  16
ATOM     16  C   UNL     1       6.611   7.093  16.941  0.00  0.00    +0.000 C 
BRANCH  16  17
ATOM     17  C   UNL     1       5.174   6.727  16.587  0.00  0.00    +0.000 C 
BRANCH  17  18
ATOM     18  N   UNL     1       4.220   7.507  17.344  0.00  0.00    +0.000 N 
ATOM     19  C   UNL     1       3.125   6.930  17.954  0.00  0.00    +0.000 C 
ATOM     20  O   UNL     1       2.879   5.731  17.919  0.00  0.00    +0.000 OA
ATOM     21  H   UNL     1       4.468   8.462  17.571  0.00  0.00    +0.000 HD
BRANCH  19  22
ATOM     22  C   UNL     1       2.235   7.862  18.698  0.00  0.00    +0.000 A 
ATOM     23  C   UNL     1       1.959   7.620  20.050  0.00  0.00    +0.000 A 
ATOM     24  C   UNL     1       1.124   8.488  20.760  0.00  0.00    +0.000 A 
ATOM     25  C   UNL     1       0.551   9.588  20.119  0.00  0.00    +0.000 A 
ATOM     26  C   UNL     1       0.820   9.812  18.773  0.00  0.00    +0.000 A 
ATOM     27  C   UNL     1       1.652   8.962  18.057  0.00  0.00    +0.000 A 
BRANCH  26  28
ATOM     28  O   UNL     1       0.282  10.870  18.102  0.00  0.00    +0.000 OA
ATOM     29  H   UNL     1      -0.084  11.498  18.750  0.00  0.00    +0.000 HD
ENDBRANCH  26  28
ENDBRANCH  19  22
ENDBRANCH  17  18
ENDBRANCH  16  17
ENDBRANCH   1  16
TORSDOF 8
ENDMDL
MODEL 4
REMARK VINA RESULT:      -7.7      4.094      6.281
REMARK  Name = 
REMARK  8 active torsions:
REMARK  status: ('A' for Active; 'I' for Inactive)
REMARK    1  A    between atoms: N_3  and  C_4
REMARK    2  A    between atoms: C_4  and  C_5
REMARK    3  A    between atoms: C_5  and  C_6
REMARK    4  A    between atoms: C_6  and  N_7
REMARK    5  A    between atoms: C_8  and  C_10
REMARK    6  A    between atoms: C_14  and  O_15
REMARK    7  A    between atoms: N_17  and  C_18
REMARK    8  A    between atoms: C_18  and  C_19
REMARK                            x       y       z     vdW  Elec       q    Type
REMARK                         _______ _______ _______ _____ _____    ______ ____
ROOT
ATOM      1  C   UNL     1       7.296   5.325  18.852  0.00  0.00    +0.000 C 
ENDROOT
BRANCH   1   4
ATOM      2  O   UNL     1       7.038   7.802  17.500  0.00  0.00    +0.000 OA
ATOM      3  C   UNL     1       7.896   7.673  18.362  0.00  0.00    +0.000 C 
ATOM      4  N   UNL     1       8.098   6.520  19.079  0.00  0.00    +0.000 N 
ATOM      5  N   UNL     1       8.776   8.657  18.724  0.00  0.00    +0.000 N 
ATOM      6  H   UNL     1       8.965   6.423  19.576  0.00  0.00    +0.000 HD
ATOM      7  H   UNL     1       9.320   8.533  19.563  0.00  0.00    +0.000 HD
BRANCH   5   8
ATOM      8  C   UNL     1       8.733   9.986  18.150  0.00  0.00    +0.000 C 
BRANCH   8   9
ATOM      9  C   UNL     1       9.825  10.887  18.659  0.00  0.00    +0.000 A 
ATOM     10  C   UNL     1      10.769  11.448  17.784  0.00  0.00    +0.000 A 
ATOM     11  C   UNL     1      11.793  12.267  18.270  0.00  0.00    +0.000 A 
ATOM     12  C   UNL     1      11.888  12.540  19.634  0.00  0.00    +0.000 A 
ATOM     13  C   UNL     1      10.951  11.996  20.513  0.00  0.00    +0.000 A 
ATOM     14  C   UNL     1       9.933  11.183  20.020  0.00  0.00    +0.000 A 
ATOM     15  F   UNL     1       9.047  10.667  20.885  0.00  0.00    +0.000 F 
ENDBRANCH   8   9
ENDBRANCH   5   8
ENDBRANCH   1   4
BRANCH   1  16
ATOM     16  C   UNL     1       7.650   4.607  17.549  0.00  0.00    +0.000 C 
BRANCH  16  17
ATOM     17  C   UNL     1       6.418   4.359  16.686  0.00  0.00    +0.000 C 
BRANCH  17  18
ATOM     18  N   UNL     1       5.256   4.041  17.487  0.00  0.00    +0.000 N 
ATOM     19  C   UNL     1       4.186   4.905  17.596  0.00  0.00    +0.000 C 
ATOM     20  O   UNL     1       4.122   5.986  17.024  0.00  0.00    +0.000 OA
ATOM     21  H   UNL     1       5.164   3.092  17.826  0.00  0.00    +0.000 HD
BRANCH  19  22
ATOM     22  C   UNL     1       3.064   4.438  18.456  0.00  0.00    +0.000 A 
ATOM     23  C   UNL     1       2.870   5.025  19.713  0.00  0.00    +0.000 A 
ATOM     24  C   UNL     1       1.820   4.595  20.530  0.00  0.00    +0.000 A 
ATOM     25  C   UNL     1       0.974   3.570  20.101  0.00  0.00    +0.000 A 
ATOM     26  C   UNL     1       1.184   2.984  18.858  0.00  0.00    +0.000 A 
ATOM     27  C   UNL     1       2.220   3.405  18.033  0.00  0.00    +0.000 A 
BRANCH  26  28
ATOM     28  O   UNL     1       0.389   1.978  18.396  0.00  0.00    +0.000 OA
ATOM     29  H   UNL     1       0.631   1.153  18.854  0.00  0.00    +0.000 HD
ENDBRANCH  26  28
ENDBRANCH  19  22
ENDBRANCH  17  18
ENDBRANCH  16  17
ENDBRANCH   1  16
TORSDOF 8
ENDMDL
MODEL 5
REMARK VINA RESULT:      -7.3      2.120      4.859
REMARK  Name = 
REMARK  8 active torsions:
REMARK  status: ('A' for Active; 'I' for Inactive)
REMARK    1  A    between atoms: N_3  and  C_4
REMARK    2  A    between atoms: C_4  and  C_5
REMARK    3  A    between atoms: C_5  and  C_6
REMARK    4  A    between atoms: C_6  and  N_7
REMARK    5  A    between atoms: C_8  and  C_10
REMARK    6  A    between atoms: C_14  and  O_15
REMARK    7  A    between atoms: N_17  and  C_18
REMARK    8  A    between atoms: C_18  and  C_19
REMARK                            x       y       z     vdW  Elec       q    Type
REMARK                         _______ _______ _______ _____ _____    ______ ____
ROOT
ATOM      1  C   UNL     1       7.274   5.244  16.928  0.00  0.00    +0.000 C 
ENDROOT
BRANCH   1   4
ATOM      2  O   UNL     1       6.025   4.960  19.455  0.00  0.00    +0.000 OA
ATOM      3  C   UNL     1       5.875   4.090  18.608  0.00  0.00    +0.000 C 
ATOM      4  N   UNL     1       6.430   4.135  17.353  0.00  0.00    +0.000 N 
ATOM      5  N   UNL     1       5.140   2.951  18.798  0.00  0.00    +0.000 N 
ATOM      6  H   UNL     1       6.462   3.283  16.824  0.00  0.00    +0.000 HD
ATOM      7  H   UNL     1       4.914   2.384  17.997  0.00  0.00    +0.000 HD
BRANCH   5   8
ATOM      8  C   UNL     1       4.412   2.693  20.023  0.00  0.00    +0.000 C 
BRANCH   8   9
ATOM      9  C   UNL     1       2.924   2.857  19.874  0.00  0.00    +0.000 A 
ATOM     10  C   UNL     1       2.199   2.091  18.948  0.00  0.00    +0.000 A 
ATOM     11  C   UNL     1       0.819   2.266  18.801  0.00  0.00    +0.000 A 
ATOM     12  C   UNL     1       0.143   3.207  19.578  0.00  0.00    +0.000 A 
ATOM     13  C   UNL     1       0.851   3.970  20.508  0.00  0.00    +0.000 A 
ATOM     14  C   UNL     1       2.225   3.786  20.649  0.00  0.00    +0.000 A 
ATOM     15  F   UNL     1       2.884   4.534  21.546  0.00  0.00    +0.000 F 
ENDBRANCH   8   9
ENDBRANCH   5   8
ENDBRANCH   1   4
BRANCH   1  16
ATOM     16  C   UNL     1       6.612   6.608  17.122  0.00  0.00    +0.000 C 
BRANCH  16  17
ATOM     17  C   UNL     1       5.247   6.677  16.446  0.00  0.00    +0.000 C 
BRANCH  17  18
ATOM     18  N   UNL     1       4.300   7.442  17.227  0.00  0.00    +0.000 N 
ATOM     19  C   UNL     1       3.216   6.852  17.844  0.00  0.00    +0.000 C 
ATOM     20  O   UNL     1       2.975   5.652  17.795  0.00  0.00    +0.000 OA
ATOM     21  H   UNL     1       4.547   8.395  17.463  0.00  0.00    +0.000 HD
BRANCH  19  22
ATOM     22  C   UNL     1       2.332   7.769  18.613  0.00  0.00    +0.000 A 
ATOM     23  C   UNL     1       2.081   7.510  19.967  0.00  0.00    +0.000 A 
ATOM     24  C   UNL     1       1.252   8.365  20.700  0.00  0.00    +0.000 A 
ATOM     25  C   UNL     1       0.660   9.467  20.080  0.00  0.00    +0.000 A 
ATOM     26  C   UNL     1       0.904   9.708  18.732  0.00  0.00    +0.000 A 
ATOM     27  C   UNL     1       1.730   8.871  17.993  0.00  0.00    +0.000 A 
BRANCH  26  28
ATOM     28  O   UNL     1       0.347  10.768  18.081  0.00  0.00    +0.000 OA
ATOM     29  H   UNL     1      -0.028  10.455  17.239  0.00  0.00    +0.000 HD
ENDBRANCH  26  28
ENDBRANCH  19  22
ENDBRANCH  17  18
ENDBRANCH  16  17
ENDBRANCH   1  16
TORSDOF 8
ENDMDL
MODEL 6
REMARK VINA RESULT:      -7.3      1.545      2.093
REMARK  Name = 
REMARK  8 active torsions:
REMARK  status: ('A' for Active; 'I' for Inactive)
REMARK    1  A    between atoms: N_3  and  C_4
REMARK    2  A    between atoms: C_4  and  C_5
REMARK    3  A    between atoms: C_5  and  C_6
REMARK    4  A    between atoms: C_6  and  N_7
REMARK    5  A    between atoms: C_8  and  C_10
REMARK    6  A    between atoms: C_14  and  O_15
REMARK    7  A    between atoms: N_17  and  C_18
REMARK    8  A    between atoms: C_18  and  C_19
REMARK                            x       y       z     vdW  Elec       q    Type
REMARK                         _______ _______ _______ _____ _____    ______ ____
ROOT
ATOM      1  C   UNL     1       1.645   2.346  19.599  0.00  0.00    +0.000 C 
ENDROOT
BRANCH   1   4
ATOM      2  O   UNL     1       4.391   2.576  18.936  0.00  0.00    +0.000 OA
ATOM      3  C   UNL     1       3.547   3.031  18.175  0.00  0.00    +0.000 C 
ATOM      4  N   UNL     1       2.194   2.965  18.399  0.00  0.00    +0.000 N 
ATOM      5  N   UNL     1       3.837   3.673  17.001  0.00  0.00    +0.000 N 
ATOM      6  H   UNL     1       1.600   3.570  17.862  0.00  0.00    +0.000 HD
ATOM      7  H   UNL     1       3.089   3.848  16.350  0.00  0.00    +0.000 HD
BRANCH   5   8
ATOM      8  C   UNL     1       5.192   3.826  16.515  0.00  0.00    +0.000 C 
BRANCH   8   9
ATOM      9  C   UNL     1       5.807   5.150  16.879  0.00  0.00    +0.000 A 
ATOM     10  C   UNL     1       5.150   6.357  16.594  0.00  0.00    +0.000 A 
ATOM     11  C   UNL     1       5.739   7.584  16.917  0.00  0.00    +0.000 A 
ATOM     12  C   UNL     1       6.992   7.623  17.530  0.00  0.00    +0.000 A 
ATOM     13  C   UNL     1       7.652   6.430  17.826  0.00  0.00    +0.000 A 
ATOM     14  C   UNL     1       7.056   5.212  17.503  0.00  0.00    +0.000 A 
ATOM     15  F   UNL     1       7.712   4.079  17.792  0.00  0.00    +0.000 F 
ENDBRANCH   8   9
ENDBRANCH   5   8
ENDBRANCH   1   4
BRANCH   1  16
ATOM     16  C   UNL     1       1.048   3.361  20.574  0.00  0.00    +0.000 C 
BRANCH  16  17
ATOM     17  C   UNL     1       2.115   4.278  21.162  0.00  0.00    +0.000 C 
BRANCH  17  18
ATOM     18  N   UNL     1       1.799   5.673  20.950  0.00  0.00    +0.000 N 
ATOM     19  C   UNL     1       2.285   6.376  19.866  0.00  0.00    +0.000 C 
ATOM     20  O   UNL     1       2.998   5.884  19.001  0.00  0.00    +0.000 OA
ATOM     21  H   UNL     1       1.067   6.080  21.518  0.00  0.00    +0.000 HD
BRANCH  19  22
ATOM     22  C   UNL     1       1.871   7.803  19.784  0.00  0.00    +0.000 A 
ATOM     23  C   UNL     1       1.220   8.395  20.874  0.00  0.00    +0.000 A 
ATOM     24  C   UNL     1       0.826   9.735  20.809  0.00  0.00    +0.000 A 
ATOM     25  C   UNL     1       1.068  10.480  19.653  0.00  0.00    +0.000 A 
ATOM     26  C   UNL     1       1.702   9.879  18.571  0.00  0.00    +0.000 A 
ATOM     27  C   UNL     1       2.104   8.550  18.624  0.00  0.00    +0.000 A 
BRANCH  26  28
ATOM     28  O   UNL     1       1.957  10.562  17.420  0.00  0.00    +0.000 OA
ATOM     29  H   UNL     1       1.203  10.445  16.814  0.00  0.00    +0.000 HD
ENDBRANCH  26  28
ENDBRANCH  19  22
ENDBRANCH  17  18
ENDBRANCH  16  17
ENDBRANCH   1  16
TORSDOF 8
ENDMDL
MODEL 7
REMARK VINA RESULT:      -7.1      2.263      5.483
REMARK  Name = 
REMARK  8 active torsions:
REMARK  status: ('A' for Active; 'I' for Inactive)
REMARK    1  A    between atoms: N_3  and  C_4
REMARK    2  A    between atoms: C_4  and  C_5
REMARK    3  A    between atoms: C_5  and  C_6
REMARK    4  A    between atoms: C_6  and  N_7
REMARK    5  A    between atoms: C_8  and  C_10
REMARK    6  A    between atoms: C_14  and  O_15
REMARK    7  A    between atoms: N_17  and  C_18
REMARK    8  A    between atoms: C_18  and  C_19
REMARK                            x       y       z     vdW  Elec       q    Type
REMARK                         _______ _______ _______ _____ _____    ______ ____
ROOT
ATOM      1  C   UNL     1       2.324   2.137  19.928  0.00  0.00    +0.000 C 
ENDROOT
BRANCH   1   4
ATOM      2  O   UNL     1       0.616   4.373  20.269  0.00  0.00    +0.000 OA
ATOM      3  C   UNL     1       1.819   4.499  20.454  0.00  0.00    +0.000 C 
ATOM      4  N   UNL     1       2.729   3.480  20.323  0.00  0.00    +0.000 N 
ATOM      5  N   UNL     1       2.422   5.676  20.811  0.00  0.00    +0.000 N 
ATOM      6  H   UNL     1       3.700   3.725  20.250  0.00  0.00    +0.000 HD
ATOM      7  H   UNL     1       3.379   5.652  21.125  0.00  0.00    +0.000 HD
BRANCH   5   8
ATOM      8  C   UNL     1       1.670   6.888  21.062  0.00  0.00    +0.000 C 
BRANCH   8   9
ATOM      9  C   UNL     1       1.722   7.865  19.918  0.00  0.00    +0.000 A 
ATOM     10  C   UNL     1       2.476   7.592  18.766  0.00  0.00    +0.000 A 
ATOM     11  C   UNL     1       2.536   8.517  17.718  0.00  0.00    +0.000 A 
ATOM     12  C   UNL     1       1.842   9.724  17.804  0.00  0.00    +0.000 A 
ATOM     13  C   UNL     1       1.082  10.003  18.941  0.00  0.00    +0.000 A 
ATOM     14  C   UNL     1       1.026   9.075  19.979  0.00  0.00    +0.000 A 
ATOM     15  F   UNL     1       0.293   9.367  21.062  0.00  0.00    +0.000 F 
ENDBRANCH   8   9
ENDBRANCH   5   8
ENDBRANCH   1   4
BRANCH   1  16
ATOM     16  C   UNL     1       3.222   1.538  18.845  0.00  0.00    +0.000 C 
BRANCH  16  17
ATOM     17  C   UNL     1       3.480   2.526  17.712  0.00  0.00    +0.000 C 
BRANCH  17  18
ATOM     18  N   UNL     1       4.512   3.478  18.056  0.00  0.00    +0.000 N 
ATOM     19  C   UNL     1       5.031   4.361  17.131  0.00  0.00    +0.000 C 
ATOM     20  O   UNL     1       4.658   4.421  15.966  0.00  0.00    +0.000 OA
ATOM     21  H   UNL     1       4.723   3.608  19.038  0.00  0.00    +0.000 HD
BRANCH  19  22
ATOM     22  C   UNL     1       6.086   5.280  17.635  0.00  0.00    +0.000 A 
ATOM     23  C   UNL     1       6.306   6.501  16.984  0.00  0.00    +0.000 A 
ATOM     24  C   UNL     1       7.295   7.373  17.448  0.00  0.00    +0.000 A 
ATOM     25  C   UNL     1       8.075   7.022  18.551  0.00  0.00    +0.000 A 
ATOM     26  C   UNL     1       7.859   5.802  19.182  0.00  0.00    +0.000 A 
ATOM     27  C   UNL     1       6.876   4.928  18.735  0.00  0.00    +0.000 A 
BRANCH  26  28
ATOM     28  O   UNL     1       8.597   5.412  20.260  0.00  0.00    +0.000 OA
ATOM     29  H   UNL     1       9.120   4.628  20.014  0.00  0.00    +0.000 HD
ENDBRANCH  26  28
ENDBRANCH  19  22
ENDBRANCH  17  18
ENDBRANCH  16  17
ENDBRANCH   1  16
TORSDOF 8
ENDMDL
MODEL 8
REMARK VINA RESULT:      -7.0      2.361      5.990
REMARK  Name = 
REMARK  8 active torsions:
REMARK  status: ('A' for Active; 'I' for Inactive)
REMARK    1  A    between atoms: N_3  and  C_4
REMARK    2  A    between atoms: C_4  and  C_5
REMARK    3  A    between atoms: C_5  and  C_6
REMARK    4  A    between atoms: C_6  and  N_7
REMARK    5  A    between atoms: C_8  and  C_10
REMARK    6  A    between atoms: C_14  and  O_15
REMARK    7  A    between atoms: N_17  and  C_18
REMARK    8  A    between atoms: C_18  and  C_19
REMARK                            x       y       z     vdW  Elec       q    Type
REMARK                         _______ _______ _______ _____ _____    ______ ____
ROOT
ATOM      1  C   UNL     1       1.491   3.285  18.346  0.00  0.00    +0.000 C 
ENDROOT
BRANCH   1   4
ATOM      2  O   UNL     1       2.717   5.821  18.658  0.00  0.00    +0.000 OA
ATOM      3  C   UNL     1       1.921   5.429  19.500  0.00  0.00    +0.000 C 
ATOM      4  N   UNL     1       1.268   4.223  19.439  0.00  0.00    +0.000 N 
ATOM      5  N   UNL     1       1.578   6.136  20.621  0.00  0.00    +0.000 N 
ATOM      6  H   UNL     1       0.835   3.881  20.277  0.00  0.00    +0.000 HD
ATOM      7  H   UNL     1       0.784   5.830  21.160  0.00  0.00    +0.000 HD
BRANCH   5   8
ATOM      8  C   UNL     1       2.093   7.463  20.890  0.00  0.00    +0.000 C 
BRANCH   8   9
ATOM      9  C   UNL     1       1.272   8.556  20.261  0.00  0.00    +0.000 A 
ATOM     10  C   UNL     1       1.562   9.029  18.971  0.00  0.00    +0.000 A 
ATOM     11  C   UNL     1       0.806  10.061  18.404  0.00  0.00    +0.000 A 
ATOM     12  C   UNL     1      -0.250  10.631  19.114  0.00  0.00    +0.000 A 
ATOM     13  C   UNL     1      -0.553  10.164  20.393  0.00  0.00    +0.000 A 
ATOM     14  C   UNL     1       0.203   9.134  20.949  0.00  0.00    +0.000 A 
ATOM     15  F   UNL     1      -0.104   8.705  22.182  0.00  0.00    +0.000 F 
ENDBRANCH   8   9
ENDBRANCH   5   8
ENDBRANCH   1   4
BRANCH   1  16
ATOM     16  C   UNL     1       2.419   2.132  18.728  0.00  0.00    +0.000 C 
BRANCH  16  17
ATOM     17  C   UNL     1       3.636   2.057  17.813  0.00  0.00    +0.000 C 
BRANCH  17  18
ATOM     18  N   UNL     1       4.616   3.069  18.140  0.00  0.00    +0.000 N 
ATOM     19  C   UNL     1       5.038   4.003  17.216  0.00  0.00    +0.000 C 
ATOM     20  O   UNL     1       4.617   4.063  16.068  0.00  0.00    +0.000 OA
ATOM     21  H   UNL     1       4.857   3.192  19.115  0.00  0.00    +0.000 HD
BRANCH  19  22
ATOM     22  C   UNL     1       6.050   4.981  17.702  0.00  0.00    +0.000 A 
ATOM     23  C   UNL     1       6.405   6.065  16.889  0.00  0.00    +0.000 A 
ATOM     24  C   UNL     1       7.355   6.990  17.334  0.00  0.00    +0.000 A 
ATOM     25  C   UNL     1       7.961   6.825  18.581  0.00  0.00    +0.000 A 
ATOM     26  C   UNL     1       7.612   5.737  19.374  0.00  0.00    +0.000 A 
ATOM     27  C   UNL     1       6.666   4.814  18.947  0.00  0.00    +0.000 A 
BRANCH  26  28
ATOM     28  O   UNL     1       8.179   5.530  20.596  0.00  0.00    +0.000 OA
ATOM     29  H   UNL     1       8.085   4.589  20.829  0.00  0.00    +0.000 HD
ENDBRANCH  26  28
ENDBRANCH  19  22
ENDBRANCH  17  18
ENDBRANCH  16  17
ENDBRANCH   1  16
TORSDOF 8
ENDMDL
MODEL 9
REMARK VINA RESULT:      -6.9      4.416      6.715
REMARK  Name = 
REMARK  8 active torsions:
REMARK  status: ('A' for Active; 'I' for Inactive)
REMARK    1  A    between atoms: N_3  and  C_4
REMARK    2  A    between atoms: C_4  and  C_5
REMARK    3  A    between atoms: C_5  and  C_6
REMARK    4  A    between atoms: C_6  and  N_7
REMARK    5  A    between atoms: C_8  and  C_10
REMARK    6  A    between atoms: C_14  and  O_15
REMARK    7  A    between atoms: N_17  and  C_18
REMARK    8  A    between atoms: C_18  and  C_19
REMARK                            x       y       z     vdW  Elec       q    Type
REMARK                         _______ _______ _______ _____ _____    ______ ____
ROOT
ATOM      1  C   UNL     1       6.360   6.510  16.780  0.00  0.00    +0.000 C 
ENDROOT
BRANCH   1   4
ATOM      2  O   UNL     1       8.332   7.240  18.681  0.00  0.00    +0.000 OA
ATOM      3  C   UNL     1       7.879   8.089  17.925  0.00  0.00    +0.000 C 
ATOM      4  N   UNL     1       6.929   7.838  16.967  0.00  0.00    +0.000 N 
ATOM      5  N   UNL     1       8.254   9.406  17.937  0.00  0.00    +0.000 N 
ATOM      6  H   UNL     1       6.444   8.623  16.570  0.00  0.00    +0.000 HD
ATOM      7  H   UNL     1       7.976   9.994  17.167  0.00  0.00    +0.000 HD
BRANCH   5   8
ATOM      8  C   UNL     1       9.280   9.913  18.824  0.00  0.00    +0.000 C 
BRANCH   8   9
ATOM      9  C   UNL     1       9.644  11.347  18.551  0.00  0.00    +0.000 A 
ATOM     10  C   UNL     1       8.751  12.209  17.895  0.00  0.00    +0.000 A 
ATOM     11  C   UNL     1       9.108  13.535  17.626  0.00  0.00    +0.000 A 
ATOM     12  C   UNL     1      10.358  14.019  18.011  0.00  0.00    +0.000 A 
ATOM     13  C   UNL     1      11.250  13.175  18.672  0.00  0.00    +0.000 A 
ATOM     14  C   UNL     1      10.886  11.857  18.938  0.00  0.00    +0.000 A 
ATOM     15  F   UNL     1      11.763  11.063  19.569  0.00  0.00    +0.000 F 
ENDBRANCH   8   9
ENDBRANCH   5   8
ENDBRANCH   1   4
BRANCH   1  16
ATOM     16  C   UNL     1       4.905   6.544  16.312  0.00  0.00    +0.000 C 
BRANCH  16  17
ATOM     17  C   UNL     1       3.965   7.015  17.417  0.00  0.00    +0.000 C 
BRANCH  17  18
ATOM     18  N   UNL     1       3.783   6.004  18.434  0.00  0.00    +0.000 N 
ATOM     19  C   UNL     1       2.704   5.144  18.424  0.00  0.00    +0.000 C 
ATOM     20  O   UNL     1       1.834   5.154  17.563  0.00  0.00    +0.000 OA
ATOM     21  H   UNL     1       4.559   5.819  19.057  0.00  0.00    +0.000 HD
BRANCH  19  22
ATOM     22  C   UNL     1       2.655   4.156  19.536  0.00  0.00    +0.000 A 
ATOM     23  C   UNL     1       1.492   4.047  20.310  0.00  0.00    +0.000 A 
ATOM     24  C   UNL     1       1.434   3.124  21.358  0.00  0.00    +0.000 A 
ATOM     25  C   UNL     1       2.539   2.321  21.645  0.00  0.00    +0.000 A 
ATOM     26  C   UNL     1       3.694   2.447  20.881  0.00  0.00    +0.000 A 
ATOM     27  C   UNL     1       3.764   3.356  19.833  0.00  0.00    +0.000 A 
BRANCH  26  28
ATOM     28  O   UNL     1       4.800   1.689  21.124  0.00  0.00    +0.000 OA
ATOM     29  H   UNL     1       5.140   1.351  20.276  0.00  0.00    +0.000 HD
ENDBRANCH  26  28
ENDBRANCH  19  22
ENDBRANCH  17  18
ENDBRANCH  16  17
ENDBRANCH   1  16
TORSDOF 8
ENDMDL
