MODEL 1
REMARK VINA RESULT:      -8.2      0.000      0.000
REMARK  Name = 
REMARK  7 active torsions:
REMARK  status: ('A' for Active; 'I' for Inactive)
REMARK    1  A    between atoms: C_2  and  C_3
REMARK    2  A    between atoms: C_3  and  N_4
REMARK    3  A    between atoms: C_5  and  S_6
REMARK    4  A    between atoms: S_6  and  C_7
REMARK    5  A    between atoms: C_7  and  C_8
REMARK    6  A    between atoms: C_8  and  O_9
REMARK    7  A    between atoms: O_9  and  C_10
REMARK                            x       y       z     vdW  Elec       q    Type
REMARK                         _______ _______ _______ _____ _____    ______ ____
ROOT
ATOM      1  N   UNL     1       5.805   5.343  16.441  0.00  0.00    +0.000 N 
ATOM      2  C   UNL     1       7.039   5.900  16.692  0.00  0.00    +0.000 A 
ATOM      3  N   UNL     1       7.830   5.818  15.646  0.00  0.00    +0.000 NA
ATOM      4  C   UNL     1       7.109   5.132  14.698  0.00  0.00    +0.000 A 
ATOM      5  C   UNL     1       7.483   4.754  13.400  0.00  0.00    +0.000 A 
ATOM      6  C   UNL     1       6.572   4.030  12.615  0.00  0.00    +0.000 A 
ATOM      7  C   UNL     1       5.316   3.694  13.113  0.00  0.00    +0.000 A 
ATOM      8  C   UNL     1       4.917   4.079  14.398  0.00  0.00    +0.000 A 
ATOM      9  C   UNL     1       5.842   4.803  15.170  0.00  0.00    +0.000 A 
ENDROOT
BRANCH   1  10
ATOM     10  C   UNL     1       4.644   5.304  17.316  0.00  0.00    +0.000 C 
BRANCH  10  12
ATOM     11  O   UNL     1       5.617   3.914  19.018  0.00  0.00    +0.000 OA
ATOM     12  C   UNL     1       4.669   4.111  18.254  0.00  0.00    +0.000 C 
ATOM     13  N   UNL     1       3.575   3.250  18.222  0.00  0.00    +0.000 N 
ATOM     14  C   UNL     1       2.402   3.369  17.356  0.00  0.00    +0.000 C 
ATOM     15  C   UNL     1       1.135   3.555  18.189  0.00  0.00    +0.000 C 
ATOM     16  C   UNL     1       1.003   2.472  19.263  0.00  0.00    +0.000 C 
ATOM     17  C   UNL     1       2.284   2.338  20.088  0.00  0.00    +0.000 C 
ATOM     18  C   UNL     1       3.505   2.158  19.190  0.00  0.00    +0.000 C 
ENDBRANCH  10  12
ENDBRANCH   1  10
BRANCH   2  19
ATOM     19  S   UNL     1       7.442   6.766  18.142  0.00  0.00    +0.000 S 
BRANCH  19  20
ATOM     20  C   UNL     1       7.877   8.441  17.549  0.00  0.00    +0.000 C 
BRANCH  20  21
ATOM     21  C   UNL     1       8.641   9.325  18.525  0.00  0.00    +0.000 C 
BRANCH  21  22
ATOM     22  O   UNL     1       8.947  10.592  17.892  0.00  0.00    +0.000 OA
BRANCH  22  23
ATOM     23  C   UNL     1       9.386  11.574  18.746  0.00  0.00    +0.000 A 
ATOM     24  C   UNL     1      10.229  11.335  19.840  0.00  0.00    +0.000 A 
ATOM     25  C   UNL     1      10.563  12.367  20.715  0.00  0.00    +0.000 A 
ATOM     26  C   UNL     1      10.086  13.651  20.492  0.00  0.00    +0.000 A 
ATOM     27 CL   UNL     1      10.462  14.900  21.611  0.00  0.00    +0.000 Cl
ATOM     28  C   UNL     1       9.303  13.916  19.369  0.00  0.00    +0.000 A 
ATOM     29  C   UNL     1       8.945  12.877  18.506  0.00  0.00    +0.000 A 
ENDBRANCH  22  23
ENDBRANCH  21  22
ENDBRANCH  20  21
ENDBRANCH  19  20
ENDBRANCH   2  19
TORSDOF 7
ENDMDL
MODEL 2
REMARK VINA RESULT:      -8.1      1.352      1.772
REMARK  Name = 
REMARK  7 active torsions:
REMARK  status: ('A' for Active; 'I' for Inactive)
REMARK    1  A    between atoms: C_2  and  C_3
REMARK    2  A    between atoms: C_3  and  N_4
REMARK    3  A    between atoms: C_5  and  S_6
REMARK    4  A    between atoms: S_6  and  C_7
REMARK    5  A    between atoms: C_7  and  C_8
REMARK    6  A    between atoms: C_8  and  O_9
REMARK    7  A    between atoms: O_9  and  C_10
REMARK                            x       y       z     vdW  Elec       q    Type
REMARK                         _______ _______ _______ _____ _____    ______ ____
ROOT
ATOM      1  N   UNL     1       6.427   5.398  17.728  0.00  0.00    +0.000 N 
ATOM      2  C   UNL     1       7.420   6.313  17.453  0.00  0.00    +0.000 A 
ATOM      3  N   UNL     1       7.708   6.345  16.172  0.00  0.00    +0.000 NA
ATOM      4  C   UNL     1       6.919   5.378  15.597  0.00  0.00    +0.000 A 
ATOM      5  C   UNL     1       6.840   4.980  14.254  0.00  0.00    +0.000 A 
ATOM      6  C   UNL     1       5.964   3.940  13.905  0.00  0.00    +0.000 A 
ATOM      7  C   UNL     1       5.184   3.313  14.874  0.00  0.00    +0.000 A 
ATOM      8  C   UNL     1       5.235   3.709  16.215  0.00  0.00    +0.000 A 
ATOM      9  C   UNL     1       6.117   4.752  16.547  0.00  0.00    +0.000 A 
ENDROOT
BRANCH   1  10
ATOM     10  C   UNL     1       5.788   5.124  19.005  0.00  0.00    +0.000 C 
BRANCH  10  12
ATOM     11  O   UNL     1       3.878   6.541  18.661  0.00  0.00    +0.000 OA
ATOM     12  C   UNL     1       4.301   5.427  18.982  0.00  0.00    +0.000 C 
ATOM     13  N   UNL     1       3.433   4.396  19.330  0.00  0.00    +0.000 N 
ATOM     14  C   UNL     1       3.812   3.044  19.739  0.00  0.00    +0.000 C 
ATOM     15  C   UNL     1       3.261   2.012  18.755  0.00  0.00    +0.000 C 
ATOM     16  C   UNL     1       1.757   2.192  18.533  0.00  0.00    +0.000 C 
ATOM     17  C   UNL     1       1.408   3.640  18.185  0.00  0.00    +0.000 C 
ATOM     18  C   UNL     1       1.993   4.611  19.208  0.00  0.00    +0.000 C 
ENDBRANCH  10  12
ENDBRANCH   1  10
BRANCH   2  19
ATOM     19  S   UNL     1       8.079   7.416  18.620  0.00  0.00    +0.000 S 
BRANCH  19  20
ATOM     20  C   UNL     1       7.917   9.054  17.821  0.00  0.00    +0.000 C 
BRANCH  20  21
ATOM     21  C   UNL     1       8.962  10.094  18.196  0.00  0.00    +0.000 C 
BRANCH  21  22
ATOM     22  O   UNL     1       9.288   9.967  19.602  0.00  0.00    +0.000 OA
BRANCH  22  23
ATOM     23  C   UNL     1       9.564  11.150  20.242  0.00  0.00    +0.000 A 
ATOM     24  C   UNL     1       8.951  11.550  21.438  0.00  0.00    +0.000 A 
ATOM     25  C   UNL     1       9.216  12.805  21.984  0.00  0.00    +0.000 A 
ATOM     26  C   UNL     1      10.114  13.660  21.362  0.00  0.00    +0.000 A 
ATOM     27 CL   UNL     1      10.388  15.224  22.017  0.00  0.00    +0.000 Cl
ATOM     28  C   UNL     1      10.782  13.246  20.209  0.00  0.00    +0.000 A 
ATOM     29  C   UNL     1      10.497  11.999  19.645  0.00  0.00    +0.000 A 
ENDBRANCH  22  23
ENDBRANCH  21  22
ENDBRANCH  20  21
ENDBRANCH  19  20
ENDBRANCH   2  19
TORSDOF 7
ENDMDL
MODEL 3
REMARK VINA RESULT:      -8.0      5.079      8.021
REMARK  Name = 
REMARK  7 active torsions:
REMARK  status: ('A' for Active; 'I' for Inactive)
REMARK    1  A    between atoms: C_2  and  C_3
REMARK    2  A    between atoms: C_3  and  N_4
REMARK    3  A    between atoms: C_5  and  S_6
REMARK    4  A    between atoms: S_6  and  C_7
REMARK    5  A    between atoms: C_7  and  C_8
REMARK    6  A    between atoms: C_8  and  O_9
REMARK    7  A    between atoms: O_9  and  C_10
REMARK                            x       y       z     vdW  Elec       q    Type
REMARK                         _______ _______ _______ _____ _____    ______ ____
ROOT
ATOM      1  N   UNL     1       2.915   5.841  18.830  0.00  0.00    +0.000 N 
ATOM      2  C   UNL     1       3.763   5.590  17.775  0.00  0.00    +0.000 A 
ATOM      3  N   UNL     1       3.569   4.393  17.270  0.00  0.00    +0.000 NA
ATOM      4  C   UNL     1       2.601   3.819  18.059  0.00  0.00    +0.000 A 
ATOM      5  C   UNL     1       2.030   2.540  17.974  0.00  0.00    +0.000 A 
ATOM      6  C   UNL     1       1.062   2.165  18.918  0.00  0.00    +0.000 A 
ATOM      7  C   UNL     1       0.670   3.047  19.922  0.00  0.00    +0.000 A 
ATOM      8  C   UNL     1       1.213   4.334  20.012  0.00  0.00    +0.000 A 
ATOM      9  C   UNL     1       2.182   4.692  19.058  0.00  0.00    +0.000 A 
ENDROOT
BRANCH   1  10
ATOM     10  C   UNL     1       2.775   7.068  19.597  0.00  0.00    +0.000 C 
BRANCH  10  12
ATOM     11  O   UNL     1       1.800   8.063  17.639  0.00  0.00    +0.000 OA
ATOM     12  C   UNL     1       1.965   8.119  18.860  0.00  0.00    +0.000 C 
ATOM     13  N   UNL     1       1.409   9.146  19.619  0.00  0.00    +0.000 N 
ATOM     14  C   UNL     1       1.544   9.327  21.064  0.00  0.00    +0.000 C 
ATOM     15  C   UNL     1       0.177   9.253  21.744  0.00  0.00    +0.000 C 
ATOM     16  C   UNL     1      -0.829  10.206  21.093  0.00  0.00    +0.000 C 
ATOM     17  C   UNL     1      -0.872  10.027  19.574  0.00  0.00    +0.000 C 
ATOM     18  C   UNL     1       0.526  10.110  18.967  0.00  0.00    +0.000 C 
ENDBRANCH  10  12
ENDBRANCH   1  10
BRANCH   2  19
ATOM     19  S   UNL     1       4.828   6.771  17.078  0.00  0.00    +0.000 S 
BRANCH  19  20
ATOM     20  C   UNL     1       6.477   6.319  17.729  0.00  0.00    +0.000 C 
BRANCH  20  21
ATOM     21  C   UNL     1       7.217   5.216  16.986  0.00  0.00    +0.000 C 
BRANCH  21  22
ATOM     22  O   UNL     1       7.584   5.686  15.665  0.00  0.00    +0.000 OA
BRANCH  22  23
ATOM     23  C   UNL     1       7.086   4.939  14.626  0.00  0.00    +0.000 A 
ATOM     24  C   UNL     1       7.613   4.961  13.327  0.00  0.00    +0.000 A 
ATOM     25  C   UNL     1       7.001   4.242  12.303  0.00  0.00    +0.000 A 
ATOM     26  C   UNL     1       5.878   3.470  12.567  0.00  0.00    +0.000 A 
ATOM     27 CL   UNL     1       5.104   2.634  11.282  0.00  0.00    +0.000 Cl
ATOM     28  C   UNL     1       5.385   3.385  13.870  0.00  0.00    +0.000 A 
ATOM     29  C   UNL     1       5.982   4.127  14.893  0.00  0.00    +0.000 A 
ENDBRANCH  22  23
ENDBRANCH  21  22
ENDBRANCH  20  21
ENDBRANCH  19  20
ENDBRANCH   2  19
TORSDOF 7
ENDMDL
MODEL 4
REMARK VINA RESULT:      -7.9      1.215      1.325
REMARK  Name = 
REMARK  7 active torsions:
REMARK  status: ('A' for Active; 'I' for Inactive)
REMARK    1  A    between atoms: C_2  and  C_3
REMARK    2  A    between atoms: C_3  and  N_4
REMARK    3  A    between atoms: C_5  and  S_6
REMARK    4  A    between atoms: S_6  and  C_7
REMARK    5  A    between atoms: C_7  and  C_8
REMARK    6  A    between atoms: C_8  and  O_9
REMARK    7  A    between atoms: O_9  and  C_10
REMARK                            x       y       z     vdW  Elec       q    Type
REMARK                         _______ _______ _______ _____ _____    ______ ____
ROOT
ATOM      1  N   UNL     1       5.915   5.573  17.014  0.00  0.00    +0.000 N 
ATOM      2  C   UNL     1       7.142   6.194  17.079  0.00  0.00    +0.000 A 
ATOM      3  N   UNL     1       7.815   6.054  15.959  0.00  0.00    +0.000 NA
ATOM      4  C   UNL     1       7.026   5.266  15.156  0.00  0.00    +0.000 A 
ATOM      5  C   UNL     1       7.272   4.795  13.858  0.00  0.00    +0.000 A 
ATOM      6  C   UNL     1       6.315   3.975  13.241  0.00  0.00    +0.000 A 
ATOM      7  C   UNL     1       5.138   3.635  13.903  0.00  0.00    +0.000 A 
ATOM      8  C   UNL     1       4.865   4.111  15.191  0.00  0.00    +0.000 A 
ATOM      9  C   UNL     1       5.836   4.931  15.794  0.00  0.00    +0.000 A 
ENDROOT
BRANCH   1  10
ATOM     10  C   UNL     1       4.861   5.564  18.015  0.00  0.00    +0.000 C 
BRANCH  10  12
ATOM     11  O   UNL     1       5.899   3.792  19.263  0.00  0.00    +0.000 OA
ATOM     12  C   UNL     1       4.854   4.286  18.834  0.00  0.00    +0.000 C 
ATOM     13  N   UNL     1       3.618   3.696  19.088  0.00  0.00    +0.000 N 
ATOM     14  C   UNL     1       2.316   4.175  18.625  0.00  0.00    +0.000 C 
ATOM     15  C   UNL     1       1.420   4.528  19.812  0.00  0.00    +0.000 C 
ATOM     16  C   UNL     1       1.333   3.373  20.814  0.00  0.00    +0.000 C 
ATOM     17  C   UNL     1       2.721   2.860  21.203  0.00  0.00    +0.000 C 
ATOM     18  C   UNL     1       3.557   2.532  19.969  0.00  0.00    +0.000 C 
ENDBRANCH  10  12
ENDBRANCH   1  10
BRANCH   2  19
ATOM     19  S   UNL     1       7.662   7.192  18.401  0.00  0.00    +0.000 S 
BRANCH  19  20
ATOM     20  C   UNL     1       8.218   8.738  17.595  0.00  0.00    +0.000 C 
BRANCH  20  21
ATOM     21  C   UNL     1       8.328   9.963  18.491  0.00  0.00    +0.000 C 
BRANCH  21  22
ATOM     22  O   UNL     1       9.559   9.897  19.253  0.00  0.00    +0.000 OA
BRANCH  22  23
ATOM     23  C   UNL     1      10.244  11.083  19.350  0.00  0.00    +0.000 A 
ATOM     24  C   UNL     1      10.187  11.926  20.468  0.00  0.00    +0.000 A 
ATOM     25  C   UNL     1      10.839  13.157  20.461  0.00  0.00    +0.000 A 
ATOM     26  C   UNL     1      11.580  13.547  19.354  0.00  0.00    +0.000 A 
ATOM     27 CL   UNL     1      12.333  15.090  19.339  0.00  0.00    +0.000 Cl
ATOM     28  C   UNL     1      11.701  12.686  18.262  0.00  0.00    +0.000 A 
ATOM     29  C   UNL     1      11.025  11.464  18.257  0.00  0.00    +0.000 A 
ENDBRANCH  22  23
ENDBRANCH  21  22
ENDBRANCH  20  21
ENDBRANCH  19  20
ENDBRANCH   2  19
TORSDOF 7
ENDMDL
MODEL 5
REMARK VINA RESULT:      -7.9      5.204      7.884
REMARK  Name = 
REMARK  7 active torsions:
REMARK  status: ('A' for Active; 'I' for Inactive)
REMARK    1  A    between atoms: C_2  and  C_3
REMARK    2  A    between atoms: C_3  and  N_4
REMARK    3  A    between atoms: C_5  and  S_6
REMARK    4  A    between atoms: S_6  and  C_7
REMARK    5  A    between atoms: C_7  and  C_8
REMARK    6  A    between atoms: C_8  and  O_9
REMARK    7  A    between atoms: O_9  and  C_10
REMARK                            x       y       z     vdW  Elec       q    Type
REMARK                         _______ _______ _______ _____ _____    ______ ____
ROOT
ATOM      1  N   UNL     1       3.361   5.142  19.464  0.00  0.00    +0.000 N 
ATOM      2  C   UNL     1       4.635   4.709  19.169  0.00  0.00    +0.000 A 
ATOM      3  N   UNL     1       4.635   3.480  18.707  0.00  0.00    +0.000 NA
ATOM      4  C   UNL     1       3.323   3.073  18.756  0.00  0.00    +0.000 A 
ATOM      5  C   UNL     1       2.762   1.838  18.396  0.00  0.00    +0.000 A 
ATOM      6  C   UNL     1       1.381   1.647  18.557  0.00  0.00    +0.000 A 
ATOM      7  C   UNL     1       0.578   2.665  19.065  0.00  0.00    +0.000 A 
ATOM      8  C   UNL     1       1.115   3.910  19.411  0.00  0.00    +0.000 A 
ATOM      9  C   UNL     1       2.500   4.084  19.243  0.00  0.00    +0.000 A 
ENDROOT
BRANCH   1  10
ATOM     10  C   UNL     1       2.944   6.456  19.924  0.00  0.00    +0.000 C 
BRANCH  10  12
ATOM     11  O   UNL     1       2.904   7.106  17.611  0.00  0.00    +0.000 OA
ATOM     12  C   UNL     1       2.612   7.391  18.775  0.00  0.00    +0.000 C 
ATOM     13  N   UNL     1       1.957   8.579  19.086  0.00  0.00    +0.000 N 
ATOM     14  C   UNL     1       1.570   9.032  20.422  0.00  0.00    +0.000 C 
ATOM     15  C   UNL     1       0.052   9.179  20.521  0.00  0.00    +0.000 C 
ATOM     16  C   UNL     1      -0.505  10.047  19.389  0.00  0.00    +0.000 C 
ATOM     17  C   UNL     1      -0.006   9.576  18.021  0.00  0.00    +0.000 C 
ATOM     18  C   UNL     1       1.515   9.450  18.000  0.00  0.00    +0.000 C 
ENDBRANCH  10  12
ENDBRANCH   1  10
BRANCH   2  19
ATOM     19  S   UNL     1       6.045   5.720  19.224  0.00  0.00    +0.000 S 
BRANCH  19  20
ATOM     20  C   UNL     1       6.315   6.198  17.479  0.00  0.00    +0.000 C 
BRANCH  20  21
ATOM     21  C   UNL     1       7.294   5.342  16.689  0.00  0.00    +0.000 C 
BRANCH  21  22
ATOM     22  O   UNL     1       7.398   5.851  15.336  0.00  0.00    +0.000 OA
BRANCH  22  23
ATOM     23  C   UNL     1       6.852   5.041  14.370  0.00  0.00    +0.000 A 
ATOM     24  C   UNL     1       5.603   4.416  14.493  0.00  0.00    +0.000 A 
ATOM     25  C   UNL     1       5.152   3.538  13.510  0.00  0.00    +0.000 A 
ATOM     26  C   UNL     1       5.924   3.299  12.382  0.00  0.00    +0.000 A 
ATOM     27 CL   UNL     1       5.377   2.172  11.205  0.00  0.00    +0.000 Cl
ATOM     28  C   UNL     1       7.136   3.968  12.215  0.00  0.00    +0.000 A 
ATOM     29  C   UNL     1       7.603   4.828  13.213  0.00  0.00    +0.000 A 
ENDBRANCH  22  23
ENDBRANCH  21  22
ENDBRANCH  20  21
ENDBRANCH  19  20
ENDBRANCH   2  19
TORSDOF 7
ENDMDL
MODEL 6
REMARK VINA RESULT:      -7.9      1.236      1.552
REMARK  Name = 
REMARK  7 active torsions:
REMARK  status: ('A' for Active; 'I' for Inactive)
REMARK    1  A    between atoms: C_2  and  C_3
REMARK    2  A    between atoms: C_3  and  N_4
REMARK    3  A    between atoms: C_5  and  S_6
REMARK    4  A    between atoms: S_6  and  C_7
REMARK    5  A    between atoms: C_7  and  C_8
REMARK    6  A    between atoms: C_8  and  O_9
REMARK    7  A    between atoms: O_9  and  C_10
REMARK                            x       y       z     vdW  Elec       q    Type
REMARK                         _______ _______ _______ _____ _____    ______ ____
ROOT
ATOM      1  N   UNL     1       6.534   4.995  17.524  0.00  0.00    +0.000 N 
ATOM      2  C   UNL     1       7.402   6.052  17.363  0.00  0.00    +0.000 A 
ATOM      3  N   UNL     1       7.675   6.266  16.096  0.00  0.00    +0.000 NA
ATOM      4  C   UNL     1       7.010   5.279  15.408  0.00  0.00    +0.000 A 
ATOM      5  C   UNL     1       6.972   5.030  14.028  0.00  0.00    +0.000 A 
ATOM      6  C   UNL     1       6.232   3.935  13.557  0.00  0.00    +0.000 A 
ATOM      7  C   UNL     1       5.544   3.109  14.442  0.00  0.00    +0.000 A 
ATOM      8  C   UNL     1       5.553   3.353  15.820  0.00  0.00    +0.000 A 
ATOM      9  C   UNL     1       6.300   4.454  16.275  0.00  0.00    +0.000 A 
ENDROOT
BRANCH   1  10
ATOM     10  C   UNL     1       5.943   4.500  18.756  0.00  0.00    +0.000 C 
BRANCH  10  12
ATOM     11  O   UNL     1       4.249   6.203  18.809  0.00  0.00    +0.000 OA
ATOM     12  C   UNL     1       4.530   5.012  18.965  0.00  0.00    +0.000 C 
ATOM     13  N   UNL     1       3.560   4.083  19.332  0.00  0.00    +0.000 N 
ATOM     14  C   UNL     1       3.770   2.653  19.558  0.00  0.00    +0.000 C 
ATOM     15  C   UNL     1       2.950   1.827  18.568  0.00  0.00    +0.000 C 
ATOM     16  C   UNL     1       1.477   2.243  18.571  0.00  0.00    +0.000 C 
ATOM     17  C   UNL     1       1.319   3.756  18.409  0.00  0.00    +0.000 C 
ATOM     18  C   UNL     1       2.167   4.513  19.427  0.00  0.00    +0.000 C 
ENDBRANCH  10  12
ENDBRANCH   1  10
BRANCH   2  19
ATOM     19  S   UNL     1       7.925   7.090  18.652  0.00  0.00    +0.000 S 
BRANCH  19  20
ATOM     20  C   UNL     1       8.023   8.744  17.877  0.00  0.00    +0.000 C 
BRANCH  20  21
ATOM     21  C   UNL     1       8.784   9.809  18.653  0.00  0.00    +0.000 C 
BRANCH  21  22
ATOM     22  O   UNL     1       9.612  10.574  17.742  0.00  0.00    +0.000 OA
BRANCH  22  23
ATOM     23  C   UNL     1      10.191  11.693  18.288  0.00  0.00    +0.000 A 
ATOM     24  C   UNL     1      11.448  11.695  18.909  0.00  0.00    +0.000 A 
ATOM     25  C   UNL     1      11.934  12.850  19.518  0.00  0.00    +0.000 A 
ATOM     26  C   UNL     1      11.189  14.021  19.487  0.00  0.00    +0.000 A 
ATOM     27 CL   UNL     1      11.778  15.421  20.289  0.00  0.00    +0.000 Cl
ATOM     28  C   UNL     1       9.968  14.049  18.812  0.00  0.00    +0.000 A 
ATOM     29  C   UNL     1       9.467  12.885  18.225  0.00  0.00    +0.000 A 
ENDBRANCH  22  23
ENDBRANCH  21  22
ENDBRANCH  20  21
ENDBRANCH  19  20
ENDBRANCH   2  19
TORSDOF 7
ENDMDL
MODEL 7
REMARK VINA RESULT:      -7.9      1.497      2.019
REMARK  Name = 
REMARK  7 active torsions:
REMARK  status: ('A' for Active; 'I' for Inactive)
REMARK    1  A    between atoms: C_2  and  C_3
REMARK    2  A    between atoms: C_3  and  N_4
REMARK    3  A    between atoms: C_5  and  S_6
REMARK    4  A    between atoms: S_6  and  C_7
REMARK    5  A    between atoms: C_7  and  C_8
REMARK    6  A    between atoms: C_8  and  O_9
REMARK    7  A    between atoms: O_9  and  C_10
REMARK                            x       y       z     vdW  Elec       q    Type
REMARK                         _______ _______ _______ _____ _____    ______ ____
ROOT
ATOM      1  N   UNL     1       6.384   5.369  17.822  0.00  0.00    +0.000 N 
ATOM      2  C   UNL     1       7.421   6.243  17.582  0.00  0.00    +0.000 A 
ATOM      3  N   UNL     1       7.726   6.294  16.306  0.00  0.00    +0.000 NA
ATOM      4  C   UNL     1       6.900   5.379  15.697  0.00  0.00    +0.000 A 
ATOM      5  C   UNL     1       6.819   5.019  14.344  0.00  0.00    +0.000 A 
ATOM      6  C   UNL     1       5.901   4.030  13.959  0.00  0.00    +0.000 A 
ATOM      7  C   UNL     1       5.081   3.415  14.903  0.00  0.00    +0.000 A 
ATOM      8  C   UNL     1       5.134   3.775  16.254  0.00  0.00    +0.000 A 
ATOM      9  C   UNL     1       6.059   4.768  16.622  0.00  0.00    +0.000 A 
ENDROOT
BRANCH   1  10
ATOM     10  C   UNL     1       5.718   5.093  19.085  0.00  0.00    +0.000 C 
BRANCH  10  12
ATOM     11  O   UNL     1       3.810   6.497  18.683  0.00  0.00    +0.000 OA
ATOM     12  C   UNL     1       4.230   5.390  19.029  0.00  0.00    +0.000 C 
ATOM     13  N   UNL     1       3.359   4.362  19.376  0.00  0.00    +0.000 N 
ATOM     14  C   UNL     1       3.734   3.017  19.813  0.00  0.00    +0.000 C 
ATOM     15  C   UNL     1       3.205   1.968  18.835  0.00  0.00    +0.000 C 
ATOM     16  C   UNL     1       1.705   2.139  18.581  0.00  0.00    +0.000 C 
ATOM     17  C   UNL     1       1.359   3.581  18.205  0.00  0.00    +0.000 C 
ATOM     18  C   UNL     1       1.921   4.570  19.223  0.00  0.00    +0.000 C 
ENDBRANCH  10  12
ENDBRANCH   1  10
BRANCH   2  19
ATOM     19  S   UNL     1       8.116   7.285  18.784  0.00  0.00    +0.000 S 
BRANCH  19  20
ATOM     20  C   UNL     1       8.206   8.915  17.957  0.00  0.00    +0.000 C 
BRANCH  20  21
ATOM     21  C   UNL     1       8.926  10.019  18.718  0.00  0.00    +0.000 C 
BRANCH  21  22
ATOM     22  O   UNL     1       9.748  10.782  17.801  0.00  0.00    +0.000 OA
BRANCH  22  23
ATOM     23  C   UNL     1       9.836  12.123  18.082  0.00  0.00    +0.000 A 
ATOM     24  C   UNL     1       8.785  13.030  17.889  0.00  0.00    +0.000 A 
ATOM     25  C   UNL     1       8.975  14.392  18.114  0.00  0.00    +0.000 A 
ATOM     26  C   UNL     1      10.202  14.860  18.561  0.00  0.00    +0.000 A 
ATOM     27 CL   UNL     1      10.436  16.547  18.781  0.00  0.00    +0.000 Cl
ATOM     28  C   UNL     1      11.235  13.959  18.824  0.00  0.00    +0.000 A 
ATOM     29  C   UNL     1      11.054  12.597  18.573  0.00  0.00    +0.000 A 
ENDBRANCH  22  23
ENDBRANCH  21  22
ENDBRANCH  20  21
ENDBRANCH  19  20
ENDBRANCH   2  19
TORSDOF 7
ENDMDL
MODEL 8
REMARK VINA RESULT:      -7.7      1.449      1.714
REMARK  Name = 
REMARK  7 active torsions:
REMARK  status: ('A' for Active; 'I' for Inactive)
REMARK    1  A    between atoms: C_2  and  C_3
REMARK    2  A    between atoms: C_3  and  N_4
REMARK    3  A    between atoms: C_5  and  S_6
REMARK    4  A    between atoms: S_6  and  C_7
REMARK    5  A    between atoms: C_7  and  C_8
REMARK    6  A    between atoms: C_8  and  O_9
REMARK    7  A    between atoms: O_9  and  C_10
REMARK                            x       y       z     vdW  Elec       q    Type
REMARK                         _______ _______ _______ _____ _____    ______ ____
ROOT
ATOM      1  N   UNL     1       5.997   5.619  17.430  0.00  0.00    +0.000 N 
ATOM      2  C   UNL     1       7.244   6.203  17.391  0.00  0.00    +0.000 A 
ATOM      3  N   UNL     1       7.809   6.059  16.214  0.00  0.00    +0.000 NA
ATOM      4  C   UNL     1       6.928   5.306  15.476  0.00  0.00    +0.000 A 
ATOM      5  C   UNL     1       7.042   4.847  14.155  0.00  0.00    +0.000 A 
ATOM      6  C   UNL     1       6.008   4.065  13.617  0.00  0.00    +0.000 A 
ATOM      7  C   UNL     1       4.885   3.750  14.379  0.00  0.00    +0.000 A 
ATOM      8  C   UNL     1       4.744   4.215  15.691  0.00  0.00    +0.000 A 
ATOM      9  C   UNL     1       5.789   4.997  16.214  0.00  0.00    +0.000 A 
ENDROOT
BRANCH   1  10
ATOM     10  C   UNL     1       5.037   5.627  18.521  0.00  0.00    +0.000 C 
BRANCH  10  12
ATOM     11  O   UNL     1       5.833   3.581  19.498  0.00  0.00    +0.000 OA
ATOM     12  C   UNL     1       4.862   4.254  19.145  0.00  0.00    +0.000 C 
ATOM     13  N   UNL     1       3.560   3.788  19.310  0.00  0.00    +0.000 N 
ATOM     14  C   UNL     1       2.333   4.484  18.922  0.00  0.00    +0.000 C 
ATOM     15  C   UNL     1       1.465   4.767  20.147  0.00  0.00    +0.000 C 
ATOM     16  C   UNL     1       1.222   3.499  20.970  0.00  0.00    +0.000 C 
ATOM     17  C   UNL     1       2.531   2.770  21.281  0.00  0.00    +0.000 C 
ATOM     18  C   UNL     1       3.343   2.525  20.013  0.00  0.00    +0.000 C 
ENDBRANCH  10  12
ENDBRANCH   1  10
BRANCH   2  19
ATOM     19  S   UNL     1       7.910   7.166  18.672  0.00  0.00    +0.000 S 
BRANCH  19  20
ATOM     20  C   UNL     1       8.183   8.802  17.899  0.00  0.00    +0.000 C 
BRANCH  20  21
ATOM     21  C   UNL     1       8.902   9.838  18.750  0.00  0.00    +0.000 C 
BRANCH  21  22
ATOM     22  O   UNL     1       9.401  10.900  17.899  0.00  0.00    +0.000 OA
BRANCH  22  23
ATOM     23  C   UNL     1       8.889  12.146  18.168  0.00  0.00    +0.000 A 
ATOM     24  C   UNL     1       9.257  12.916  19.281  0.00  0.00    +0.000 A 
ATOM     25  C   UNL     1       8.630  14.133  19.536  0.00  0.00    +0.000 A 
ATOM     26  C   UNL     1       7.656  14.611  18.672  0.00  0.00    +0.000 A 
ATOM     27 CL   UNL     1       6.855  16.088  19.031  0.00  0.00    +0.000 Cl
ATOM     28  C   UNL     1       7.331  13.888  17.524  0.00  0.00    +0.000 A 
ATOM     29  C   UNL     1       7.938  12.653  17.281  0.00  0.00    +0.000 A 
ENDBRANCH  22  23
ENDBRANCH  21  22
ENDBRANCH  20  21
ENDBRANCH  19  20
ENDBRANCH   2  19
TORSDOF 7
ENDMDL
MODEL 9
REMARK VINA RESULT:      -7.6      1.246      1.579
REMARK  Name = 
REMARK  7 active torsions:
REMARK  status: ('A' for Active; 'I' for Inactive)
REMARK    1  A    between atoms: C_2  and  C_3
REMARK    2  A    between atoms: C_3  and  N_4
REMARK    3  A    between atoms: C_5  and  S_6
REMARK    4  A    between atoms: S_6  and  C_7
REMARK    5  A    between atoms: C_7  and  C_8
REMARK    6  A    between atoms: C_8  and  O_9
REMARK    7  A    between atoms: O_9  and  C_10
REMARK                            x       y       z     vdW  Elec       q    Type
REMARK                         _______ _______ _______ _____ _____    ______ ____
ROOT
ATOM      1  N   UNL     1       5.604   4.862  15.904  0.00  0.00    +0.000 N 
ATOM      2  C   UNL     1       6.915   5.081  16.265  0.00  0.00    +0.000 A 
ATOM      3  N   UNL     1       7.738   4.851  15.268  0.00  0.00    +0.000 NA
ATOM      4  C   UNL     1       6.944   4.409  14.236  0.00  0.00    +0.000 A 
ATOM      5  C   UNL     1       7.311   4.007  12.943  0.00  0.00    +0.000 A 
ATOM      6  C   UNL     1       6.313   3.569  12.060  0.00  0.00    +0.000 A 
ATOM      7  C   UNL     1       4.978   3.535  12.456  0.00  0.00    +0.000 A 
ATOM      8  C   UNL     1       4.590   3.951  13.735  0.00  0.00    +0.000 A 
ATOM      9  C   UNL     1       5.603   4.387  14.607  0.00  0.00    +0.000 A 
ENDROOT
BRANCH   1  10
ATOM     10  C   UNL     1       4.406   5.076  16.700  0.00  0.00    +0.000 C 
BRANCH  10  12
ATOM     11  O   UNL     1       4.591   2.762  17.322  0.00  0.00    +0.000 OA
ATOM     12  C   UNL     1       3.988   3.829  17.458  0.00  0.00    +0.000 C 
ATOM     13  N   UNL     1       2.899   3.939  18.318  0.00  0.00    +0.000 N 
ATOM     14  C   UNL     1       2.097   5.140  18.554  0.00  0.00    +0.000 C 
ATOM     15  C   UNL     1       2.195   5.573  20.016  0.00  0.00    +0.000 C 
ATOM     16  C   UNL     1       1.872   4.418  20.968  0.00  0.00    +0.000 C 
ATOM     17  C   UNL     1       2.681   3.165  20.627  0.00  0.00    +0.000 C 
ATOM     18  C   UNL     1       2.537   2.796  19.153  0.00  0.00    +0.000 C 
ENDBRANCH  10  12
ENDBRANCH   1  10
BRANCH   2  19
ATOM     19  S   UNL     1       7.407   5.755  17.788  0.00  0.00    +0.000 S 
BRANCH  19  20
ATOM     20  C   UNL     1       7.267   7.562  17.538  0.00  0.00    +0.000 C 
BRANCH  20  21
ATOM     21  C   UNL     1       8.269   8.427  18.288  0.00  0.00    +0.000 C 
BRANCH  21  22
ATOM     22  O   UNL     1       8.482   9.662  17.561  0.00  0.00    +0.000 OA
BRANCH  22  23
ATOM     23  C   UNL     1       8.924  10.714  18.325  0.00  0.00    +0.000 A 
ATOM     24  C   UNL     1       8.944  12.044  17.883  0.00  0.00    +0.000 A 
ATOM     25  C   UNL     1       9.488  13.048  18.682  0.00  0.00    +0.000 A 
ATOM     26  C   UNL     1       9.988  12.743  19.940  0.00  0.00    +0.000 A 
ATOM     27 CL   UNL     1      10.705  13.982  20.889  0.00  0.00    +0.000 Cl
ATOM     28  C   UNL     1       9.911  11.435  20.419  0.00  0.00    +0.000 A 
ATOM     29  C   UNL     1       9.391  10.423  19.608  0.00  0.00    +0.000 A 
ENDBRANCH  22  23
ENDBRANCH  21  22
ENDBRANCH  20  21
ENDBRANCH  19  20
ENDBRANCH   2  19
TORSDOF 7
ENDMDL
