MODEL 1
REMARK VINA RESULT:      -5.2      0.000      0.000
REMARK  Name = 
REMARK  4 active torsions:
REMARK  status: ('A' for Active; 'I' for Inactive)
REMARK    1  A    between atoms: C_1  and  C_2
REMARK    2  A    between atoms: C_2  and  O_3
REMARK    3  A    between atoms: O_3  and  C_4
REMARK    4  A    between atoms: C_9  and  N_10
REMARK                            x       y       z     vdW  Elec       q    Type
REMARK                         _______ _______ _______ _____ _____    ______ ____
ROOT
ATOM      1  C   UNL     1       3.682   4.390  19.577  0.00  0.00    +0.000 A 
ATOM      2  C   UNL     1       2.788   5.434  19.848  0.00  0.00    +0.000 A 
ATOM      3  C   UNL     1       1.566   5.180  20.481  0.00  0.00    +0.000 A 
ATOM      4  C   UNL     1       1.202   3.878  20.822  0.00  0.00    +0.000 A 
ATOM      5  C   UNL     1       2.055   2.817  20.513  0.00  0.00    +0.000 A 
ATOM      6  C   UNL     1       3.279   3.088  19.891  0.00  0.00    +0.000 A 
ENDROOT
BRANCH   6   7
ATOM      7  N   UNL     1       4.142   1.963  19.590  0.00  0.00    +0.000 N 
ATOM      8  O   UNL     1       5.062   1.715  20.384  0.00  0.00    +0.000 OA
ATOM      9  O   UNL     1       3.853   1.287  18.592  0.00  0.00    +0.000 OA
ENDBRANCH   6   7
BRANCH   1  10
ATOM     10  O   UNL     1       4.902   4.587  18.990  0.00  0.00    +0.000 OA
BRANCH  10  12
ATOM     11  C   UNL     1       4.647   4.228  16.633  0.00  0.00    +0.000 C 
ATOM     12  C   UNL     1       4.872   5.256  17.725  0.00  0.00    +0.000 C 
ENDBRANCH  10  12
ENDBRANCH   1  10
TORSDOF 3
ENDMDL
MODEL 2
REMARK VINA RESULT:      -5.2      3.220      4.294
REMARK  Name = 
REMARK  4 active torsions:
REMARK  status: ('A' for Active; 'I' for Inactive)
REMARK    1  A    between atoms: C_1  and  C_2
REMARK    2  A    between atoms: C_2  and  O_3
REMARK    3  A    between atoms: O_3  and  C_4
REMARK    4  A    between atoms: C_9  and  N_10
REMARK                            x       y       z     vdW  Elec       q    Type
REMARK                         _______ _______ _______ _____ _____    ______ ____
ROOT
ATOM      1  C   UNL     1       5.202   4.068  16.581  0.00  0.00    +0.000 A 
ATOM      2  C   UNL     1       3.880   3.788  16.950  0.00  0.00    +0.000 A 
ATOM      3  C   UNL     1       3.334   4.336  18.116  0.00  0.00    +0.000 A 
ATOM      4  C   UNL     1       4.107   5.146  18.948  0.00  0.00    +0.000 A 
ATOM      5  C   UNL     1       5.442   5.394  18.626  0.00  0.00    +0.000 A 
ATOM      6  C   UNL     1       5.971   4.849  17.451  0.00  0.00    +0.000 A 
ENDROOT
BRANCH   6   7
ATOM      7  N   UNL     1       7.359   5.133  17.145  0.00  0.00    +0.000 N 
ATOM      8  O   UNL     1       8.199   4.264  17.422  0.00  0.00    +0.000 OA
ATOM      9  O   UNL     1       7.597   6.201  16.563  0.00  0.00    +0.000 OA
ENDBRANCH   6   7
BRANCH   1  10
ATOM     10  O   UNL     1       5.776   3.584  15.437  0.00  0.00    +0.000 OA
BRANCH  10  12
ATOM     11  C   UNL     1       6.089   3.614  13.060  0.00  0.00    +0.000 C 
ATOM     12  C   UNL     1       5.549   4.367  14.261  0.00  0.00    +0.000 C 
ENDBRANCH  10  12
ENDBRANCH   1  10
TORSDOF 3
ENDMDL
MODEL 3
REMARK VINA RESULT:      -5.2      1.526      1.918
REMARK  Name = 
REMARK  4 active torsions:
REMARK  status: ('A' for Active; 'I' for Inactive)
REMARK    1  A    between atoms: C_1  and  C_2
REMARK    2  A    between atoms: C_2  and  O_3
REMARK    3  A    between atoms: O_3  and  C_4
REMARK    4  A    between atoms: C_9  and  N_10
REMARK                            x       y       z     vdW  Elec       q    Type
REMARK                         _______ _______ _______ _____ _____    ______ ____
ROOT
ATOM      1  C   UNL     1       2.682   2.789  18.737  0.00  0.00    +0.000 A 
ATOM      2  C   UNL     1       1.287   2.912  18.738  0.00  0.00    +0.000 A 
ATOM      3  C   UNL     1       0.584   3.037  19.941  0.00  0.00    +0.000 A 
ATOM      4  C   UNL     1       1.257   3.009  21.162  0.00  0.00    +0.000 A 
ATOM      5  C   UNL     1       2.641   2.835  21.185  0.00  0.00    +0.000 A 
ATOM      6  C   UNL     1       3.333   2.723  19.973  0.00  0.00    +0.000 A 
ENDROOT
BRANCH   6   7
ATOM      7  N   UNL     1       4.770   2.549  20.034  0.00  0.00    +0.000 N 
ATOM      8  O   UNL     1       5.481   3.515  19.715  0.00  0.00    +0.000 OA
ATOM      9  O   UNL     1       5.186   1.466  20.469  0.00  0.00    +0.000 OA
ENDBRANCH   6   7
BRANCH   1  10
ATOM     10  O   UNL     1       3.422   2.696  17.589  0.00  0.00    +0.000 OA
BRANCH  10  12
ATOM     11  C   UNL     1       4.990   3.982  16.310  0.00  0.00    +0.000 C 
ATOM     12  C   UNL     1       3.578   3.918  16.860  0.00  0.00    +0.000 C 
ENDBRANCH  10  12
ENDBRANCH   1  10
TORSDOF 3
ENDMDL
MODEL 4
REMARK VINA RESULT:      -5.2      3.469      4.513
REMARK  Name = 
REMARK  4 active torsions:
REMARK  status: ('A' for Active; 'I' for Inactive)
REMARK    1  A    between atoms: C_1  and  C_2
REMARK    2  A    between atoms: C_2  and  O_3
REMARK    3  A    between atoms: O_3  and  C_4
REMARK    4  A    between atoms: C_9  and  N_10
REMARK                            x       y       z     vdW  Elec       q    Type
REMARK                         _______ _______ _______ _____ _____    ______ ____
ROOT
ATOM      1  C   UNL     1       5.913   6.567  17.153  0.00  0.00    +0.000 A 
ATOM      2  C   UNL     1       4.615   7.058  17.342  0.00  0.00    +0.000 A 
ATOM      3  C   UNL     1       3.574   6.198  17.708  0.00  0.00    +0.000 A 
ATOM      4  C   UNL     1       3.804   4.830  17.858  0.00  0.00    +0.000 A 
ATOM      5  C   UNL     1       5.079   4.313  17.623  0.00  0.00    +0.000 A 
ATOM      6  C   UNL     1       6.113   5.188  17.270  0.00  0.00    +0.000 A 
ENDROOT
BRANCH   6   7
ATOM      7  N   UNL     1       7.425   4.617  17.040  0.00  0.00    +0.000 N 
ATOM      8  O   UNL     1       8.082   4.265  18.032  0.00  0.00    +0.000 OA
ATOM      9  O   UNL     1       7.768   4.459  15.860  0.00  0.00    +0.000 OA
ENDBRANCH   6   7
BRANCH   1  10
ATOM     10  O   UNL     1       6.973   7.369  16.827  0.00  0.00    +0.000 OA
BRANCH  10  12
ATOM     11  C   UNL     1       8.085   9.238  17.834  0.00  0.00    +0.000 C 
ATOM     12  C   UNL     1       7.813   7.749  17.921  0.00  0.00    +0.000 C 
ENDBRANCH  10  12
ENDBRANCH   1  10
TORSDOF 3
ENDMDL
MODEL 5
REMARK VINA RESULT:      -5.1      3.677      4.541
REMARK  Name = 
REMARK  4 active torsions:
REMARK  status: ('A' for Active; 'I' for Inactive)
REMARK    1  A    between atoms: C_1  and  C_2
REMARK    2  A    between atoms: C_2  and  O_3
REMARK    3  A    between atoms: O_3  and  C_4
REMARK    4  A    between atoms: C_9  and  N_10
REMARK                            x       y       z     vdW  Elec       q    Type
REMARK                         _______ _______ _______ _____ _____    ______ ____
ROOT
ATOM      1  C   UNL     1       5.690   6.376  16.833  0.00  0.00    +0.000 A 
ATOM      2  C   UNL     1       4.531   6.906  17.416  0.00  0.00    +0.000 A 
ATOM      3  C   UNL     1       3.467   6.070  17.773  0.00  0.00    +0.000 A 
ATOM      4  C   UNL     1       3.529   4.699  17.524  0.00  0.00    +0.000 A 
ATOM      5  C   UNL     1       4.652   4.159  16.897  0.00  0.00    +0.000 A 
ATOM      6  C   UNL     1       5.714   5.005  16.557  0.00  0.00    +0.000 A 
ENDROOT
BRANCH   6   7
ATOM      7  N   UNL     1       6.867   4.410  15.912  0.00  0.00    +0.000 N 
ATOM      8  O   UNL     1       6.786   4.164  14.699  0.00  0.00    +0.000 OA
ATOM      9  O   UNL     1       7.879   4.253  16.610  0.00  0.00    +0.000 OA
ENDBRANCH   6   7
BRANCH   1  10
ATOM     10  O   UNL     1       6.771   7.144  16.494  0.00  0.00    +0.000 OA
BRANCH  10  12
ATOM     11  C   UNL     1       8.063   7.051  18.512  0.00  0.00    +0.000 C 
ATOM     12  C   UNL     1       7.307   7.947  17.551  0.00  0.00    +0.000 C 
ENDBRANCH  10  12
ENDBRANCH   1  10
TORSDOF 3
ENDMDL
MODEL 6
REMARK VINA RESULT:      -5.1      2.458      4.153
REMARK  Name = 
REMARK  4 active torsions:
REMARK  status: ('A' for Active; 'I' for Inactive)
REMARK    1  A    between atoms: C_1  and  C_2
REMARK    2  A    between atoms: C_2  and  O_3
REMARK    3  A    between atoms: O_3  and  C_4
REMARK    4  A    between atoms: C_9  and  N_10
REMARK                            x       y       z     vdW  Elec       q    Type
REMARK                         _______ _______ _______ _____ _____    ______ ____
ROOT
ATOM      1  C   UNL     1       5.108   4.659  18.583  0.00  0.00    +0.000 A 
ATOM      2  C   UNL     1       3.826   5.209  18.458  0.00  0.00    +0.000 A 
ATOM      3  C   UNL     1       3.622   6.381  17.721  0.00  0.00    +0.000 A 
ATOM      4  C   UNL     1       4.698   7.040  17.126  0.00  0.00    +0.000 A 
ATOM      5  C   UNL     1       5.990   6.537  17.283  0.00  0.00    +0.000 A 
ATOM      6  C   UNL     1       6.177   5.358  18.012  0.00  0.00    +0.000 A 
ENDROOT
BRANCH   6   7
ATOM      7  N   UNL     1       7.531   4.861  18.149  0.00  0.00    +0.000 N 
ATOM      8  O   UNL     1       8.103   5.039  19.236  0.00  0.00    +0.000 OA
ATOM      9  O   UNL     1       7.997   4.231  17.189  0.00  0.00    +0.000 OA
ENDBRANCH   6   7
BRANCH   1  10
ATOM     10  O   UNL     1       5.358   3.499  19.264  0.00  0.00    +0.000 OA
BRANCH  10  12
ATOM     11  C   UNL     1       3.811   1.739  18.759  0.00  0.00    +0.000 C 
ATOM     12  C   UNL     1       4.200   2.815  19.754  0.00  0.00    +0.000 C 
ENDBRANCH  10  12
ENDBRANCH   1  10
TORSDOF 3
ENDMDL
MODEL 7
REMARK VINA RESULT:      -5.1      1.084      1.251
REMARK  Name = 
REMARK  4 active torsions:
REMARK  status: ('A' for Active; 'I' for Inactive)
REMARK    1  A    between atoms: C_1  and  C_2
REMARK    2  A    between atoms: C_2  and  O_3
REMARK    3  A    between atoms: O_3  and  C_4
REMARK    4  A    between atoms: C_9  and  N_10
REMARK                            x       y       z     vdW  Elec       q    Type
REMARK                         _______ _______ _______ _____ _____    ______ ____
ROOT
ATOM      1  C   UNL     1       4.048   4.546  19.270  0.00  0.00    +0.000 A 
ATOM      2  C   UNL     1       3.302   5.725  19.400  0.00  0.00    +0.000 A 
ATOM      3  C   UNL     1       2.114   5.739  20.139  0.00  0.00    +0.000 A 
ATOM      4  C   UNL     1       1.635   4.571  20.732  0.00  0.00    +0.000 A 
ATOM      5  C   UNL     1       2.335   3.375  20.571  0.00  0.00    +0.000 A 
ATOM      6  C   UNL     1       3.528   3.379  19.839  0.00  0.00    +0.000 A 
ENDROOT
BRANCH   6   7
ATOM      7  N   UNL     1       4.232   2.120  19.697  0.00  0.00    +0.000 N 
ATOM      8  O   UNL     1       5.066   1.825  20.568  0.00  0.00    +0.000 OA
ATOM      9  O   UNL     1       3.899   1.396  18.749  0.00  0.00    +0.000 OA
ENDBRANCH   6   7
BRANCH   1  10
ATOM     10  O   UNL     1       5.231   4.484  18.586  0.00  0.00    +0.000 OA
BRANCH  10  12
ATOM     11  C   UNL     1       7.524   5.104  18.259  0.00  0.00    +0.000 C 
ATOM     12  C   UNL     1       6.287   5.295  19.114  0.00  0.00    +0.000 C 
ENDBRANCH  10  12
ENDBRANCH   1  10
TORSDOF 3
ENDMDL
MODEL 8
REMARK VINA RESULT:      -5.0      1.159      3.295
REMARK  Name = 
REMARK  4 active torsions:
REMARK  status: ('A' for Active; 'I' for Inactive)
REMARK    1  A    between atoms: C_1  and  C_2
REMARK    2  A    between atoms: C_2  and  O_3
REMARK    3  A    between atoms: O_3  and  C_4
REMARK    4  A    between atoms: C_9  and  N_10
REMARK                            x       y       z     vdW  Elec       q    Type
REMARK                         _______ _______ _______ _____ _____    ______ ____
ROOT
ATOM      1  C   UNL     1       3.436   4.822  19.396  0.00  0.00    +0.000 A 
ATOM      2  C   UNL     1       3.415   6.105  18.836  0.00  0.00    +0.000 A 
ATOM      3  C   UNL     1       3.981   6.343  17.579  0.00  0.00    +0.000 A 
ATOM      4  C   UNL     1       4.608   5.313  16.877  0.00  0.00    +0.000 A 
ATOM      5  C   UNL     1       4.687   4.040  17.442  0.00  0.00    +0.000 A 
ATOM      6  C   UNL     1       4.105   3.813  18.694  0.00  0.00    +0.000 A 
ENDROOT
BRANCH   6   7
ATOM      7  N   UNL     1       4.201   2.477  19.247  0.00  0.00    +0.000 N 
ATOM      8  O   UNL     1       5.011   2.292  20.168  0.00  0.00    +0.000 OA
ATOM      9  O   UNL     1       3.412   1.630  18.804  0.00  0.00    +0.000 OA
ENDBRANCH   6   7
BRANCH   1  10
ATOM     10  O   UNL     1       2.869   4.527  20.606  0.00  0.00    +0.000 OA
BRANCH  10  12
ATOM     11  C   UNL     1       1.179   2.918  21.154  0.00  0.00    +0.000 C 
ATOM     12  C   UNL     1       1.458   4.293  20.580  0.00  0.00    +0.000 C 
ENDBRANCH  10  12
ENDBRANCH   1  10
TORSDOF 3
ENDMDL
MODEL 9
REMARK VINA RESULT:      -5.0      1.618      2.155
REMARK  Name = 
REMARK  4 active torsions:
REMARK  status: ('A' for Active; 'I' for Inactive)
REMARK    1  A    between atoms: C_1  and  C_2
REMARK    2  A    between atoms: C_2  and  O_3
REMARK    3  A    between atoms: O_3  and  C_4
REMARK    4  A    between atoms: C_9  and  N_10
REMARK                            x       y       z     vdW  Elec       q    Type
REMARK                         _______ _______ _______ _____ _____    ______ ____
ROOT
ATOM      1  C   UNL     1       4.742   4.499  18.698  0.00  0.00    +0.000 A 
ATOM      2  C   UNL     1       4.306   5.749  18.240  0.00  0.00    +0.000 A 
ATOM      3  C   UNL     1       2.946   5.992  18.018  0.00  0.00    +0.000 A 
ATOM      4  C   UNL     1       2.004   4.982  18.217  0.00  0.00    +0.000 A 
ATOM      5  C   UNL     1       2.424   3.714  18.622  0.00  0.00    +0.000 A 
ATOM      6  C   UNL     1       3.786   3.490  18.852  0.00  0.00    +0.000 A 
ENDROOT
BRANCH   6   7
ATOM      7  N   UNL     1       4.185   2.163  19.277  0.00  0.00    +0.000 N 
ATOM      8  O   UNL     1       4.790   2.062  20.356  0.00  0.00    +0.000 OA
ATOM      9  O   UNL     1       3.831   1.216  18.561  0.00  0.00    +0.000 OA
ENDBRANCH   6   7
BRANCH   1  10
ATOM     10  O   UNL     1       6.055   4.218  18.961  0.00  0.00    +0.000 OA
BRANCH  10  12
ATOM     11  C   UNL     1       7.869   5.780  19.099  0.00  0.00    +0.000 C 
ATOM     12  C   UNL     1       7.006   4.944  18.175  0.00  0.00    +0.000 C 
ENDBRANCH  10  12
ENDBRANCH   1  10
TORSDOF 3
ENDMDL
