MODEL 1
REMARK VINA RESULT:      -8.1      0.000      0.000
REMARK  Name = 
REMARK  6 active torsions:
REMARK  status: ('A' for Active; 'I' for Inactive)
REMARK    1  A    between atoms: O_1  and  C_2
REMARK    2  A    between atoms: C_4  and  C_5
REMARK    3  A    between atoms: N_11  and  C_12
REMARK    4  A    between atoms: C_12  and  C_13
REMARK    5  A    between atoms: C_19  and  N_20
REMARK    6  A    between atoms: C_22  and  C_23
REMARK                            x       y       z     vdW  Elec       q    Type
REMARK                         _______ _______ _______ _____ _____    ______ ____
ROOT
ATOM      1  C   UNL     1       5.663   6.349  15.987  0.00  0.00    +0.000 C 
ATOM      2  C   UNL     1       4.471   7.026  16.642  0.00  0.00    +0.000 C 
ATOM      3  C   UNL     1       3.815   6.183  17.768  0.00  0.00    +0.000 C 
ATOM      4  N   UNL     1       4.801   5.647  18.736  0.00  0.00    +0.000 NA
ATOM      5  C   UNL     1       5.939   4.988  18.050  0.00  0.00    +0.000 C 
ATOM      6  C   UNL     1       6.674   5.895  17.049  0.00  0.00    +0.000 C 
ENDROOT
BRANCH   3   7
ATOM      7  C   UNL     1       2.756   7.123  18.363  0.00  0.00    +0.000 A 
ATOM      8  C   UNL     1       2.334   8.230  17.610  0.00  0.00    +0.000 A 
ATOM      9  C   UNL     1       1.587   9.252  18.199  0.00  0.00    +0.000 A 
ATOM     10  C   UNL     1       1.232   9.171  19.541  0.00  0.00    +0.000 A 
ATOM     11  C   UNL     1       1.607   8.057  20.293  0.00  0.00    +0.000 A 
ATOM     12  C   UNL     1       2.364   7.037  19.710  0.00  0.00    +0.000 A 
ENDBRANCH   3   7
BRANCH   6  13
ATOM     13  N   UNL     1       7.367   7.010  17.676  0.00  0.00    +0.000 N 
ATOM     14  C   UNL     1       7.357   8.332  17.341  0.00  0.00    +0.000 A 
ATOM     15  C   UNL     1       8.257   8.898  18.203  0.00  0.00    +0.000 A 
ATOM     16  N   UNL     1       8.741   7.951  19.055  0.00  0.00    +0.000 NA
ATOM     17  N   UNL     1       8.167   6.794  18.743  0.00  0.00    +0.000 NA
BRANCH  15  18
ATOM     18  C   UNL     1       8.640  10.357  18.166  0.00  0.00    +0.000 C 
ATOM     19  C   UNL     1       9.419  10.929  19.328  0.00  0.00    +0.000 C 
ATOM     20  C   UNL     1      10.103  10.712  18.021  0.00  0.00    +0.000 C 
ENDBRANCH  15  18
ENDBRANCH   6  13
BRANCH   1  21
ATOM     21  O   UNL     1       5.210   5.220  15.225  0.00  0.00    +0.000 OA
ATOM     22  H   UNL     1       5.066   4.486  15.849  0.00  0.00    +0.000 HD
ENDBRANCH   1  21
BRANCH   4  23
ATOM     23  C   UNL     1       4.217   4.749  19.766  0.00  0.00    +0.000 C 
BRANCH  23  24
ATOM     24  C   UNL     1       3.339   3.646  19.228  0.00  0.00    +0.000 A 
ATOM     25  C   UNL     1       3.555   2.831  18.130  0.00  0.00    +0.000 A 
ATOM     26  C   UNL     1       2.418   2.035  17.816  0.00  0.00    +0.000 A 
ATOM     27  C   UNL     1       1.412   2.191  18.741  0.00  0.00    +0.000 A 
ATOM     28  S   UNL     1       1.856   3.259  19.999  0.00  0.00    +0.000 S 
ENDBRANCH  23  24
ENDBRANCH   4  23
TORSDOF 6
ENDMDL
MODEL 2
REMARK VINA RESULT:      -7.7      0.810      1.044
REMARK  Name = 
REMARK  6 active torsions:
REMARK  status: ('A' for Active; 'I' for Inactive)
REMARK    1  A    between atoms: O_1  and  C_2
REMARK    2  A    between atoms: C_4  and  C_5
REMARK    3  A    between atoms: N_11  and  C_12
REMARK    4  A    between atoms: C_12  and  C_13
REMARK    5  A    between atoms: C_19  and  N_20
REMARK    6  A    between atoms: C_22  and  C_23
REMARK                            x       y       z     vdW  Elec       q    Type
REMARK                         _______ _______ _______ _____ _____    ______ ____
ROOT
ATOM      1  C   UNL     1       5.413   5.910  16.116  0.00  0.00    +0.000 C 
ATOM      2  C   UNL     1       4.308   6.773  16.702  0.00  0.00    +0.000 C 
ATOM      3  C   UNL     1       3.543   6.100  17.873  0.00  0.00    +0.000 C 
ATOM      4  N   UNL     1       4.447   5.517  18.892  0.00  0.00    +0.000 NA
ATOM      5  C   UNL     1       5.500   4.676  18.274  0.00  0.00    +0.000 C 
ATOM      6  C   UNL     1       6.350   5.412  17.225  0.00  0.00    +0.000 C 
ENDROOT
BRANCH   3   7
ATOM      7  C   UNL     1       2.604   7.204  18.381  0.00  0.00    +0.000 A 
ATOM      8  C   UNL     1       2.283   8.269  17.525  0.00  0.00    +0.000 A 
ATOM      9  C   UNL     1       1.663   9.419  18.016  0.00  0.00    +0.000 A 
ATOM     10  C   UNL     1       1.334   9.512  19.364  0.00  0.00    +0.000 A 
ATOM     11  C   UNL     1       1.607   8.446  20.221  0.00  0.00    +0.000 A 
ATOM     12  C   UNL     1       2.237   7.297  19.735  0.00  0.00    +0.000 A 
ENDBRANCH   3   7
BRANCH   6  13
ATOM     13  N   UNL     1       7.171   6.475  17.783  0.00  0.00    +0.000 N 
ATOM     14  C   UNL     1       7.424   7.721  17.291  0.00  0.00    +0.000 A 
ATOM     15  C   UNL     1       8.330   8.248  18.171  0.00  0.00    +0.000 A 
ATOM     16  N   UNL     1       8.561   7.362  19.182  0.00  0.00    +0.000 NA
ATOM     17  N   UNL     1       7.822   6.283  18.951  0.00  0.00    +0.000 NA
BRANCH  15  18
ATOM     18  C   UNL     1       8.966   9.604  17.999  0.00  0.00    +0.000 C 
ATOM     19  C   UNL     1       8.139  10.834  18.292  0.00  0.00    +0.000 C 
ATOM     20  C   UNL     1       9.224  10.438  19.235  0.00  0.00    +0.000 C 
ENDBRANCH  15  18
ENDBRANCH   6  13
BRANCH   1  21
ATOM     21  O   UNL     1       4.829   4.793  15.427  0.00  0.00    +0.000 OA
ATOM     22  H   UNL     1       5.554   4.187  15.189  0.00  0.00    +0.000 HD
ENDBRANCH   1  21
BRANCH   4  23
ATOM     23  C   UNL     1       3.748   4.775  19.972  0.00  0.00    +0.000 C 
BRANCH  23  24
ATOM     24  C   UNL     1       2.686   3.812  19.502  0.00  0.00    +0.000 A 
ATOM     25  C   UNL     1       1.318   3.867  19.712  0.00  0.00    +0.000 A 
ATOM     26  C   UNL     1       0.657   2.682  19.282  0.00  0.00    +0.000 A 
ATOM     27  C   UNL     1       1.522   1.808  18.665  0.00  0.00    +0.000 A 
ATOM     28  S   UNL     1       3.109   2.433  18.573  0.00  0.00    +0.000 S 
ENDBRANCH  23  24
ENDBRANCH   4  23
TORSDOF 6
ENDMDL
MODEL 3
REMARK VINA RESULT:      -7.6      2.900      5.629
REMARK  Name = 
REMARK  6 active torsions:
REMARK  status: ('A' for Active; 'I' for Inactive)
REMARK    1  A    between atoms: O_1  and  C_2
REMARK    2  A    between atoms: C_4  and  C_5
REMARK    3  A    between atoms: N_11  and  C_12
REMARK    4  A    between atoms: C_12  and  C_13
REMARK    5  A    between atoms: C_19  and  N_20
REMARK    6  A    between atoms: C_22  and  C_23
REMARK                            x       y       z     vdW  Elec       q    Type
REMARK                         _______ _______ _______ _____ _____    ______ ____
ROOT
ATOM      1  C   UNL     1       6.338   5.312  18.627  0.00  0.00    +0.000 C 
ATOM      2  C   UNL     1       5.128   4.393  18.660  0.00  0.00    +0.000 C 
ATOM      3  C   UNL     1       3.771   5.144  18.599  0.00  0.00    +0.000 C 
ATOM      4  N   UNL     1       3.721   6.158  17.520  0.00  0.00    +0.000 NA
ATOM      5  C   UNL     1       4.916   7.035  17.536  0.00  0.00    +0.000 C 
ATOM      6  C   UNL     1       6.249   6.275  17.437  0.00  0.00    +0.000 C 
ENDROOT
BRANCH   3   7
ATOM      7  C   UNL     1       2.731   4.018  18.493  0.00  0.00    +0.000 A 
ATOM      8  C   UNL     1       1.641   4.017  19.377  0.00  0.00    +0.000 A 
ATOM      9  C   UNL     1       0.825   2.892  19.503  0.00  0.00    +0.000 A 
ATOM     10  C   UNL     1       1.073   1.761  18.732  0.00  0.00    +0.000 A 
ATOM     11  C   UNL     1       2.127   1.760  17.818  0.00  0.00    +0.000 A 
ATOM     12  C   UNL     1       2.952   2.881  17.696  0.00  0.00    +0.000 A 
ENDBRANCH   3   7
BRANCH   6  13
ATOM     13  N   UNL     1       6.444   5.607  16.159  0.00  0.00    +0.000 N 
ATOM     14  C   UNL     1       5.624   4.734  15.507  0.00  0.00    +0.000 A 
ATOM     15  C   UNL     1       6.350   4.354  14.411  0.00  0.00    +0.000 A 
ATOM     16  N   UNL     1       7.537   5.024  14.387  0.00  0.00    +0.000 NA
ATOM     17  N   UNL     1       7.576   5.816  15.453  0.00  0.00    +0.000 NA
BRANCH  15  18
ATOM     18  C   UNL     1       5.875   3.328  13.412  0.00  0.00    +0.000 C 
ATOM     19  C   UNL     1       5.048   3.792  12.236  0.00  0.00    +0.000 C 
ATOM     20  C   UNL     1       6.458   3.360  12.017  0.00  0.00    +0.000 C 
ENDBRANCH  15  18
ENDBRANCH   6  13
BRANCH   1  21
ATOM     21  O   UNL     1       6.406   6.052  19.856  0.00  0.00    +0.000 OA
ATOM     22  H   UNL     1       6.242   5.425  20.584  0.00  0.00    +0.000 HD
ENDBRANCH   1  21
BRANCH   4  23
ATOM     23  C   UNL     1       2.475   6.967  17.501  0.00  0.00    +0.000 C 
BRANCH  23  24
ATOM     24  C   UNL     1       2.153   7.673  18.795  0.00  0.00    +0.000 A 
ATOM     25  C   UNL     1       2.208   7.175  20.086  0.00  0.00    +0.000 A 
ATOM     26  C   UNL     1       1.648   8.073  21.037  0.00  0.00    +0.000 A 
ATOM     27  C   UNL     1       1.280   9.266  20.459  0.00  0.00    +0.000 A 
ATOM     28  S   UNL     1       1.646   9.312  18.791  0.00  0.00    +0.000 S 
ENDBRANCH  23  24
ENDBRANCH   4  23
TORSDOF 6
ENDMDL
MODEL 4
REMARK VINA RESULT:      -7.4      2.868      5.678
REMARK  Name = 
REMARK  6 active torsions:
REMARK  status: ('A' for Active; 'I' for Inactive)
REMARK    1  A    between atoms: O_1  and  C_2
REMARK    2  A    between atoms: C_4  and  C_5
REMARK    3  A    between atoms: N_11  and  C_12
REMARK    4  A    between atoms: C_12  and  C_13
REMARK    5  A    between atoms: C_19  and  N_20
REMARK    6  A    between atoms: C_22  and  C_23
REMARK                            x       y       z     vdW  Elec       q    Type
REMARK                         _______ _______ _______ _____ _____    ______ ____
ROOT
ATOM      1  C   UNL     1       6.666   5.658  18.344  0.00  0.00    +0.000 C 
ATOM      2  C   UNL     1       5.676   4.544  18.643  0.00  0.00    +0.000 C 
ATOM      3  C   UNL     1       4.198   5.018  18.690  0.00  0.00    +0.000 C 
ATOM      4  N   UNL     1       3.823   5.851  17.524  0.00  0.00    +0.000 NA
ATOM      5  C   UNL     1       4.812   6.928  17.279  0.00  0.00    +0.000 C 
ATOM      6  C   UNL     1       6.250   6.420  17.079  0.00  0.00    +0.000 C 
ENDROOT
BRANCH   3   7
ATOM      7  C   UNL     1       3.400   3.716  18.852  0.00  0.00    +0.000 A 
ATOM      8  C   UNL     1       3.237   2.878  17.738  0.00  0.00    +0.000 A 
ATOM      9  C   UNL     1       2.309   1.835  17.758  0.00  0.00    +0.000 A 
ATOM     10  C   UNL     1       1.548   1.601  18.898  0.00  0.00    +0.000 A 
ATOM     11  C   UNL     1       1.727   2.397  20.029  0.00  0.00    +0.000 A 
ATOM     12  C   UNL     1       2.648   3.449  20.010  0.00  0.00    +0.000 A 
ENDBRANCH   3   7
BRANCH   6  13
ATOM     13  N   UNL     1       6.426   5.635  15.867  0.00  0.00    +0.000 N 
ATOM     14  C   UNL     1       5.538   4.821  15.228  0.00  0.00    +0.000 A 
ATOM     15  C   UNL     1       6.267   4.270  14.210  0.00  0.00    +0.000 A 
ATOM     16  N   UNL     1       7.530   4.784  14.215  0.00  0.00    +0.000 NA
ATOM     17  N   UNL     1       7.613   5.647  15.221  0.00  0.00    +0.000 NA
BRANCH  15  18
ATOM     18  C   UNL     1       5.720   3.235  13.259  0.00  0.00    +0.000 C 
ATOM     19  C   UNL     1       4.971   3.703  12.034  0.00  0.00    +0.000 C 
ATOM     20  C   UNL     1       6.337   3.127  11.882  0.00  0.00    +0.000 C 
ENDBRANCH  15  18
ENDBRANCH   6  13
BRANCH   1  21
ATOM     21  O   UNL     1       6.725   6.556  19.463  0.00  0.00    +0.000 OA
ATOM     22  H   UNL     1       5.823   6.895  19.612  0.00  0.00    +0.000 HD
ENDBRANCH   1  21
BRANCH   4  23
ATOM     23  C   UNL     1       2.447   6.406  17.590  0.00  0.00    +0.000 C 
BRANCH  23  24
ATOM     24  C   UNL     1       2.191   7.341  18.746  0.00  0.00    +0.000 A 
ATOM     25  C   UNL     1       2.178   7.053  20.101  0.00  0.00    +0.000 A 
ATOM     26  C   UNL     1       1.709   8.146  20.882  0.00  0.00    +0.000 A 
ATOM     27  C   UNL     1       1.479   9.263  20.113  0.00  0.00    +0.000 A 
ATOM     28  S   UNL     1       1.864   9.002  18.469  0.00  0.00    +0.000 S 
ENDBRANCH  23  24
ENDBRANCH   4  23
TORSDOF 6
ENDMDL
MODEL 5
REMARK VINA RESULT:      -7.2      0.712      1.213
REMARK  Name = 
REMARK  6 active torsions:
REMARK  status: ('A' for Active; 'I' for Inactive)
REMARK    1  A    between atoms: O_1  and  C_2
REMARK    2  A    between atoms: C_4  and  C_5
REMARK    3  A    between atoms: N_11  and  C_12
REMARK    4  A    between atoms: C_12  and  C_13
REMARK    5  A    between atoms: C_19  and  N_20
REMARK    6  A    between atoms: C_22  and  C_23
REMARK                            x       y       z     vdW  Elec       q    Type
REMARK                         _______ _______ _______ _____ _____    ______ ____
ROOT
ATOM      1  C   UNL     1       5.285   6.061  16.215  0.00  0.00    +0.000 C 
ATOM      2  C   UNL     1       4.261   6.999  16.832  0.00  0.00    +0.000 C 
ATOM      3  C   UNL     1       3.470   6.371  18.012  0.00  0.00    +0.000 C 
ATOM      4  N   UNL     1       4.347   5.709  19.006  0.00  0.00    +0.000 NA
ATOM      5  C   UNL     1       5.320   4.797  18.357  0.00  0.00    +0.000 C 
ATOM      6  C   UNL     1       6.203   5.480  17.299  0.00  0.00    +0.000 C 
ENDROOT
BRANCH   3   7
ATOM      7  C   UNL     1       2.628   7.537  18.551  0.00  0.00    +0.000 A 
ATOM      8  C   UNL     1       2.168   7.484  19.877  0.00  0.00    +0.000 A 
ATOM      9  C   UNL     1       1.190   8.371  20.329  0.00  0.00    +0.000 A 
ATOM     10  C   UNL     1       0.674   9.336  19.471  0.00  0.00    +0.000 A 
ATOM     11  C   UNL     1       1.150   9.430  18.164  0.00  0.00    +0.000 A 
ATOM     12  C   UNL     1       2.122   8.538  17.704  0.00  0.00    +0.000 A 
ENDBRANCH   3   7
BRANCH   6  13
ATOM     13  N   UNL     1       7.114   6.470  17.852  0.00  0.00    +0.000 N 
ATOM     14  C   UNL     1       7.403   7.724  17.402  0.00  0.00    +0.000 A 
ATOM     15  C   UNL     1       8.389   8.160  18.245  0.00  0.00    +0.000 A 
ATOM     16  N   UNL     1       8.635   7.214  19.197  0.00  0.00    +0.000 NA
ATOM     17  N   UNL     1       7.825   6.187  18.965  0.00  0.00    +0.000 NA
BRANCH  15  18
ATOM     18  C   UNL     1       9.086   9.489  18.096  0.00  0.00    +0.000 C 
ATOM     19  C   UNL     1       8.277  10.754  18.265  0.00  0.00    +0.000 C 
ATOM     20  C   UNL     1       9.248  10.357  19.324  0.00  0.00    +0.000 C 
ENDBRANCH  15  18
ENDBRANCH   6  13
BRANCH   1  21
ATOM     21  O   UNL     1       4.605   5.000  15.526  0.00  0.00    +0.000 OA
ATOM     22  H   UNL     1       5.035   4.164  15.781  0.00  0.00    +0.000 HD
ENDBRANCH   1  21
BRANCH   4  23
ATOM     23  C   UNL     1       3.615   5.008  20.092  0.00  0.00    +0.000 C 
BRANCH  23  24
ATOM     24  C   UNL     1       2.768   3.843  19.644  0.00  0.00    +0.000 A 
ATOM     25  C   UNL     1       3.175   2.662  19.046  0.00  0.00    +0.000 A 
ATOM     26  C   UNL     1       2.076   1.881  18.589  0.00  0.00    +0.000 A 
ATOM     27  C   UNL     1       0.870   2.438  18.942  0.00  0.00    +0.000 A 
ATOM     28  S   UNL     1       1.066   3.871  19.852  0.00  0.00    +0.000 S 
ENDBRANCH  23  24
ENDBRANCH   4  23
TORSDOF 6
ENDMDL
MODEL 6
REMARK VINA RESULT:      -7.2      0.723      1.256
REMARK  Name = 
REMARK  6 active torsions:
REMARK  status: ('A' for Active; 'I' for Inactive)
REMARK    1  A    between atoms: O_1  and  C_2
REMARK    2  A    between atoms: C_4  and  C_5
REMARK    3  A    between atoms: N_11  and  C_12
REMARK    4  A    between atoms: C_12  and  C_13
REMARK    5  A    between atoms: C_19  and  N_20
REMARK    6  A    between atoms: C_22  and  C_23
REMARK                            x       y       z     vdW  Elec       q    Type
REMARK                         _______ _______ _______ _____ _____    ______ ____
ROOT
ATOM      1  C   UNL     1       5.422   6.557  16.077  0.00  0.00    +0.000 C 
ATOM      2  C   UNL     1       4.320   7.381  16.722  0.00  0.00    +0.000 C 
ATOM      3  C   UNL     1       3.582   6.645  17.872  0.00  0.00    +0.000 C 
ATOM      4  N   UNL     1       4.509   6.022  18.847  0.00  0.00    +0.000 NA
ATOM      5  C   UNL     1       5.558   5.221  18.170  0.00  0.00    +0.000 C 
ATOM      6  C   UNL     1       6.383   6.015  17.144  0.00  0.00    +0.000 C 
ENDROOT
BRANCH   3   7
ATOM      7  C   UNL     1       2.642   7.714  18.450  0.00  0.00    +0.000 A 
ATOM      8  C   UNL     1       2.212   7.591  19.780  0.00  0.00    +0.000 A 
ATOM      9  C   UNL     1       1.161   8.371  20.267  0.00  0.00    +0.000 A 
ATOM     10  C   UNL     1       0.542   9.300  19.438  0.00  0.00    +0.000 A 
ATOM     11  C   UNL     1       0.985   9.465  18.126  0.00  0.00    +0.000 A 
ATOM     12  C   UNL     1       2.030   8.679  17.632  0.00  0.00    +0.000 A 
ENDBRANCH   3   7
BRANCH   6  13
ATOM     13  N   UNL     1       7.205   7.057  17.739  0.00  0.00    +0.000 N 
ATOM     14  C   UNL     1       7.247   8.391  17.456  0.00  0.00    +0.000 A 
ATOM     15  C   UNL     1       8.261   8.864  18.244  0.00  0.00    +0.000 A 
ATOM     16  N   UNL     1       8.763   7.853  19.009  0.00  0.00    +0.000 NA
ATOM     17  N   UNL     1       8.088   6.748  18.713  0.00  0.00    +0.000 NA
BRANCH  15  18
ATOM     18  C   UNL     1       8.733  10.296  18.224  0.00  0.00    +0.000 C 
ATOM     19  C   UNL     1       9.435  10.845  19.444  0.00  0.00    +0.000 C 
ATOM     20  C   UNL     1      10.222  10.562  18.210  0.00  0.00    +0.000 C 
ENDBRANCH  15  18
ENDBRANCH   6  13
BRANCH   1  21
ATOM     21  O   UNL     1       4.836   5.470  15.344  0.00  0.00    +0.000 OA
ATOM     22  H   UNL     1       4.844   4.688  15.927  0.00  0.00    +0.000 HD
ENDBRANCH   1  21
BRANCH   4  23
ATOM     23  C   UNL     1       3.835   5.222  19.902  0.00  0.00    +0.000 C 
BRANCH  23  24
ATOM     24  C   UNL     1       2.976   4.091  19.394  0.00  0.00    +0.000 A 
ATOM     25  C   UNL     1       1.617   4.093  19.126  0.00  0.00    +0.000 A 
ATOM     26  C   UNL     1       1.118   2.790  18.846  0.00  0.00    +0.000 A 
ATOM     27  C   UNL     1       2.125   1.854  18.806  0.00  0.00    +0.000 A 
ATOM     28  S   UNL     1       3.663   2.553  19.066  0.00  0.00    +0.000 S 
ENDBRANCH  23  24
ENDBRANCH   4  23
TORSDOF 6
ENDMDL
MODEL 7
REMARK VINA RESULT:      -7.1      6.242      9.949
REMARK  Name = 
REMARK  6 active torsions:
REMARK  status: ('A' for Active; 'I' for Inactive)
REMARK    1  A    between atoms: O_1  and  C_2
REMARK    2  A    between atoms: C_4  and  C_5
REMARK    3  A    between atoms: N_11  and  C_12
REMARK    4  A    between atoms: C_12  and  C_13
REMARK    5  A    between atoms: C_19  and  N_20
REMARK    6  A    between atoms: C_22  and  C_23
REMARK                            x       y       z     vdW  Elec       q    Type
REMARK                         _______ _______ _______ _____ _____    ______ ____
ROOT
ATOM      1  C   UNL     1      -1.936  11.486  18.177  0.00  0.00    +0.000 C 
ATOM      2  C   UNL     1      -0.967  10.366  18.515  0.00  0.00    +0.000 C 
ATOM      3  C   UNL     1       0.521  10.729  18.262  0.00  0.00    +0.000 C 
ATOM      4  N   UNL     1       0.901  12.040  18.840  0.00  0.00    +0.000 NA
ATOM      5  C   UNL     1      -0.069  13.101  18.474  0.00  0.00    +0.000 C 
ATOM      6  C   UNL     1      -1.519  12.787  18.876  0.00  0.00    +0.000 C 
ENDROOT
BRANCH   3   7
ATOM      7  C   UNL     1       1.294   9.520  18.810  0.00  0.00    +0.000 A 
ATOM      8  C   UNL     1       2.003   8.706  17.914  0.00  0.00    +0.000 A 
ATOM      9  C   UNL     1       2.492   7.461  18.314  0.00  0.00    +0.000 A 
ATOM     10  C   UNL     1       2.298   7.022  19.619  0.00  0.00    +0.000 A 
ATOM     11  C   UNL     1       1.633   7.838  20.535  0.00  0.00    +0.000 A 
ATOM     12  C   UNL     1       1.133   9.080  20.136  0.00  0.00    +0.000 A 
ENDBRANCH   3   7
BRANCH   6  13
ATOM     13  N   UNL     1      -1.726  12.740  20.315  0.00  0.00    +0.000 N 
ATOM     14  C   UNL     1      -2.837  12.375  21.017  0.00  0.00    +0.000 A 
ATOM     15  C   UNL     1      -2.500  12.616  22.321  0.00  0.00    +0.000 A 
ATOM     16  N   UNL     1      -1.211  13.057  22.391  0.00  0.00    +0.000 NA
ATOM     17  N   UNL     1      -0.731  13.104  21.154  0.00  0.00    +0.000 NA
BRANCH  15  18
ATOM     18  C   UNL     1      -3.451  12.427  23.476  0.00  0.00    +0.000 C 
ATOM     19  C   UNL     1      -3.487  13.475  24.563  0.00  0.00    +0.000 C 
ATOM     20  C   UNL     1      -4.624  13.373  23.604  0.00  0.00    +0.000 C 
ENDBRANCH  15  18
ENDBRANCH   6  13
BRANCH   1  21
ATOM     21  O   UNL     1      -1.963  11.680  16.754  0.00  0.00    +0.000 OA
ATOM     22  H   UNL     1      -1.065  11.501  16.419  0.00  0.00    +0.000 HD
ENDBRANCH   1  21
BRANCH   4  23
ATOM     23  C   UNL     1       2.289  12.465  18.526  0.00  0.00    +0.000 C 
BRANCH  23  24
ATOM     24  C   UNL     1       2.785  13.655  19.309  0.00  0.00    +0.000 A 
ATOM     25  C   UNL     1       2.915  13.791  20.681  0.00  0.00    +0.000 A 
ATOM     26  C   UNL     1       3.233  15.124  21.065  0.00  0.00    +0.000 A 
ATOM     27  C   UNL     1       3.437  15.936  19.974  0.00  0.00    +0.000 A 
ATOM     28  S   UNL     1       3.284  15.084  18.500  0.00  0.00    +0.000 S 
ENDBRANCH  23  24
ENDBRANCH   4  23
TORSDOF 6
ENDMDL
MODEL 8
REMARK VINA RESULT:      -7.1      2.964      5.718
REMARK  Name = 
REMARK  6 active torsions:
REMARK  status: ('A' for Active; 'I' for Inactive)
REMARK    1  A    between atoms: O_1  and  C_2
REMARK    2  A    between atoms: C_4  and  C_5
REMARK    3  A    between atoms: N_11  and  C_12
REMARK    4  A    between atoms: C_12  and  C_13
REMARK    5  A    between atoms: C_19  and  N_20
REMARK    6  A    between atoms: C_22  and  C_23
REMARK                            x       y       z     vdW  Elec       q    Type
REMARK                         _______ _______ _______ _____ _____    ______ ____
ROOT
ATOM      1  C   UNL     1       6.596   4.990  18.825  0.00  0.00    +0.000 C 
ATOM      2  C   UNL     1       5.474   4.008  19.117  0.00  0.00    +0.000 C 
ATOM      3  C   UNL     1       4.194   4.673  19.691  0.00  0.00    +0.000 C 
ATOM      4  N   UNL     1       3.762   5.858  18.913  0.00  0.00    +0.000 NA
ATOM      5  C   UNL     1       4.888   6.790  18.663  0.00  0.00    +0.000 C 
ATOM      6  C   UNL     1       6.087   6.143  17.950  0.00  0.00    +0.000 C 
ENDROOT
BRANCH   3   7
ATOM      7  C   UNL     1       3.179   3.523  19.756  0.00  0.00    +0.000 A 
ATOM      8  C   UNL     1       2.850   2.842  18.573  0.00  0.00    +0.000 A 
ATOM      9  C   UNL     1       1.751   1.982  18.525  0.00  0.00    +0.000 A 
ATOM     10  C   UNL     1       0.979   1.774  19.663  0.00  0.00    +0.000 A 
ATOM     11  C   UNL     1       1.317   2.410  20.858  0.00  0.00    +0.000 A 
ATOM     12  C   UNL     1       2.410   3.279  20.907  0.00  0.00    +0.000 A 
ENDBRANCH   3   7
BRANCH   6  13
ATOM     13  N   UNL     1       5.797   5.727  16.587  0.00  0.00    +0.000 N 
ATOM     14  C   UNL     1       5.883   4.487  16.026  0.00  0.00    +0.000 A 
ATOM     15  C   UNL     1       5.589   4.699  14.706  0.00  0.00    +0.000 A 
ATOM     16  N   UNL     1       5.284   6.013  14.506  0.00  0.00    +0.000 NA
ATOM     17  N   UNL     1       5.386   6.635  15.675  0.00  0.00    +0.000 NA
BRANCH  15  18
ATOM     18  C   UNL     1       5.626   3.615  13.659  0.00  0.00    +0.000 C 
ATOM     19  C   UNL     1       5.033   3.900  12.299  0.00  0.00    +0.000 C 
ATOM     20  C   UNL     1       6.514   3.814  12.450  0.00  0.00    +0.000 C 
ENDBRANCH  15  18
ENDBRANCH   6  13
BRANCH   1  21
ATOM     21  O   UNL     1       7.113   5.503  20.063  0.00  0.00    +0.000 OA
ATOM     22  H   UNL     1       7.422   4.741  20.587  0.00  0.00    +0.000 HD
ENDBRANCH   1  21
BRANCH   4  23
ATOM     23  C   UNL     1       2.602   6.579  19.497  0.00  0.00    +0.000 C 
BRANCH  23  24
ATOM     24  C   UNL     1       2.279   7.901  18.845  0.00  0.00    +0.000 A 
ATOM     25  C   UNL     1       2.668   8.367  17.600  0.00  0.00    +0.000 A 
ATOM     26  C   UNL     1       2.333   9.736  17.406  0.00  0.00    +0.000 A 
ATOM     27  C   UNL     1       1.609  10.241  18.461  0.00  0.00    +0.000 A 
ATOM     28  S   UNL     1       1.306   9.058  19.656  0.00  0.00    +0.000 S 
ENDBRANCH  23  24
ENDBRANCH   4  23
TORSDOF 6
ENDMDL
MODEL 9
REMARK VINA RESULT:      -7.0      6.209      9.700
REMARK  Name = 
REMARK  6 active torsions:
REMARK  status: ('A' for Active; 'I' for Inactive)
REMARK    1  A    between atoms: O_1  and  C_2
REMARK    2  A    between atoms: C_4  and  C_5
REMARK    3  A    between atoms: N_11  and  C_12
REMARK    4  A    between atoms: C_12  and  C_13
REMARK    5  A    between atoms: C_19  and  N_20
REMARK    6  A    between atoms: C_22  and  C_23
REMARK                            x       y       z     vdW  Elec       q    Type
REMARK                         _______ _______ _______ _____ _____    ______ ____
ROOT
ATOM      1  C   UNL     1      -1.955  11.495  18.045  0.00  0.00    +0.000 C 
ATOM      2  C   UNL     1      -1.024  10.391  18.517  0.00  0.00    +0.000 C 
ATOM      3  C   UNL     1       0.478  10.693  18.272  0.00  0.00    +0.000 C 
ATOM      4  N   UNL     1       0.877  12.044  18.731  0.00  0.00    +0.000 NA
ATOM      5  C   UNL     1      -0.055  13.087  18.237  0.00  0.00    +0.000 C 
ATOM      6  C   UNL     1      -1.523  12.848  18.627  0.00  0.00    +0.000 C 
ENDROOT
BRANCH   3   7
ATOM      7  C   UNL     1       1.205   9.526  18.957  0.00  0.00    +0.000 A 
ATOM      8  C   UNL     1       1.976   8.654  18.172  0.00  0.00    +0.000 A 
ATOM      9  C   UNL     1       2.431   7.439  18.690  0.00  0.00    +0.000 A 
ATOM     10  C   UNL     1       2.140   7.090  20.005  0.00  0.00    +0.000 A 
ATOM     11  C   UNL     1       1.410   7.964  20.811  0.00  0.00    +0.000 A 
ATOM     12  C   UNL     1       0.945   9.176  20.293  0.00  0.00    +0.000 A 
ENDBRANCH   3   7
BRANCH   6  13
ATOM     13  N   UNL     1      -1.768  12.947  20.057  0.00  0.00    +0.000 N 
ATOM     14  C   UNL     1      -1.075  13.638  21.007  0.00  0.00    +0.000 A 
ATOM     15  C   UNL     1      -1.689  13.294  22.181  0.00  0.00    +0.000 A 
ATOM     16  N   UNL     1      -2.745  12.469  21.926  0.00  0.00    +0.000 NA
ATOM     17  N   UNL     1      -2.805  12.283  20.612  0.00  0.00    +0.000 NA
BRANCH  15  18
ATOM     18  C   UNL     1      -1.221  13.765  23.535  0.00  0.00    +0.000 C 
ATOM     19  C   UNL     1      -0.908  15.231  23.723  0.00  0.00    +0.000 C 
ATOM     20  C   UNL     1      -2.138  14.658  24.341  0.00  0.00    +0.000 C 
ENDBRANCH  15  18
ENDBRANCH   6  13
BRANCH   1  21
ATOM     21  O   UNL     1      -1.940  11.550  16.610  0.00  0.00    +0.000 OA
ATOM     22  H   UNL     1      -1.214  12.145  16.348  0.00  0.00    +0.000 HD
ENDBRANCH   1  21
BRANCH   4  23
ATOM     23  C   UNL     1       2.283  12.404  18.416  0.00  0.00    +0.000 C 
BRANCH  23  24
ATOM     24  C   UNL     1       2.744  13.728  18.975  0.00  0.00    +0.000 A 
ATOM     25  C   UNL     1       3.106  14.874  18.287  0.00  0.00    +0.000 A 
ATOM     26  C   UNL     1       3.669  15.863  19.142  0.00  0.00    +0.000 A 
ATOM     27  C   UNL     1       3.624  15.482  20.463  0.00  0.00    +0.000 A 
ATOM     28  S   UNL     1       2.872  13.962  20.669  0.00  0.00    +0.000 S 
ENDBRANCH  23  24
ENDBRANCH   4  23
TORSDOF 6
ENDMDL
