MODEL 1
REMARK VINA RESULT:      -4.8      0.000      0.000
REMARK  Name = 
REMARK  4 active torsions:
REMARK  status: ('A' for Active; 'I' for Inactive)
REMARK    1  A    between atoms: C_1  and  C_2
REMARK    2  A    between atoms: C_2  and  C_3
REMARK    3  A    between atoms: CA_6  and  C_7
REMARK    4  A    between atoms: C_7  and  O_8
REMARK                            x       y       z     vdW  Elec       q    Type
REMARK                         _______ _______ _______ _____ _____    ______ ____
ROOT
ATOM      1  C   UNL     1       3.281   5.492  19.562  0.00  0.00    +0.000 C 
ATOM      2  C   UNL     1       3.415   4.584  18.326  0.00  0.00    +0.000 C 
ATOM      3  C   UNL     1       2.033   4.365  17.709  0.00  0.00    +0.000 C 
ATOM      4  C   UNL     1       4.111   3.264  18.668  0.00  0.00    +0.000 C 
ATOM      5  N   UNL     1       5.535   3.607  18.755  0.00  0.00    +0.000 NA
ATOM      6  CA  UNL     1       5.773   4.748  17.845  0.00  0.00    +0.000 C 
ATOM      7  C   UNL     1       4.404   5.170  17.314  0.00  0.00    +0.000 C 
ATOM      8  H   UNL     1       6.122   2.816  18.497  0.00  0.00    +0.000 HD
ENDROOT
BRANCH   6   9
ATOM      9  C   UNL     1       6.772   4.432  16.721  0.00  0.00    +0.000 C 
BRANCH   9  10
ATOM     10  O   UNL     1       8.066   4.142  17.252  0.00  0.00    +0.000 OA
ATOM     11  H   UNL     1       7.984   3.342  17.798  0.00  0.00    +0.000 HD
ENDBRANCH   9  10
ENDBRANCH   6   9
TORSDOF 2
ENDMDL
MODEL 2
REMARK VINA RESULT:      -4.7      1.701      2.118
REMARK  Name = 
REMARK  4 active torsions:
REMARK  status: ('A' for Active; 'I' for Inactive)
REMARK    1  A    between atoms: C_1  and  C_2
REMARK    2  A    between atoms: C_2  and  C_3
REMARK    3  A    between atoms: CA_6  and  C_7
REMARK    4  A    between atoms: C_7  and  O_8
REMARK                            x       y       z     vdW  Elec       q    Type
REMARK                         _______ _______ _______ _____ _____    ______ ____
ROOT
ATOM      1  C   UNL     1       2.252   2.831  20.941  0.00  0.00    +0.000 C 
ATOM      2  C   UNL     1       2.529   2.828  19.426  0.00  0.00    +0.000 C 
ATOM      3  C   UNL     1       1.236   2.503  18.677  0.00  0.00    +0.000 C 
ATOM      4  C   UNL     1       3.664   1.867  19.062  0.00  0.00    +0.000 C 
ATOM      5  N   UNL     1       4.889   2.583  19.436  0.00  0.00    +0.000 NA
ATOM      6  CA  UNL     1       4.617   4.029  19.304  0.00  0.00    +0.000 C 
ATOM      7  C   UNL     1       3.131   4.161  18.972  0.00  0.00    +0.000 C 
ATOM      8  H   UNL     1       5.671   2.311  18.843  0.00  0.00    +0.000 HD
ENDROOT
BRANCH   6   9
ATOM      9  C   UNL     1       5.518   4.727  18.272  0.00  0.00    +0.000 C 
BRANCH   9  10
ATOM     10  O   UNL     1       6.805   4.110  18.215  0.00  0.00    +0.000 OA
ATOM     11  H   UNL     1       7.111   4.160  17.293  0.00  0.00    +0.000 HD
ENDBRANCH   9  10
ENDBRANCH   6   9
TORSDOF 2
ENDMDL
MODEL 3
REMARK VINA RESULT:      -4.7      1.065      1.134
REMARK  Name = 
REMARK  4 active torsions:
REMARK  status: ('A' for Active; 'I' for Inactive)
REMARK    1  A    between atoms: C_1  and  C_2
REMARK    2  A    between atoms: C_2  and  C_3
REMARK    3  A    between atoms: CA_6  and  C_7
REMARK    4  A    between atoms: C_7  and  O_8
REMARK                            x       y       z     vdW  Elec       q    Type
REMARK                         _______ _______ _______ _____ _____    ______ ____
ROOT
ATOM      1  C   UNL     1       2.540   4.203  20.180  0.00  0.00    +0.000 C 
ATOM      2  C   UNL     1       3.113   4.228  18.751  0.00  0.00    +0.000 C 
ATOM      3  C   UNL     1       1.962   4.318  17.747  0.00  0.00    +0.000 C 
ATOM      4  C   UNL     1       4.019   3.022  18.484  0.00  0.00    +0.000 C 
ATOM      5  N   UNL     1       5.281   3.352  19.156  0.00  0.00    +0.000 NA
ATOM      6  CA  UNL     1       5.416   4.824  19.152  0.00  0.00    +0.000 C 
ATOM      7  C   UNL     1       4.112   5.375  18.576  0.00  0.00    +0.000 C 
ATOM      8  H   UNL     1       6.073   2.919  18.687  0.00  0.00    +0.000 HD
ENDROOT
BRANCH   6   9
ATOM      9  C   UNL     1       6.656   5.319  18.391  0.00  0.00    +0.000 C 
BRANCH   9  10
ATOM     10  O   UNL     1       7.550   4.241  18.112  0.00  0.00    +0.000 OA
ATOM     11  H   UNL     1       7.238   3.467  18.613  0.00  0.00    +0.000 HD
ENDBRANCH   9  10
ENDBRANCH   6   9
TORSDOF 2
ENDMDL
MODEL 4
REMARK VINA RESULT:      -4.5      2.492      3.275
REMARK  Name = 
REMARK  4 active torsions:
REMARK  status: ('A' for Active; 'I' for Inactive)
REMARK    1  A    between atoms: C_1  and  C_2
REMARK    2  A    between atoms: C_2  and  C_3
REMARK    3  A    between atoms: CA_6  and  C_7
REMARK    4  A    between atoms: C_7  and  O_8
REMARK                            x       y       z     vdW  Elec       q    Type
REMARK                         _______ _______ _______ _____ _____    ______ ____
ROOT
ATOM      1  C   UNL     1       0.901   2.681  19.146  0.00  0.00    +0.000 C 
ATOM      2  C   UNL     1       1.793   3.270  20.254  0.00  0.00    +0.000 C 
ATOM      3  C   UNL     1       1.397   2.659  21.600  0.00  0.00    +0.000 C 
ATOM      4  C   UNL     1       1.732   4.800  20.275  0.00  0.00    +0.000 C 
ATOM      5  N   UNL     1       2.586   5.219  19.158  0.00  0.00    +0.000 NA
ATOM      6  CA  UNL     1       3.625   4.184  18.980  0.00  0.00    +0.000 C 
ATOM      7  C   UNL     1       3.276   3.051  19.944  0.00  0.00    +0.000 C 
ATOM      8  H   UNL     1       3.011   6.126  19.339  0.00  0.00    +0.000 HD
ENDROOT
BRANCH   6   9
ATOM      9  C   UNL     1       5.054   4.715  19.181  0.00  0.00    +0.000 C 
BRANCH   9  10
ATOM     10  O   UNL     1       6.017   3.820  18.624  0.00  0.00    +0.000 OA
ATOM     11  H   UNL     1       6.491   4.301  17.924  0.00  0.00    +0.000 HD
ENDBRANCH   9  10
ENDBRANCH   6   9
TORSDOF 2
ENDMDL
MODEL 5
REMARK VINA RESULT:      -4.5      3.164      3.692
REMARK  Name = 
REMARK  4 active torsions:
REMARK  status: ('A' for Active; 'I' for Inactive)
REMARK    1  A    between atoms: C_1  and  C_2
REMARK    2  A    between atoms: C_2  and  C_3
REMARK    3  A    between atoms: CA_6  and  C_7
REMARK    4  A    between atoms: C_7  and  O_8
REMARK                            x       y       z     vdW  Elec       q    Type
REMARK                         _______ _______ _______ _____ _____    ______ ____
ROOT
ATOM      1  C   UNL     1       1.557   2.722  21.693  0.00  0.00    +0.000 C 
ATOM      2  C   UNL     1       1.711   3.513  20.381  0.00  0.00    +0.000 C 
ATOM      3  C   UNL     1       1.461   4.997  20.653  0.00  0.00    +0.000 C 
ATOM      4  C   UNL     1       0.796   2.966  19.281  0.00  0.00    +0.000 C 
ATOM      5  N   UNL     1       1.473   1.754  18.805  0.00  0.00    +0.000 NA
ATOM      6  CA  UNL     1       2.925   1.950  19.001  0.00  0.00    +0.000 C 
ATOM      7  C   UNL     1       3.085   3.274  19.749  0.00  0.00    +0.000 C 
ATOM      8  H   UNL     1       1.265   1.577  17.824  0.00  0.00    +0.000 HD
ENDROOT
BRANCH   6   9
ATOM      9  C   UNL     1       3.727   1.909  17.691  0.00  0.00    +0.000 C 
BRANCH   9  10
ATOM     10  O   UNL     1       4.611   3.027  17.596  0.00  0.00    +0.000 OA
ATOM     11  H   UNL     1       4.063   3.824  17.494  0.00  0.00    +0.000 HD
ENDBRANCH   9  10
ENDBRANCH   6   9
TORSDOF 2
ENDMDL
MODEL 6
REMARK VINA RESULT:      -4.5      2.636      3.667
REMARK  Name = 
REMARK  4 active torsions:
REMARK  status: ('A' for Active; 'I' for Inactive)
REMARK    1  A    between atoms: C_1  and  C_2
REMARK    2  A    between atoms: C_2  and  C_3
REMARK    3  A    between atoms: CA_6  and  C_7
REMARK    4  A    between atoms: C_7  and  O_8
REMARK                            x       y       z     vdW  Elec       q    Type
REMARK                         _______ _______ _______ _____ _____    ______ ____
ROOT
ATOM      1  C   UNL     1       5.548   5.242  18.895  0.00  0.00    +0.000 C 
ATOM      2  C   UNL     1       6.772   5.696  18.078  0.00  0.00    +0.000 C 
ATOM      3  C   UNL     1       7.944   5.953  19.026  0.00  0.00    +0.000 C 
ATOM      4  C   UNL     1       6.451   6.918  17.213  0.00  0.00    +0.000 C 
ATOM      5  N   UNL     1       5.703   6.378  16.073  0.00  0.00    +0.000 NA
ATOM      6  CA  UNL     1       6.169   4.993  15.852  0.00  0.00    +0.000 C 
ATOM      7  C   UNL     1       7.127   4.671  16.998  0.00  0.00    +0.000 C 
ATOM      8  H   UNL     1       5.847   6.941  15.237  0.00  0.00    +0.000 HD
ENDROOT
BRANCH   6   9
ATOM      9  C   UNL     1       6.806   4.778  14.469  0.00  0.00    +0.000 C 
BRANCH   9  10
ATOM     10  O   UNL     1       7.986   5.568  14.321  0.00  0.00    +0.000 OA
ATOM     11  H   UNL     1       8.717   4.962  14.108  0.00  0.00    +0.000 HD
ENDBRANCH   9  10
ENDBRANCH   6   9
TORSDOF 2
ENDMDL
MODEL 7
REMARK VINA RESULT:      -4.5      2.640      3.711
REMARK  Name = 
REMARK  4 active torsions:
REMARK  status: ('A' for Active; 'I' for Inactive)
REMARK    1  A    between atoms: C_1  and  C_2
REMARK    2  A    between atoms: C_2  and  C_3
REMARK    3  A    between atoms: CA_6  and  C_7
REMARK    4  A    between atoms: C_7  and  O_8
REMARK                            x       y       z     vdW  Elec       q    Type
REMARK                         _______ _______ _______ _____ _____    ______ ____
ROOT
ATOM      1  C   UNL     1       5.688   3.940  15.939  0.00  0.00    +0.000 C 
ATOM      2  C   UNL     1       4.911   4.671  17.049  0.00  0.00    +0.000 C 
ATOM      3  C   UNL     1       4.780   6.150  16.684  0.00  0.00    +0.000 C 
ATOM      4  C   UNL     1       5.563   4.471  18.420  0.00  0.00    +0.000 C 
ATOM      5  N   UNL     1       5.165   3.118  18.826  0.00  0.00    +0.000 NA
ATOM      6  CA  UNL     1       3.854   2.835  18.203  0.00  0.00    +0.000 C 
ATOM      7  C   UNL     1       3.546   4.020  17.289  0.00  0.00    +0.000 C 
ATOM      8  H   UNL     1       5.104   3.039  19.839  0.00  0.00    +0.000 HD
ENDROOT
BRANCH   6   9
ATOM      9  C   UNL     1       2.739   2.571  19.227  0.00  0.00    +0.000 C 
BRANCH   9  10
ATOM     10  O   UNL     1       1.907   1.487  18.811  0.00  0.00    +0.000 OA
ATOM     11  H   UNL     1       1.015   1.846  18.661  0.00  0.00    +0.000 HD
ENDBRANCH   9  10
ENDBRANCH   6   9
TORSDOF 2
ENDMDL
MODEL 8
REMARK VINA RESULT:      -4.5      2.460      3.212
REMARK  Name = 
REMARK  4 active torsions:
REMARK  status: ('A' for Active; 'I' for Inactive)
REMARK    1  A    between atoms: C_1  and  C_2
REMARK    2  A    between atoms: C_2  and  C_3
REMARK    3  A    between atoms: CA_6  and  C_7
REMARK    4  A    between atoms: C_7  and  O_8
REMARK                            x       y       z     vdW  Elec       q    Type
REMARK                         _______ _______ _______ _____ _____    ______ ____
ROOT
ATOM      1  C   UNL     1       4.992   5.836  16.591  0.00  0.00    +0.000 C 
ATOM      2  C   UNL     1       4.098   5.511  17.802  0.00  0.00    +0.000 C 
ATOM      3  C   UNL     1       3.222   6.724  18.122  0.00  0.00    +0.000 C 
ATOM      4  C   UNL     1       4.925   5.062  19.010  0.00  0.00    +0.000 C 
ATOM      5  N   UNL     1       5.286   3.671  18.715  0.00  0.00    +0.000 NA
ATOM      6  CA  UNL     1       4.213   3.103  17.871  0.00  0.00    +0.000 C 
ATOM      7  C   UNL     1       3.261   4.255  17.550  0.00  0.00    +0.000 C 
ATOM      8  H   UNL     1       5.393   3.128  19.569  0.00  0.00    +0.000 HD
ENDROOT
BRANCH   6   9
ATOM      9  C   UNL     1       3.499   1.906  18.519  0.00  0.00    +0.000 C 
BRANCH   9  10
ATOM     10  O   UNL     1       2.244   1.654  17.885  0.00  0.00    +0.000 OA
ATOM     11  H   UNL     1       1.550   1.782  18.555  0.00  0.00    +0.000 HD
ENDBRANCH   9  10
ENDBRANCH   6   9
TORSDOF 2
ENDMDL
MODEL 9
REMARK VINA RESULT:      -4.5      1.707      2.188
REMARK  Name = 
REMARK  4 active torsions:
REMARK  status: ('A' for Active; 'I' for Inactive)
REMARK    1  A    between atoms: C_1  and  C_2
REMARK    2  A    between atoms: C_2  and  C_3
REMARK    3  A    between atoms: CA_6  and  C_7
REMARK    4  A    between atoms: C_7  and  O_8
REMARK                            x       y       z     vdW  Elec       q    Type
REMARK                         _______ _______ _______ _____ _____    ______ ____
ROOT
ATOM      1  C   UNL     1       3.753   2.925  18.330  0.00  0.00    +0.000 C 
ATOM      2  C   UNL     1       4.030   4.416  18.062  0.00  0.00    +0.000 C 
ATOM      3  C   UNL     1       2.700   5.159  17.920  0.00  0.00    +0.000 C 
ATOM      4  C   UNL     1       4.933   4.612  16.841  0.00  0.00    +0.000 C 
ATOM      5  N   UNL     1       6.282   4.294  17.323  0.00  0.00    +0.000 NA
ATOM      6  CA  UNL     1       6.328   4.625  18.763  0.00  0.00    +0.000 C 
ATOM      7  C   UNL     1       4.906   5.021  19.161  0.00  0.00    +0.000 C 
ATOM      8  H   UNL     1       6.990   4.819  16.813  0.00  0.00    +0.000 HD
ENDROOT
BRANCH   6   9
ATOM      9  C   UNL     1       7.363   5.709  19.105  0.00  0.00    +0.000 C 
BRANCH   9  10
ATOM     10  O   UNL     1       7.931   5.487  20.397  0.00  0.00    +0.000 OA
ATOM     11  H   UNL     1       7.574   4.645  20.730  0.00  0.00    +0.000 HD
ENDBRANCH   9  10
ENDBRANCH   6   9
TORSDOF 2
ENDMDL
