MODEL 1
REMARK VINA RESULT:      -7.6      0.000      0.000
REMARK  Name = 
REMARK  11 active torsions:
REMARK  status: ('A' for Active; 'I' for Inactive)
REMARK    1  A    between atoms: C_1  and  O_2
REMARK    2  A    between atoms: O_2  and  C_3
REMARK    3  A    between atoms: C_3  and  C_5
REMARK    4  A    between atoms: C_5  and  C_6
REMARK    5  A    between atoms: C_6  and  N_7
REMARK    6  A    between atoms: C_12  and  C_13
REMARK    7  A    between atoms: C_16  and  C_17
REMARK    8  A    between atoms: C_20  and  O_21
REMARK    9  A    between atoms: C_22  and  C_23
REMARK   10  A    between atoms: C_23  and  O_25
REMARK   11  A    between atoms: O_25  and  C_26
REMARK                            x       y       z     vdW  Elec       q    Type
REMARK                         _______ _______ _______ _____ _____    ______ ____
ROOT
ATOM      1  C   UNL     1       1.256   9.484  19.465  0.00  0.00    +0.000 A 
ATOM      2  C   UNL     1       1.717   9.750  18.189  0.00  0.00    +0.000 A 
ATOM      3  C   UNL     1       2.345   8.627  17.582  0.00  0.00    +0.000 A 
ATOM      4  C   UNL     1       2.382   7.522  18.411  0.00  0.00    +0.000 A 
ATOM      5  S   UNL     1       1.666   7.880  19.931  0.00  0.00    +0.000 S 
ENDROOT
BRANCH   1  11
ATOM      6  N   UNL     1      -2.445  12.363  20.373  0.00  0.00    +0.000 N 
ATOM      7  C   UNL     1      -2.824  11.781  19.190  0.00  0.00    +0.000 C 
ATOM      8  O   UNL     1      -3.836  12.001  18.548  0.00  0.00    +0.000 OA
ATOM      9  S   UNL     1      -1.602  10.639  18.666  0.00  0.00    +0.000 S 
ATOM     10  C   UNL     1      -0.623  10.908  20.057  0.00  0.00    +0.000 C 
ATOM     11  C   UNL     1       0.564  10.357  20.352  0.00  0.00    +0.000 C 
ATOM     12  C   UNL     1      -1.281  11.906  20.947  0.00  0.00    +0.000 C 
ATOM     13  O   UNL     1      -0.813  12.279  22.017  0.00  0.00    +0.000 OA
BRANCH   6  14
ATOM     14  C   UNL     1      -3.266  13.397  20.991  0.00  0.00    +0.000 C 
BRANCH  14  15
ATOM     15  C   UNL     1      -4.438  12.820  21.781  0.00  0.00    +0.000 C 
BRANCH  15  16
ATOM     16  C   UNL     1      -4.114  12.822  23.252  0.00  0.00    +0.000 C 
ATOM     17  O   UNL     1      -3.594  11.896  23.854  0.00  0.00    +0.000 OA
BRANCH  16  19
ATOM     18  C   UNL     1      -3.454  14.647  24.554  0.00  0.00    +0.000 C 
ATOM     19  O   UNL     1      -4.492  14.006  23.810  0.00  0.00    +0.000 OA
ENDBRANCH  16  19
ENDBRANCH  15  16
ENDBRANCH  14  15
ENDBRANCH   6  14
ENDBRANCH   1  11
BRANCH   4  20
ATOM     20  C   UNL     1       2.962   6.203  18.109  0.00  0.00    +0.000 A 
ATOM     21  C   UNL     1       2.105   5.101  17.972  0.00  0.00    +0.000 A 
ATOM     22  C   UNL     1       2.613   3.816  17.780  0.00  0.00    +0.000 A 
ATOM     23  C   UNL     1       3.994   3.610  17.714  0.00  0.00    +0.000 A 
ATOM     24  C   UNL     1       4.878   4.693  17.826  0.00  0.00    +0.000 A 
ATOM     25  C   UNL     1       4.348   5.986  18.027  0.00  0.00    +0.000 A 
BRANCH  23  26
ATOM     26  O   UNL     1       4.443   2.328  17.567  0.00  0.00    +0.000 OA
ATOM     27  H   UNL     1       4.602   2.138  16.626  0.00  0.00    +0.000 HD
ENDBRANCH  23  26
BRANCH  24  28
ATOM     28  C   UNL     1       6.370   4.572  17.806  0.00  0.00    +0.000 C 
ATOM     29  O   UNL     1       6.995   4.314  16.792  0.00  0.00    +0.000 OA
BRANCH  28  30
ATOM     30  O   UNL     1       6.908   4.709  19.046  0.00  0.00    +0.000 OA
ATOM     31  C   UNL     1       7.788   5.826  19.199  0.00  0.00    +0.000 C 
ENDBRANCH  28  30
ENDBRANCH  24  28
ENDBRANCH   4  20
TORSDOF 9
ENDMDL
MODEL 2
REMARK VINA RESULT:      -7.5      1.768      2.904
REMARK  Name = 
REMARK  11 active torsions:
REMARK  status: ('A' for Active; 'I' for Inactive)
REMARK    1  A    between atoms: C_1  and  O_2
REMARK    2  A    between atoms: O_2  and  C_3
REMARK    3  A    between atoms: C_3  and  C_5
REMARK    4  A    between atoms: C_5  and  C_6
REMARK    5  A    between atoms: C_6  and  N_7
REMARK    6  A    between atoms: C_12  and  C_13
REMARK    7  A    between atoms: C_16  and  C_17
REMARK    8  A    between atoms: C_20  and  O_21
REMARK    9  A    between atoms: C_22  and  C_23
REMARK   10  A    between atoms: C_23  and  O_25
REMARK   11  A    between atoms: O_25  and  C_26
REMARK                            x       y       z     vdW  Elec       q    Type
REMARK                         _______ _______ _______ _____ _____    ______ ____
ROOT
ATOM      1  C   UNL     1       1.157   9.654  19.428  0.00  0.00    +0.000 A 
ATOM      2  C   UNL     1       1.672   9.857  18.161  0.00  0.00    +0.000 A 
ATOM      3  C   UNL     1       2.354   8.717  17.651  0.00  0.00    +0.000 A 
ATOM      4  C   UNL     1       2.377   7.664  18.545  0.00  0.00    +0.000 A 
ATOM      5  S   UNL     1       1.582   8.091  20.006  0.00  0.00    +0.000 S 
ENDROOT
BRANCH   1  11
ATOM      6  N   UNL     1      -2.715  12.380  20.045  0.00  0.00    +0.000 N 
ATOM      7  C   UNL     1      -3.043  11.677  18.914  0.00  0.00    +0.000 C 
ATOM      8  O   UNL     1      -4.055  11.783  18.245  0.00  0.00    +0.000 OA
ATOM      9  S   UNL     1      -1.750  10.567  18.503  0.00  0.00    +0.000 S 
ATOM     10  C   UNL     1      -0.808  11.012  19.875  0.00  0.00    +0.000 C 
ATOM     11  C   UNL     1       0.404  10.558  20.229  0.00  0.00    +0.000 C 
ATOM     12  C   UNL     1      -1.535  12.043  20.668  0.00  0.00    +0.000 C 
ATOM     13  O   UNL     1      -1.105  12.533  21.706  0.00  0.00    +0.000 OA
BRANCH   6  14
ATOM     14  C   UNL     1      -3.603  13.414  20.563  0.00  0.00    +0.000 C 
BRANCH  14  15
ATOM     15  C   UNL     1      -4.577  12.879  21.608  0.00  0.00    +0.000 C 
BRANCH  15  16
ATOM     16  C   UNL     1      -5.951  12.741  21.005  0.00  0.00    +0.000 C 
ATOM     17  O   UNL     1      -6.539  13.622  20.399  0.00  0.00    +0.000 OA
BRANCH  16  19
ATOM     18  C   UNL     1      -7.504  11.116  20.364  0.00  0.00    +0.000 C 
ATOM     19  O   UNL     1      -6.440  11.492  21.242  0.00  0.00    +0.000 OA
ENDBRANCH  16  19
ENDBRANCH  15  16
ENDBRANCH  14  15
ENDBRANCH   6  14
ENDBRANCH   1  11
BRANCH   4  20
ATOM     20  C   UNL     1       3.002   6.345  18.349  0.00  0.00    +0.000 A 
ATOM     21  C   UNL     1       4.025   6.215  17.398  0.00  0.00    +0.000 A 
ATOM     22  C   UNL     1       4.582   4.969  17.108  0.00  0.00    +0.000 A 
ATOM     23  C   UNL     1       4.128   3.827  17.773  0.00  0.00    +0.000 A 
ATOM     24  C   UNL     1       3.121   3.924  18.745  0.00  0.00    +0.000 A 
ATOM     25  C   UNL     1       2.564   5.191  19.021  0.00  0.00    +0.000 A 
BRANCH  23  26
ATOM     26  O   UNL     1       4.676   2.624  17.424  0.00  0.00    +0.000 OA
ATOM     27  H   UNL     1       4.863   2.608  16.470  0.00  0.00    +0.000 HD
ENDBRANCH  23  26
BRANCH  24  28
ATOM     28  C   UNL     1       2.543   2.758  19.483  0.00  0.00    +0.000 C 
ATOM     29  O   UNL     1       1.944   1.856  18.923  0.00  0.00    +0.000 OA
BRANCH  28  30
ATOM     30  O   UNL     1       2.704   2.877  20.827  0.00  0.00    +0.000 OA
ATOM     31  C   UNL     1       1.500   2.757  21.589  0.00  0.00    +0.000 C 
ENDBRANCH  28  30
ENDBRANCH  24  28
ENDBRANCH   4  20
TORSDOF 9
ENDMDL
MODEL 3
REMARK VINA RESULT:      -7.5      1.612      2.121
REMARK  Name = 
REMARK  11 active torsions:
REMARK  status: ('A' for Active; 'I' for Inactive)
REMARK    1  A    between atoms: C_1  and  O_2
REMARK    2  A    between atoms: O_2  and  C_3
REMARK    3  A    between atoms: C_3  and  C_5
REMARK    4  A    between atoms: C_5  and  C_6
REMARK    5  A    between atoms: C_6  and  N_7
REMARK    6  A    between atoms: C_12  and  C_13
REMARK    7  A    between atoms: C_16  and  C_17
REMARK    8  A    between atoms: C_20  and  O_21
REMARK    9  A    between atoms: C_22  and  C_23
REMARK   10  A    between atoms: C_23  and  O_25
REMARK   11  A    between atoms: O_25  and  C_26
REMARK                            x       y       z     vdW  Elec       q    Type
REMARK                         _______ _______ _______ _____ _____    ______ ____
ROOT
ATOM      1  C   UNL     1       1.002   9.557  19.227  0.00  0.00    +0.000 A 
ATOM      2  C   UNL     1       1.647   9.651  18.008  0.00  0.00    +0.000 A 
ATOM      3  C   UNL     1       2.471   8.525  17.729  0.00  0.00    +0.000 A 
ATOM      4  C   UNL     1       2.471   7.596  18.752  0.00  0.00    +0.000 A 
ATOM      5  S   UNL     1       1.477   8.123  20.050  0.00  0.00    +0.000 S 
ENDROOT
BRANCH   1  11
ATOM      6  N   UNL     1      -3.127  11.951  19.070  0.00  0.00    +0.000 N 
ATOM      7  C   UNL     1      -3.265  11.080  18.019  0.00  0.00    +0.000 C 
ATOM      8  O   UNL     1      -4.201  11.000  17.243  0.00  0.00    +0.000 OA
ATOM      9  S   UNL     1      -1.847  10.058  17.898  0.00  0.00    +0.000 S 
ATOM     10  C   UNL     1      -1.107  10.764  19.283  0.00  0.00    +0.000 C 
ATOM     11  C   UNL     1       0.091  10.479  19.817  0.00  0.00    +0.000 C 
ATOM     12  C   UNL     1      -2.002  11.812  19.849  0.00  0.00    +0.000 C 
ATOM     13  O   UNL     1      -1.734  12.471  20.848  0.00  0.00    +0.000 OA
BRANCH   6  14
ATOM     14  C   UNL     1      -4.150  12.951  19.348  0.00  0.00    +0.000 C 
BRANCH  14  15
ATOM     15  C   UNL     1      -5.460  12.331  19.828  0.00  0.00    +0.000 C 
BRANCH  15  16
ATOM     16  C   UNL     1      -5.590  12.499  21.319  0.00  0.00    +0.000 C 
ATOM     17  O   UNL     1      -4.894  13.232  22.003  0.00  0.00    +0.000 OA
BRANCH  16  19
ATOM     18  C   UNL     1      -7.494  11.257  20.776  0.00  0.00    +0.000 C 
ATOM     19  O   UNL     1      -6.593  11.706  21.791  0.00  0.00    +0.000 OA
ENDBRANCH  16  19
ENDBRANCH  15  16
ENDBRANCH  14  15
ENDBRANCH   6  14
ENDBRANCH   1  11
BRANCH   4  20
ATOM     20  C   UNL     1       3.216   6.327  18.800  0.00  0.00    +0.000 A 
ATOM     21  C   UNL     1       2.709   5.272  19.573  0.00  0.00    +0.000 A 
ATOM     22  C   UNL     1       3.425   4.085  19.725  0.00  0.00    +0.000 A 
ATOM     23  C   UNL     1       4.664   3.928  19.100  0.00  0.00    +0.000 A 
ATOM     24  C   UNL     1       5.192   4.956  18.303  0.00  0.00    +0.000 A 
ATOM     25  C   UNL     1       4.457   6.152  18.164  0.00  0.00    +0.000 A 
BRANCH  23  26
ATOM     26  O   UNL     1       5.346   2.763  19.314  0.00  0.00    +0.000 OA
ATOM     27  H   UNL     1       5.197   2.150  18.574  0.00  0.00    +0.000 HD
ENDBRANCH  23  26
BRANCH  24  28
ATOM     28  C   UNL     1       6.524   4.899  17.623  0.00  0.00    +0.000 C 
ATOM     29  O   UNL     1       7.525   4.474  18.173  0.00  0.00    +0.000 OA
BRANCH  28  30
ATOM     30  O   UNL     1       6.482   5.440  16.378  0.00  0.00    +0.000 OA
ATOM     31  C   UNL     1       6.652   4.504  15.310  0.00  0.00    +0.000 C 
ENDBRANCH  28  30
ENDBRANCH  24  28
ENDBRANCH   4  20
TORSDOF 9
ENDMDL
MODEL 4
REMARK VINA RESULT:      -7.5      1.138      1.304
REMARK  Name = 
REMARK  11 active torsions:
REMARK  status: ('A' for Active; 'I' for Inactive)
REMARK    1  A    between atoms: C_1  and  O_2
REMARK    2  A    between atoms: O_2  and  C_3
REMARK    3  A    between atoms: C_3  and  C_5
REMARK    4  A    between atoms: C_5  and  C_6
REMARK    5  A    between atoms: C_6  and  N_7
REMARK    6  A    between atoms: C_12  and  C_13
REMARK    7  A    between atoms: C_16  and  C_17
REMARK    8  A    between atoms: C_20  and  O_21
REMARK    9  A    between atoms: C_22  and  C_23
REMARK   10  A    between atoms: C_23  and  O_25
REMARK   11  A    between atoms: O_25  and  C_26
REMARK                            x       y       z     vdW  Elec       q    Type
REMARK                         _______ _______ _______ _____ _____    ______ ____
ROOT
ATOM      1  C   UNL     1       1.005   9.539  19.593  0.00  0.00    +0.000 A 
ATOM      2  C   UNL     1       1.514   9.620  18.310  0.00  0.00    +0.000 A 
ATOM      3  C   UNL     1       2.279   8.477  17.943  0.00  0.00    +0.000 A 
ATOM      4  C   UNL     1       2.369   7.547  18.961  0.00  0.00    +0.000 A 
ATOM      5  S   UNL     1       1.535   8.093  20.359  0.00  0.00    +0.000 S 
ENDROOT
BRANCH   1  11
ATOM      6  N   UNL     1      -2.902  12.281  19.724  0.00  0.00    +0.000 N 
ATOM      7  C   UNL     1      -3.128  11.522  18.604  0.00  0.00    +0.000 C 
ATOM      8  O   UNL     1      -4.076  11.591  17.842  0.00  0.00    +0.000 OA
ATOM      9  S   UNL     1      -1.805  10.397  18.367  0.00  0.00    +0.000 S 
ATOM     10  C   UNL     1      -0.990  10.911  19.794  0.00  0.00    +0.000 C 
ATOM     11  C   UNL     1       0.185  10.479  20.277  0.00  0.00    +0.000 C 
ATOM     12  C   UNL     1      -1.784  11.978  20.466  0.00  0.00    +0.000 C 
ATOM     13  O   UNL     1      -1.448  12.520  21.514  0.00  0.00    +0.000 OA
BRANCH   6  14
ATOM     14  C   UNL     1      -3.831  13.336  20.108  0.00  0.00    +0.000 C 
BRANCH  14  15
ATOM     15  C   UNL     1      -4.993  12.816  20.950  0.00  0.00    +0.000 C 
BRANCH  15  16
ATOM     16  C   UNL     1      -4.980  13.476  22.304  0.00  0.00    +0.000 C 
ATOM     17  O   UNL     1      -4.853  14.675  22.496  0.00  0.00    +0.000 OA
BRANCH  16  19
ATOM     18  C   UNL     1      -6.320  12.684  24.048  0.00  0.00    +0.000 C 
ATOM     19  O   UNL     1      -5.122  12.537  23.281  0.00  0.00    +0.000 OA
ENDBRANCH  16  19
ENDBRANCH  15  16
ENDBRANCH  14  15
ENDBRANCH   6  14
ENDBRANCH   1  11
BRANCH   4  20
ATOM     20  C   UNL     1       3.087   6.261  18.927  0.00  0.00    +0.000 A 
ATOM     21  C   UNL     1       2.596   5.191  19.690  0.00  0.00    +0.000 A 
ATOM     22  C   UNL     1       3.292   3.985  19.765  0.00  0.00    +0.000 A 
ATOM     23  C   UNL     1       4.494   3.824  19.072  0.00  0.00    +0.000 A 
ATOM     24  C   UNL     1       5.003   4.867  18.283  0.00  0.00    +0.000 A 
ATOM     25  C   UNL     1       4.290   6.083  18.223  0.00  0.00    +0.000 A 
BRANCH  23  26
ATOM     26  O   UNL     1       5.160   2.638  19.211  0.00  0.00    +0.000 OA
ATOM     27  H   UNL     1       4.568   1.969  19.596  0.00  0.00    +0.000 HD
ENDBRANCH  23  26
BRANCH  24  28
ATOM     28  C   UNL     1       6.297   4.806  17.534  0.00  0.00    +0.000 C 
ATOM     29  O   UNL     1       6.365   4.951  16.325  0.00  0.00    +0.000 OA
BRANCH  28  30
ATOM     30  O   UNL     1       7.342   4.501  18.347  0.00  0.00    +0.000 OA
ATOM     31  C   UNL     1       7.866   5.604  19.091  0.00  0.00    +0.000 C 
ENDBRANCH  28  30
ENDBRANCH  24  28
ENDBRANCH   4  20
TORSDOF 9
ENDMDL
MODEL 5
REMARK VINA RESULT:      -7.5      1.386      2.547
REMARK  Name = 
REMARK  11 active torsions:
REMARK  status: ('A' for Active; 'I' for Inactive)
REMARK    1  A    between atoms: C_1  and  O_2
REMARK    2  A    between atoms: O_2  and  C_3
REMARK    3  A    between atoms: C_3  and  C_5
REMARK    4  A    between atoms: C_5  and  C_6
REMARK    5  A    between atoms: C_6  and  N_7
REMARK    6  A    between atoms: C_12  and  C_13
REMARK    7  A    between atoms: C_16  and  C_17
REMARK    8  A    between atoms: C_20  and  O_21
REMARK    9  A    between atoms: C_22  and  C_23
REMARK   10  A    between atoms: C_23  and  O_25
REMARK   11  A    between atoms: O_25  and  C_26
REMARK                            x       y       z     vdW  Elec       q    Type
REMARK                         _______ _______ _______ _____ _____    ______ ____
ROOT
ATOM      1  C   UNL     1       1.063   9.727  19.474  0.00  0.00    +0.000 A 
ATOM      2  C   UNL     1       1.617   9.904  18.219  0.00  0.00    +0.000 A 
ATOM      3  C   UNL     1       2.323   8.758  17.757  0.00  0.00    +0.000 A 
ATOM      4  C   UNL     1       2.326   7.727  18.677  0.00  0.00    +0.000 A 
ATOM      5  S   UNL     1       1.482   8.181  20.102  0.00  0.00    +0.000 S 
ENDROOT
BRANCH   1  11
ATOM      6  N   UNL     1      -2.856  12.419  19.915  0.00  0.00    +0.000 N 
ATOM      7  C   UNL     1      -3.146  11.680  18.796  0.00  0.00    +0.000 C 
ATOM      8  O   UNL     1      -4.142  11.754  18.099  0.00  0.00    +0.000 OA
ATOM      9  S   UNL     1      -1.829  10.576  18.450  0.00  0.00    +0.000 S 
ATOM     10  C   UNL     1      -0.929  11.071  19.832  0.00  0.00    +0.000 C 
ATOM     11  C   UNL     1       0.279  10.643  20.229  0.00  0.00    +0.000 C 
ATOM     12  C   UNL     1      -1.689  12.114  20.577  0.00  0.00    +0.000 C 
ATOM     13  O   UNL     1      -1.291  12.639  21.611  0.00  0.00    +0.000 OA
BRANCH   6  14
ATOM     14  C   UNL     1      -3.769  13.455  20.380  0.00  0.00    +0.000 C 
BRANCH  14  15
ATOM     15  C   UNL     1      -4.844  12.911  21.318  0.00  0.00    +0.000 C 
BRANCH  15  16
ATOM     16  C   UNL     1      -4.554  13.340  22.732  0.00  0.00    +0.000 C 
ATOM     17  O   UNL     1      -4.671  14.480  23.154  0.00  0.00    +0.000 OA
BRANCH  16  19
ATOM     18  C   UNL     1      -4.555  12.317  24.834  0.00  0.00    +0.000 C 
ATOM     19  O   UNL     1      -4.138  12.271  23.467  0.00  0.00    +0.000 OA
ENDBRANCH  16  19
ENDBRANCH  15  16
ENDBRANCH  14  15
ENDBRANCH   6  14
ENDBRANCH   1  11
BRANCH   4  20
ATOM     20  C   UNL     1       2.967   6.408  18.531  0.00  0.00    +0.000 A 
ATOM     21  C   UNL     1       3.906   6.221  17.506  0.00  0.00    +0.000 A 
ATOM     22  C   UNL     1       4.468   4.967  17.268  0.00  0.00    +0.000 A 
ATOM     23  C   UNL     1       4.105   3.874  18.059  0.00  0.00    +0.000 A 
ATOM     24  C   UNL     1       3.184   4.031  19.106  0.00  0.00    +0.000 A 
ATOM     25  C   UNL     1       2.620   5.305  19.329  0.00  0.00    +0.000 A 
BRANCH  23  26
ATOM     26  O   UNL     1       4.653   2.658  17.760  0.00  0.00    +0.000 OA
ATOM     27  H   UNL     1       5.486   2.540  18.247  0.00  0.00    +0.000 HD
ENDBRANCH  23  26
BRANCH  24  28
ATOM     28  C   UNL     1       2.704   2.918  19.984  0.00  0.00    +0.000 C 
ATOM     29  O   UNL     1       2.913   2.890  21.185  0.00  0.00    +0.000 OA
BRANCH  28  30
ATOM     30  O   UNL     1       2.092   1.937  19.271  0.00  0.00    +0.000 OA
ATOM     31  C   UNL     1       0.805   2.286  18.753  0.00  0.00    +0.000 C 
ENDBRANCH  28  30
ENDBRANCH  24  28
ENDBRANCH   4  20
TORSDOF 9
ENDMDL
MODEL 6
REMARK VINA RESULT:      -7.5      0.772      1.240
REMARK  Name = 
REMARK  11 active torsions:
REMARK  status: ('A' for Active; 'I' for Inactive)
REMARK    1  A    between atoms: C_1  and  O_2
REMARK    2  A    between atoms: O_2  and  C_3
REMARK    3  A    between atoms: C_3  and  C_5
REMARK    4  A    between atoms: C_5  and  C_6
REMARK    5  A    between atoms: C_6  and  N_7
REMARK    6  A    between atoms: C_12  and  C_13
REMARK    7  A    between atoms: C_16  and  C_17
REMARK    8  A    between atoms: C_20  and  O_21
REMARK    9  A    between atoms: C_22  and  C_23
REMARK   10  A    between atoms: C_23  and  O_25
REMARK   11  A    between atoms: O_25  and  C_26
REMARK                            x       y       z     vdW  Elec       q    Type
REMARK                         _______ _______ _______ _____ _____    ______ ____
ROOT
ATOM      1  C   UNL     1       1.207   9.667  19.285  0.00  0.00    +0.000 A 
ATOM      2  C   UNL     1       1.768   9.919  18.046  0.00  0.00    +0.000 A 
ATOM      3  C   UNL     1       2.442   8.790  17.503  0.00  0.00    +0.000 A 
ATOM      4  C   UNL     1       2.414   7.695  18.345  0.00  0.00    +0.000 A 
ATOM      5  S   UNL     1       1.581   8.068  19.799  0.00  0.00    +0.000 S 
ENDROOT
BRANCH   1  11
ATOM      6  N   UNL     1      -2.672  12.370  19.950  0.00  0.00    +0.000 N 
ATOM      7  C   UNL     1      -2.992  11.698  18.798  0.00  0.00    +0.000 C 
ATOM      8  O   UNL     1      -4.000  11.819  18.126  0.00  0.00    +0.000 OA
ATOM      9  S   UNL     1      -1.694  10.601  18.367  0.00  0.00    +0.000 S 
ATOM     10  C   UNL     1      -0.762  11.010  19.756  0.00  0.00    +0.000 C 
ATOM     11  C   UNL     1       0.448  10.548  20.105  0.00  0.00    +0.000 C 
ATOM     12  C   UNL     1      -1.496  12.018  20.572  0.00  0.00    +0.000 C 
ATOM     13  O   UNL     1      -1.073  12.481  21.625  0.00  0.00    +0.000 OA
BRANCH   6  14
ATOM     14  C   UNL     1      -3.565  13.389  20.490  0.00  0.00    +0.000 C 
BRANCH  14  15
ATOM     15  C   UNL     1      -4.607  12.809  21.442  0.00  0.00    +0.000 C 
BRANCH  15  16
ATOM     16  C   UNL     1      -4.220  13.105  22.867  0.00  0.00    +0.000 C 
ATOM     17  O   UNL     1      -3.643  14.115  23.239  0.00  0.00    +0.000 OA
BRANCH  16  19
ATOM     18  C   UNL     1      -4.655  12.429  25.061  0.00  0.00    +0.000 C 
ATOM     19  O   UNL     1      -4.603  12.078  23.676  0.00  0.00    +0.000 OA
ENDBRANCH  16  19
ENDBRANCH  15  16
ENDBRANCH  14  15
ENDBRANCH   6  14
ENDBRANCH   1  11
BRANCH   4  20
ATOM     20  C   UNL     1       3.017   6.373  18.104  0.00  0.00    +0.000 A 
ATOM     21  C   UNL     1       2.195   5.237  18.135  0.00  0.00    +0.000 A 
ATOM     22  C   UNL     1       2.734   3.957  18.008  0.00  0.00    +0.000 A 
ATOM     23  C   UNL     1       4.111   3.789  17.838  0.00  0.00    +0.000 A 
ATOM     24  C   UNL     1       4.959   4.905  17.782  0.00  0.00    +0.000 A 
ATOM     25  C   UNL     1       4.398   6.193  17.919  0.00  0.00    +0.000 A 
BRANCH  23  26
ATOM     26  O   UNL     1       4.595   2.513  17.760  0.00  0.00    +0.000 OA
ATOM     27  H   UNL     1       4.220   2.063  16.984  0.00  0.00    +0.000 HD
ENDBRANCH  23  26
BRANCH  24  28
ATOM     28  C   UNL     1       6.448   4.829  17.641  0.00  0.00    +0.000 C 
ATOM     29  O   UNL     1       7.168   4.369  18.510  0.00  0.00    +0.000 OA
BRANCH  28  30
ATOM     30  O   UNL     1       6.878   5.394  16.483  0.00  0.00    +0.000 OA
ATOM     31  C   UNL     1       6.814   4.540  15.338  0.00  0.00    +0.000 C 
ENDBRANCH  28  30
ENDBRANCH  24  28
ENDBRANCH   4  20
TORSDOF 9
ENDMDL
MODEL 7
REMARK VINA RESULT:      -7.4      1.189      1.434
REMARK  Name = 
REMARK  11 active torsions:
REMARK  status: ('A' for Active; 'I' for Inactive)
REMARK    1  A    between atoms: C_1  and  O_2
REMARK    2  A    between atoms: O_2  and  C_3
REMARK    3  A    between atoms: C_3  and  C_5
REMARK    4  A    between atoms: C_5  and  C_6
REMARK    5  A    between atoms: C_6  and  N_7
REMARK    6  A    between atoms: C_12  and  C_13
REMARK    7  A    between atoms: C_16  and  C_17
REMARK    8  A    between atoms: C_20  and  O_21
REMARK    9  A    between atoms: C_22  and  C_23
REMARK   10  A    between atoms: C_23  and  O_25
REMARK   11  A    between atoms: O_25  and  C_26
REMARK                            x       y       z     vdW  Elec       q    Type
REMARK                         _______ _______ _______ _____ _____    ______ ____
ROOT
ATOM      1  C   UNL     1       1.056   9.443  19.697  0.00  0.00    +0.000 A 
ATOM      2  C   UNL     1       1.539   9.491  18.402  0.00  0.00    +0.000 A 
ATOM      3  C   UNL     1       2.278   8.329  18.043  0.00  0.00    +0.000 A 
ATOM      4  C   UNL     1       2.378   7.418  19.078  0.00  0.00    +0.000 A 
ATOM      5  S   UNL     1       1.581   8.005  20.482  0.00  0.00    +0.000 S 
ENDROOT
BRANCH   1  11
ATOM      6  N   UNL     1      -2.757  12.315  19.812  0.00  0.00    +0.000 N 
ATOM      7  C   UNL     1      -3.002  11.567  18.689  0.00  0.00    +0.000 C 
ATOM      8  O   UNL     1      -3.943  11.670  17.923  0.00  0.00    +0.000 OA
ATOM      9  S   UNL     1      -1.717  10.398  18.457  0.00  0.00    +0.000 S 
ATOM     10  C   UNL     1      -0.893  10.882  19.890  0.00  0.00    +0.000 C 
ATOM     11  C   UNL     1       0.264  10.409  20.379  0.00  0.00    +0.000 C 
ATOM     12  C   UNL     1      -1.654  11.973  20.560  0.00  0.00    +0.000 C 
ATOM     13  O   UNL     1      -1.306  12.502  21.610  0.00  0.00    +0.000 OA
BRANCH   6  14
ATOM     14  C   UNL     1      -3.652  13.401  20.193  0.00  0.00    +0.000 C 
BRANCH  14  15
ATOM     15  C   UNL     1      -4.858  12.913  20.992  0.00  0.00    +0.000 C 
BRANCH  15  16
ATOM     16  C   UNL     1      -4.617  13.124  22.463  0.00  0.00    +0.000 C 
ATOM     17  O   UNL     1      -4.303  12.247  23.252  0.00  0.00    +0.000 OA
BRANCH  16  19
ATOM     18  C   UNL     1      -6.158  14.747  23.136  0.00  0.00    +0.000 C 
ATOM     19  O   UNL     1      -4.809  14.434  22.784  0.00  0.00    +0.000 OA
ENDBRANCH  16  19
ENDBRANCH  15  16
ENDBRANCH  14  15
ENDBRANCH   6  14
ENDBRANCH   1  11
BRANCH   4  20
ATOM     20  C   UNL     1       3.076   6.122  19.056  0.00  0.00    +0.000 A 
ATOM     21  C   UNL     1       2.621   5.093  19.894  0.00  0.00    +0.000 A 
ATOM     22  C   UNL     1       3.305   3.881  19.979  0.00  0.00    +0.000 A 
ATOM     23  C   UNL     1       4.459   3.672  19.219  0.00  0.00    +0.000 A 
ATOM     24  C   UNL     1       4.930   4.672  18.356  0.00  0.00    +0.000 A 
ATOM     25  C   UNL     1       4.229   5.895  18.286  0.00  0.00    +0.000 A 
BRANCH  23  26
ATOM     26  O   UNL     1       5.117   2.483  19.369  0.00  0.00    +0.000 OA
ATOM     27  H   UNL     1       4.949   2.120  20.255  0.00  0.00    +0.000 HD
ENDBRANCH  23  26
BRANCH  24  28
ATOM     28  C   UNL     1       6.173   4.560  17.530  0.00  0.00    +0.000 C 
ATOM     29  O   UNL     1       7.275   4.389  18.021  0.00  0.00    +0.000 OA
BRANCH  28  30
ATOM     30  O   UNL     1       5.923   4.745  16.207  0.00  0.00    +0.000 OA
ATOM     31  C   UNL     1       7.084   4.753  15.372  0.00  0.00    +0.000 C 
ENDBRANCH  28  30
ENDBRANCH  24  28
ENDBRANCH   4  20
TORSDOF 9
ENDMDL
MODEL 8
REMARK VINA RESULT:      -7.4      1.462      1.733
REMARK  Name = 
REMARK  11 active torsions:
REMARK  status: ('A' for Active; 'I' for Inactive)
REMARK    1  A    between atoms: C_1  and  O_2
REMARK    2  A    between atoms: O_2  and  C_3
REMARK    3  A    between atoms: C_3  and  C_5
REMARK    4  A    between atoms: C_5  and  C_6
REMARK    5  A    between atoms: C_6  and  N_7
REMARK    6  A    between atoms: C_12  and  C_13
REMARK    7  A    between atoms: C_16  and  C_17
REMARK    8  A    between atoms: C_20  and  O_21
REMARK    9  A    between atoms: C_22  and  C_23
REMARK   10  A    between atoms: C_23  and  O_25
REMARK   11  A    between atoms: O_25  and  C_26
REMARK                            x       y       z     vdW  Elec       q    Type
REMARK                         _______ _______ _______ _____ _____    ______ ____
ROOT
ATOM      1  C   UNL     1       1.170   9.119  20.040  0.00  0.00    +0.000 A 
ATOM      2  C   UNL     1       1.258   9.632  18.759  0.00  0.00    +0.000 A 
ATOM      3  C   UNL     1       1.951   8.769  17.864  0.00  0.00    +0.000 A 
ATOM      4  C   UNL     1       2.410   7.619  18.478  0.00  0.00    +0.000 A 
ATOM      5  S   UNL     1       2.005   7.619  20.147  0.00  0.00    +0.000 S 
ENDROOT
BRANCH   1  11
ATOM      6  N   UNL     1      -1.925  12.244  21.900  0.00  0.00    +0.000 N 
ATOM      7  C   UNL     1      -2.201  12.338  20.559  0.00  0.00    +0.000 C 
ATOM      8  O   UNL     1      -3.008  13.074  20.020  0.00  0.00    +0.000 OA
ATOM      9  S   UNL     1      -1.179  11.234  19.660  0.00  0.00    +0.000 S 
ATOM     10  C   UNL     1      -0.433  10.618  21.084  0.00  0.00    +0.000 C 
ATOM     11  C   UNL     1       0.534   9.693  21.178  0.00  0.00    +0.000 C 
ATOM     12  C   UNL     1      -1.010  11.290  22.282  0.00  0.00    +0.000 C 
ATOM     13  O   UNL     1      -0.674  11.038  23.434  0.00  0.00    +0.000 OA
BRANCH   6  14
ATOM     14  C   UNL     1      -2.602  13.106  22.861  0.00  0.00    +0.000 C 
BRANCH  14  15
ATOM     15  C   UNL     1      -3.741  12.394  23.585  0.00  0.00    +0.000 C 
BRANCH  15  16
ATOM     16  C   UNL     1      -5.009  13.198  23.461  0.00  0.00    +0.000 C 
ATOM     17  O   UNL     1      -5.078  14.412  23.558  0.00  0.00    +0.000 OA
BRANCH  16  19
ATOM     18  C   UNL     1      -7.254  12.748  23.931  0.00  0.00    +0.000 C 
ATOM     19  O   UNL     1      -6.065  12.368  23.233  0.00  0.00    +0.000 OA
ENDBRANCH  16  19
ENDBRANCH  15  16
ENDBRANCH  14  15
ENDBRANCH   6  14
ENDBRANCH   1  11
BRANCH   4  20
ATOM     20  C   UNL     1       3.169   6.522  17.855  0.00  0.00    +0.000 A 
ATOM     21  C   UNL     1       2.662   5.216  17.933  0.00  0.00    +0.000 A 
ATOM     22  C   UNL     1       3.390   4.132  17.443  0.00  0.00    +0.000 A 
ATOM     23  C   UNL     1       4.641   4.336  16.855  0.00  0.00    +0.000 A 
ATOM     24  C   UNL     1       5.169   5.631  16.742  0.00  0.00    +0.000 A 
ATOM     25  C   UNL     1       4.422   6.716  17.249  0.00  0.00    +0.000 A 
BRANCH  23  26
ATOM     26  O   UNL     1       5.333   3.238  16.427  0.00  0.00    +0.000 OA
ATOM     27  H   UNL     1       4.847   2.799  15.708  0.00  0.00    +0.000 HD
ENDBRANCH  23  26
BRANCH  24  28
ATOM     28  C   UNL     1       6.513   5.948  16.164  0.00  0.00    +0.000 C 
ATOM     29  O   UNL     1       6.952   5.388  15.175  0.00  0.00    +0.000 OA
BRANCH  28  30
ATOM     30  O   UNL     1       7.184   6.861  16.912  0.00  0.00    +0.000 OA
ATOM     31  C   UNL     1       7.666   6.372  18.167  0.00  0.00    +0.000 C 
ENDBRANCH  28  30
ENDBRANCH  24  28
ENDBRANCH   4  20
TORSDOF 9
ENDMDL
MODEL 9
REMARK VINA RESULT:      -7.4      3.536     11.323
REMARK  Name = 
REMARK  11 active torsions:
REMARK  status: ('A' for Active; 'I' for Inactive)
REMARK    1  A    between atoms: C_1  and  O_2
REMARK    2  A    between atoms: O_2  and  C_3
REMARK    3  A    between atoms: C_3  and  C_5
REMARK    4  A    between atoms: C_5  and  C_6
REMARK    5  A    between atoms: C_6  and  N_7
REMARK    6  A    between atoms: C_12  and  C_13
REMARK    7  A    between atoms: C_16  and  C_17
REMARK    8  A    between atoms: C_20  and  O_21
REMARK    9  A    between atoms: C_22  and  C_23
REMARK   10  A    between atoms: C_23  and  O_25
REMARK   11  A    between atoms: O_25  and  C_26
REMARK                            x       y       z     vdW  Elec       q    Type
REMARK                         _______ _______ _______ _____ _____    ______ ____
ROOT
ATOM      1  C   UNL     1       2.455   6.783  19.012  0.00  0.00    +0.000 A 
ATOM      2  C   UNL     1       2.198   6.998  20.353  0.00  0.00    +0.000 A 
ATOM      3  C   UNL     1       1.483   8.205  20.594  0.00  0.00    +0.000 A 
ATOM      4  C   UNL     1       1.228   8.914  19.437  0.00  0.00    +0.000 A 
ATOM      5  S   UNL     1       1.883   8.105  18.071  0.00  0.00    +0.000 S 
ENDROOT
BRANCH   1  11
ATOM      6  N   UNL     1       6.146   5.046  16.530  0.00  0.00    +0.000 N 
ATOM      7  C   UNL     1       6.564   6.325  16.798  0.00  0.00    +0.000 C 
ATOM      8  O   UNL     1       7.600   6.855  16.440  0.00  0.00    +0.000 OA
ATOM      9  S   UNL     1       5.351   7.164  17.746  0.00  0.00    +0.000 S 
ATOM     10  C   UNL     1       4.323   5.784  17.821  0.00  0.00    +0.000 C 
ATOM     11  C   UNL     1       3.121   5.679  18.407  0.00  0.00    +0.000 C 
ATOM     12  C   UNL     1       4.957   4.648  17.096  0.00  0.00    +0.000 C 
ATOM     13  O   UNL     1       4.453   3.534  16.999  0.00  0.00    +0.000 OA
BRANCH   6  14
ATOM     14  C   UNL     1       6.953   4.158  15.703  0.00  0.00    +0.000 C 
BRANCH  14  15
ATOM     15  C   UNL     1       6.349   3.936  14.319  0.00  0.00    +0.000 C 
BRANCH  15  16
ATOM     16  C   UNL     1       7.212   4.591  13.272  0.00  0.00    +0.000 C 
ATOM     17  O   UNL     1       7.981   5.516  13.479  0.00  0.00    +0.000 OA
BRANCH  16  19
ATOM     18  C   UNL     1       5.857   3.147  12.030  0.00  0.00    +0.000 C 
ATOM     19  O   UNL     1       7.002   4.003  12.061  0.00  0.00    +0.000 OA
ENDBRANCH  16  19
ENDBRANCH  15  16
ENDBRANCH  14  15
ENDBRANCH   6  14
ENDBRANCH   1  11
BRANCH   4  20
ATOM     20  C   UNL     1       0.524  10.203  19.321  0.00  0.00    +0.000 A 
ATOM     21  C   UNL     1       1.032  11.316  20.007  0.00  0.00    +0.000 A 
ATOM     22  C   UNL     1       0.349  12.533  20.006  0.00  0.00    +0.000 A 
ATOM     23  C   UNL     1      -0.856  12.660  19.310  0.00  0.00    +0.000 A 
ATOM     24  C   UNL     1      -1.382  11.572  18.597  0.00  0.00    +0.000 A 
ATOM     25  C   UNL     1      -0.681  10.347  18.614  0.00  0.00    +0.000 A 
BRANCH  23  26
ATOM     26  O   UNL     1      -1.508  13.860  19.374  0.00  0.00    +0.000 OA
ATOM     27  H   UNL     1      -0.964  14.555  18.965  0.00  0.00    +0.000 HD
ENDBRANCH  23  26
BRANCH  24  28
ATOM     28  C   UNL     1      -2.680  11.597  17.853  0.00  0.00    +0.000 C 
ATOM     29  O   UNL     1      -2.753  11.405  16.651  0.00  0.00    +0.000 OA
BRANCH  28  30
ATOM     30  O   UNL     1      -3.722  11.927  18.660  0.00  0.00    +0.000 OA
ATOM     31  C   UNL     1      -4.988  11.400  18.252  0.00  0.00    +0.000 C 
ENDBRANCH  28  30
ENDBRANCH  24  28
ENDBRANCH   4  20
TORSDOF 9
ENDMDL
