MODEL 1
REMARK VINA RESULT:      -7.2      0.000      0.000
REMARK  Name = 
REMARK  6 active torsions:
REMARK  status: ('A' for Active; 'I' for Inactive)
REMARK    1  A    between atoms: C_1  and  C_2
REMARK    2  A    between atoms: C_2  and  C_3
REMARK    3  A    between atoms: N_8  and  C_9
REMARK    4  A    between atoms: C_9  and  C_10
REMARK    5  A    between atoms: C_10  and  C_11
REMARK    6  A    between atoms: C_11  and  N_12
REMARK                            x       y       z     vdW  Elec       q    Type
REMARK                         _______ _______ _______ _____ _____    ______ ____
ROOT
ATOM      1  N   UNL     1       6.026   4.664  17.084  0.00  0.00    +0.000 N 
ATOM      2  C   UNL     1       7.015   5.634  16.942  0.00  0.00    +0.000 A 
ATOM      3  S   UNL     1       7.697   6.574  18.155  0.00  0.00    +0.000 S 
ATOM      4  N   UNL     1       7.496   5.855  15.675  0.00  0.00    +0.000 N 
ATOM      5  C   UNL     1       7.112   5.117  14.562  0.00  0.00    +0.000 A 
ATOM      6  C   UNL     1       7.754   5.320  13.337  0.00  0.00    +0.000 A 
ATOM      7  C   UNL     1       7.396   4.542  12.234  0.00  0.00    +0.000 A 
ATOM      8  C   UNL     1       6.388   3.576  12.351  0.00  0.00    +0.000 A 
ATOM      9  C   UNL     1       5.736   3.399  13.572  0.00  0.00    +0.000 A 
ATOM     10  C   UNL     1       6.104   4.169  14.676  0.00  0.00    +0.000 A 
ATOM     11  C   UNL     1       5.448   4.005  15.987  0.00  0.00    +0.000 A 
ATOM     12  O   UNL     1       4.428   3.321  16.050  0.00  0.00    +0.000 OA
ATOM     13  H   UNL     1       8.217   6.560  15.588  0.00  0.00    +0.000 HD
ENDROOT
BRANCH   1  14
ATOM     14  C   UNL     1       5.486   4.299  18.409  0.00  0.00    +0.000 C 
BRANCH  14  15
ATOM     15  C   UNL     1       4.559   5.390  18.966  0.00  0.00    +0.000 C 
BRANCH  15  16
ATOM     16  C   UNL     1       3.155   5.309  18.339  0.00  0.00    +0.000 C 
BRANCH  16  22
ATOM     17  C   UNL     1       1.924   5.893  20.399  0.00  0.00    +0.000 C 
ATOM     18  C   UNL     1       0.951   6.902  21.059  0.00  0.00    +0.000 C 
ATOM     19  C   UNL     1       1.378   8.348  20.869  0.00  0.00    +0.000 C 
ATOM     20  C   UNL     1       1.598   8.618  19.394  0.00  0.00    +0.000 C 
ATOM     21  C   UNL     1       2.599   7.627  18.811  0.00  0.00    +0.000 C 
ATOM     22  N   UNL     1       2.168   6.223  18.966  0.00  0.00    +0.000 NA
BRANCH  17  24
ATOM     23  C   UNL     1       2.170   3.616  21.613  0.00  0.00    +0.000 C 
ATOM     24  C   UNL     1       1.371   4.458  20.624  0.00  0.00    +0.000 C 
ENDBRANCH  17  24
ENDBRANCH  16  22
ENDBRANCH  15  16
ENDBRANCH  14  15
ENDBRANCH   1  14
TORSDOF 5
ENDMDL
MODEL 2
REMARK VINA RESULT:      -7.2      2.009      2.809
REMARK  Name = 
REMARK  6 active torsions:
REMARK  status: ('A' for Active; 'I' for Inactive)
REMARK    1  A    between atoms: C_1  and  C_2
REMARK    2  A    between atoms: C_2  and  C_3
REMARK    3  A    between atoms: N_8  and  C_9
REMARK    4  A    between atoms: C_9  and  C_10
REMARK    5  A    between atoms: C_10  and  C_11
REMARK    6  A    between atoms: C_11  and  N_12
REMARK                            x       y       z     vdW  Elec       q    Type
REMARK                         _______ _______ _______ _____ _____    ______ ____
ROOT
ATOM      1  N   UNL     1       5.784   5.188  16.767  0.00  0.00    +0.000 N 
ATOM      2  C   UNL     1       6.938   5.955  16.624  0.00  0.00    +0.000 A 
ATOM      3  S   UNL     1       7.680   6.900  17.796  0.00  0.00    +0.000 S 
ATOM      4  N   UNL     1       7.548   5.943  15.393  0.00  0.00    +0.000 N 
ATOM      5  C   UNL     1       7.125   5.156  14.329  0.00  0.00    +0.000 A 
ATOM      6  C   UNL     1       7.887   5.105  13.157  0.00  0.00    +0.000 A 
ATOM      7  C   UNL     1       7.482   4.276  12.108  0.00  0.00    +0.000 A 
ATOM      8  C   UNL     1       6.313   3.514  12.225  0.00  0.00    +0.000 A 
ATOM      9  C   UNL     1       5.547   3.592  13.388  0.00  0.00    +0.000 A 
ATOM     10  C   UNL     1       5.959   4.411  14.439  0.00  0.00    +0.000 A 
ATOM     11  C   UNL     1       5.185   4.513  15.691  0.00  0.00    +0.000 A 
ATOM     12  O   UNL     1       4.058   4.022  15.723  0.00  0.00    +0.000 OA
ATOM     13  H   UNL     1       8.387   6.501  15.306  0.00  0.00    +0.000 HD
ENDROOT
BRANCH   1  14
ATOM     14  C   UNL     1       5.087   5.075  18.063  0.00  0.00    +0.000 C 
BRANCH  14  15
ATOM     15  C   UNL     1       5.544   3.837  18.849  0.00  0.00    +0.000 C 
BRANCH  15  16
ATOM     16  C   UNL     1       4.431   2.776  18.927  0.00  0.00    +0.000 C 
BRANCH  16  22
ATOM     17  C   UNL     1       1.971   2.789  19.144  0.00  0.00    +0.000 C 
ATOM     18  C   UNL     1       0.774   3.157  20.056  0.00  0.00    +0.000 C 
ATOM     19  C   UNL     1       0.926   2.631  21.474  0.00  0.00    +0.000 C 
ATOM     20  C   UNL     1       2.259   3.080  22.037  0.00  0.00    +0.000 C 
ATOM     21  C   UNL     1       3.400   2.648  21.124  0.00  0.00    +0.000 C 
ATOM     22  N   UNL     1       3.271   3.188  19.755  0.00  0.00    +0.000 NA
BRANCH  17  24
ATOM     23  C   UNL     1       1.454   4.907  17.743  0.00  0.00    +0.000 C 
ATOM     24  C   UNL     1       1.726   3.407  17.739  0.00  0.00    +0.000 C 
ENDBRANCH  17  24
ENDBRANCH  16  22
ENDBRANCH  15  16
ENDBRANCH  14  15
ENDBRANCH   1  14
TORSDOF 5
ENDMDL
MODEL 3
REMARK VINA RESULT:      -7.1      4.997      7.830
REMARK  Name = 
REMARK  6 active torsions:
REMARK  status: ('A' for Active; 'I' for Inactive)
REMARK    1  A    between atoms: C_1  and  C_2
REMARK    2  A    between atoms: C_2  and  C_3
REMARK    3  A    between atoms: N_8  and  C_9
REMARK    4  A    between atoms: C_9  and  C_10
REMARK    5  A    between atoms: C_10  and  C_11
REMARK    6  A    between atoms: C_11  and  N_12
REMARK                            x       y       z     vdW  Elec       q    Type
REMARK                         _______ _______ _______ _____ _____    ______ ____
ROOT
ATOM      1  N   UNL     1       1.172   9.365  19.762  0.00  0.00    +0.000 N 
ATOM      2  C   UNL     1       1.140   8.700  20.985  0.00  0.00    +0.000 A 
ATOM      3  S   UNL     1       0.440   9.237  22.414  0.00  0.00    +0.000 S 
ATOM      4  N   UNL     1       1.742   7.467  21.043  0.00  0.00    +0.000 N 
ATOM      5  C   UNL     1       2.298   6.826  19.942  0.00  0.00    +0.000 A 
ATOM      6  C   UNL     1       2.767   5.515  20.064  0.00  0.00    +0.000 A 
ATOM      7  C   UNL     1       3.281   4.860  18.943  0.00  0.00    +0.000 A 
ATOM      8  C   UNL     1       3.342   5.519  17.709  0.00  0.00    +0.000 A 
ATOM      9  C   UNL     1       2.896   6.837  17.604  0.00  0.00    +0.000 A 
ATOM     10  C   UNL     1       2.370   7.485  18.722  0.00  0.00    +0.000 A 
ATOM     11  C   UNL     1       1.876   8.873  18.651  0.00  0.00    +0.000 A 
ATOM     12  O   UNL     1       2.118   9.529  17.639  0.00  0.00    +0.000 OA
ATOM     13  H   UNL     1       1.706   6.994  21.937  0.00  0.00    +0.000 HD
ENDROOT
BRANCH   1  14
ATOM     14  C   UNL     1       0.499  10.665  19.571  0.00  0.00    +0.000 C 
BRANCH  14  15
ATOM     15  C   UNL     1      -0.927  10.493  19.027  0.00  0.00    +0.000 C 
BRANCH  15  16
ATOM     16  C   UNL     1      -1.262  11.567  17.975  0.00  0.00    +0.000 C 
BRANCH  16  22
ATOM     17  C   UNL     1      -3.445  11.005  16.966  0.00  0.00    +0.000 C 
ATOM     18  C   UNL     1      -4.963  11.316  16.959  0.00  0.00    +0.000 C 
ATOM     19  C   UNL     1      -5.574  11.321  18.350  0.00  0.00    +0.000 C 
ATOM     20  C   UNL     1      -4.783  12.256  19.243  0.00  0.00    +0.000 C 
ATOM     21  C   UNL     1      -3.308  11.872  19.249  0.00  0.00    +0.000 C 
ATOM     22  N   UNL     1      -2.706  11.901  17.901  0.00  0.00    +0.000 NA
BRANCH  17  24
ATOM     23  C   UNL     1      -3.504   9.999  14.578  0.00  0.00    +0.000 C 
ATOM     24  C   UNL     1      -2.925  11.064  15.503  0.00  0.00    +0.000 C 
ENDBRANCH  17  24
ENDBRANCH  16  22
ENDBRANCH  15  16
ENDBRANCH  14  15
ENDBRANCH   1  14
TORSDOF 5
ENDMDL
MODEL 4
REMARK VINA RESULT:      -7.0      1.175      2.452
REMARK  Name = 
REMARK  6 active torsions:
REMARK  status: ('A' for Active; 'I' for Inactive)
REMARK    1  A    between atoms: C_1  and  C_2
REMARK    2  A    between atoms: C_2  and  C_3
REMARK    3  A    between atoms: N_8  and  C_9
REMARK    4  A    between atoms: C_9  and  C_10
REMARK    5  A    between atoms: C_10  and  C_11
REMARK    6  A    between atoms: C_11  and  N_12
REMARK                            x       y       z     vdW  Elec       q    Type
REMARK                         _______ _______ _______ _____ _____    ______ ____
ROOT
ATOM      1  N   UNL     1       6.232   4.775  16.911  0.00  0.00    +0.000 N 
ATOM      2  C   UNL     1       7.141   5.806  16.687  0.00  0.00    +0.000 A 
ATOM      3  S   UNL     1       7.794   6.850  17.830  0.00  0.00    +0.000 S 
ATOM      4  N   UNL     1       7.560   6.001  15.394  0.00  0.00    +0.000 N 
ATOM      5  C   UNL     1       7.192   5.184  14.331  0.00  0.00    +0.000 A 
ATOM      6  C   UNL     1       7.775   5.374  13.074  0.00  0.00    +0.000 A 
ATOM      7  C   UNL     1       7.436   4.520  12.022  0.00  0.00    +0.000 A 
ATOM      8  C   UNL     1       6.508   3.492  12.221  0.00  0.00    +0.000 A 
ATOM      9  C   UNL     1       5.913   3.326  13.473  0.00  0.00    +0.000 A 
ATOM     10  C   UNL     1       6.262   4.172  14.526  0.00  0.00    +0.000 A 
ATOM     11  C   UNL     1       5.666   4.025  15.867  0.00  0.00    +0.000 A 
ATOM     12  O   UNL     1       4.703   3.273  16.000  0.00  0.00    +0.000 OA
ATOM     13  H   UNL     1       8.224   6.750  15.248  0.00  0.00    +0.000 HD
ENDROOT
BRANCH   1  14
ATOM     14  C   UNL     1       5.767   4.436  18.270  0.00  0.00    +0.000 C 
BRANCH  14  15
ATOM     15  C   UNL     1       4.893   5.550  18.867  0.00  0.00    +0.000 C 
BRANCH  15  16
ATOM     16  C   UNL     1       3.428   5.422  18.411  0.00  0.00    +0.000 C 
BRANCH  16  22
ATOM     17  C   UNL     1       1.525   4.621  19.765  0.00  0.00    +0.000 C 
ATOM     18  C   UNL     1       0.763   3.374  20.280  0.00  0.00    +0.000 C 
ATOM     19  C   UNL     1       0.433   2.383  19.177  0.00  0.00    +0.000 C 
ATOM     20  C   UNL     1       1.698   2.032  18.420  0.00  0.00    +0.000 C 
ATOM     21  C   UNL     1       2.377   3.293  17.896  0.00  0.00    +0.000 C 
ATOM     22  N   UNL     1       2.729   4.240  18.973  0.00  0.00    +0.000 NA
BRANCH  17  24
ATOM     23  C   UNL     1       1.410   6.993  20.806  0.00  0.00    +0.000 C 
ATOM     24  C   UNL     1       1.840   5.539  20.978  0.00  0.00    +0.000 C 
ENDBRANCH  17  24
ENDBRANCH  16  22
ENDBRANCH  15  16
ENDBRANCH  14  15
ENDBRANCH   1  14
TORSDOF 5
ENDMDL
MODEL 5
REMARK VINA RESULT:      -7.0      1.643      2.439
REMARK  Name = 
REMARK  6 active torsions:
REMARK  status: ('A' for Active; 'I' for Inactive)
REMARK    1  A    between atoms: C_1  and  C_2
REMARK    2  A    between atoms: C_2  and  C_3
REMARK    3  A    between atoms: N_8  and  C_9
REMARK    4  A    between atoms: C_9  and  C_10
REMARK    5  A    between atoms: C_10  and  C_11
REMARK    6  A    between atoms: C_11  and  N_12
REMARK                            x       y       z     vdW  Elec       q    Type
REMARK                         _______ _______ _______ _____ _____    ______ ____
ROOT
ATOM      1  N   UNL     1       6.094   4.902  17.203  0.00  0.00    +0.000 N 
ATOM      2  C   UNL     1       7.118   5.818  16.978  0.00  0.00    +0.000 A 
ATOM      3  S   UNL     1       7.886   6.783  18.118  0.00  0.00    +0.000 S 
ATOM      4  N   UNL     1       7.561   5.956  15.685  0.00  0.00    +0.000 N 
ATOM      5  C   UNL     1       7.103   5.183  14.625  0.00  0.00    +0.000 A 
ATOM      6  C   UNL     1       7.707   5.298  13.369  0.00  0.00    +0.000 A 
ATOM      7  C   UNL     1       7.273   4.485  12.319  0.00  0.00    +0.000 A 
ATOM      8  C   UNL     1       6.230   3.573  12.520  0.00  0.00    +0.000 A 
ATOM      9  C   UNL     1       5.616   3.485  13.770  0.00  0.00    +0.000 A 
ATOM     10  C   UNL     1       6.059   4.289  14.821  0.00  0.00    +0.000 A 
ATOM     11  C   UNL     1       5.446   4.218  16.161  0.00  0.00    +0.000 A 
ATOM     12  O   UNL     1       4.401   3.585  16.294  0.00  0.00    +0.000 OA
ATOM     13  H   UNL     1       8.309   6.622  15.538  0.00  0.00    +0.000 HD
ENDROOT
BRANCH   1  14
ATOM     14  C   UNL     1       5.589   4.626  18.563  0.00  0.00    +0.000 C 
BRANCH  14  15
ATOM     15  C   UNL     1       4.831   5.829  19.143  0.00  0.00    +0.000 C 
BRANCH  15  16
ATOM     16  C   UNL     1       3.551   5.389  19.877  0.00  0.00    +0.000 C 
BRANCH  16  22
ATOM     17  C   UNL     1       2.367   3.255  20.255  0.00  0.00    +0.000 C 
ATOM     18  C   UNL     1       1.592   2.092  19.585  0.00  0.00    +0.000 C 
ATOM     19  C   UNL     1       0.491   2.572  18.654  0.00  0.00    +0.000 C 
ATOM     20  C   UNL     1       1.071   3.550  17.652  0.00  0.00    +0.000 C 
ATOM     21  C   UNL     1       1.778   4.695  18.367  0.00  0.00    +0.000 C 
ATOM     22  N   UNL     1       2.870   4.231  19.246  0.00  0.00    +0.000 NA
BRANCH  17  24
ATOM     23  C   UNL     1       4.532   1.836  20.396  0.00  0.00    +0.000 C 
ATOM     24  C   UNL     1       3.484   2.649  21.149  0.00  0.00    +0.000 C 
ENDBRANCH  17  24
ENDBRANCH  16  22
ENDBRANCH  15  16
ENDBRANCH  14  15
ENDBRANCH   1  14
TORSDOF 5
ENDMDL
MODEL 6
REMARK VINA RESULT:      -7.0      1.532      2.780
REMARK  Name = 
REMARK  6 active torsions:
REMARK  status: ('A' for Active; 'I' for Inactive)
REMARK    1  A    between atoms: C_1  and  C_2
REMARK    2  A    between atoms: C_2  and  C_3
REMARK    3  A    between atoms: N_8  and  C_9
REMARK    4  A    between atoms: C_9  and  C_10
REMARK    5  A    between atoms: C_10  and  C_11
REMARK    6  A    between atoms: C_11  and  N_12
REMARK                            x       y       z     vdW  Elec       q    Type
REMARK                         _______ _______ _______ _____ _____    ______ ____
ROOT
ATOM      1  N   UNL     1       5.745   5.331  16.926  0.00  0.00    +0.000 N 
ATOM      2  C   UNL     1       6.927   6.036  16.715  0.00  0.00    +0.000 A 
ATOM      3  S   UNL     1       7.750   6.994  17.822  0.00  0.00    +0.000 S 
ATOM      4  N   UNL     1       7.497   5.944  15.468  0.00  0.00    +0.000 N 
ATOM      5  C   UNL     1       7.005   5.133  14.452  0.00  0.00    +0.000 A 
ATOM      6  C   UNL     1       7.725   4.997  13.261  0.00  0.00    +0.000 A 
ATOM      7  C   UNL     1       7.250   4.144  12.263  0.00  0.00    +0.000 A 
ATOM      8  C   UNL     1       6.051   3.444  12.447  0.00  0.00    +0.000 A 
ATOM      9  C   UNL     1       5.327   3.607  13.628  0.00  0.00    +0.000 A 
ATOM     10  C   UNL     1       5.810   4.450  14.630  0.00  0.00    +0.000 A 
ATOM     11  C   UNL     1       5.081   4.641  15.898  0.00  0.00    +0.000 A 
ATOM     12  O   UNL     1       3.935   4.206  15.986  0.00  0.00    +0.000 OA
ATOM     13  H   UNL     1       8.358   6.458  15.332  0.00  0.00    +0.000 HD
ENDROOT
BRANCH   1  14
ATOM     14  C   UNL     1       5.085   5.306  18.246  0.00  0.00    +0.000 C 
BRANCH  14  15
ATOM     15  C   UNL     1       5.250   3.946  18.939  0.00  0.00    +0.000 C 
BRANCH  15  16
ATOM     16  C   UNL     1       4.468   3.889  20.264  0.00  0.00    +0.000 C 
BRANCH  16  22
ATOM     17  C   UNL     1       2.069   4.253  19.803  0.00  0.00    +0.000 C 
ATOM     18  C   UNL     1       0.693   3.570  19.602  0.00  0.00    +0.000 C 
ATOM     19  C   UNL     1       0.740   2.421  18.608  0.00  0.00    +0.000 C 
ATOM     20  C   UNL     1       1.829   1.448  19.015  0.00  0.00    +0.000 C 
ATOM     21  C   UNL     1       3.167   2.166  19.149  0.00  0.00    +0.000 C 
ATOM     22  N   UNL     1       3.130   3.261  20.141  0.00  0.00    +0.000 NA
BRANCH  17  24
ATOM     23  C   UNL     1       2.023   6.795  20.306  0.00  0.00    +0.000 C 
ATOM     24  C   UNL     1       1.908   5.379  20.861  0.00  0.00    +0.000 C 
ENDBRANCH  17  24
ENDBRANCH  16  22
ENDBRANCH  15  16
ENDBRANCH  14  15
ENDBRANCH   1  14
TORSDOF 5
ENDMDL
MODEL 7
REMARK VINA RESULT:      -6.9      2.526      4.121
REMARK  Name = 
REMARK  6 active torsions:
REMARK  status: ('A' for Active; 'I' for Inactive)
REMARK    1  A    between atoms: C_1  and  C_2
REMARK    2  A    between atoms: C_2  and  C_3
REMARK    3  A    between atoms: N_8  and  C_9
REMARK    4  A    between atoms: C_9  and  C_10
REMARK    5  A    between atoms: C_10  and  C_11
REMARK    6  A    between atoms: C_11  and  N_12
REMARK                            x       y       z     vdW  Elec       q    Type
REMARK                         _______ _______ _______ _____ _____    ______ ____
ROOT
ATOM      1  N   UNL     1       3.648   4.388  19.099  0.00  0.00    +0.000 N 
ATOM      2  C   UNL     1       3.022   3.566  18.165  0.00  0.00    +0.000 A 
ATOM      3  S   UNL     1       1.549   2.779  18.332  0.00  0.00    +0.000 S 
ATOM      4  N   UNL     1       3.670   3.373  16.969  0.00  0.00    +0.000 N 
ATOM      5  C   UNL     1       4.856   4.008  16.621  0.00  0.00    +0.000 A 
ATOM      6  C   UNL     1       5.372   3.857  15.331  0.00  0.00    +0.000 A 
ATOM      7  C   UNL     1       6.539   4.536  14.972  0.00  0.00    +0.000 A 
ATOM      8  C   UNL     1       7.195   5.349  15.904  0.00  0.00    +0.000 A 
ATOM      9  C   UNL     1       6.686   5.473  17.197  0.00  0.00    +0.000 A 
ATOM     10  C   UNL     1       5.513   4.804  17.550  0.00  0.00    +0.000 A 
ATOM     11  C   UNL     1       4.934   4.917  18.902  0.00  0.00    +0.000 A 
ATOM     12  O   UNL     1       5.606   5.448  19.783  0.00  0.00    +0.000 OA
ATOM     13  H   UNL     1       3.201   2.777  16.299  0.00  0.00    +0.000 HD
ENDROOT
BRANCH   1  14
ATOM     14  C   UNL     1       3.010   4.717  20.390  0.00  0.00    +0.000 C 
BRANCH  14  15
ATOM     15  C   UNL     1       1.885   5.750  20.221  0.00  0.00    +0.000 C 
BRANCH  15  16
ATOM     16  C   UNL     1       2.404   7.046  19.572  0.00  0.00    +0.000 C 
BRANCH  16  22
ATOM     17  C   UNL     1       1.050   9.085  19.238  0.00  0.00    +0.000 C 
ATOM     18  C   UNL     1       0.433  10.330  19.923  0.00  0.00    +0.000 C 
ATOM     19  C   UNL     1      -0.336   9.990  21.189  0.00  0.00    +0.000 C 
ATOM     20  C   UNL     1       0.551   9.185  22.117  0.00  0.00    +0.000 C 
ATOM     21  C   UNL     1       1.089   7.949  21.405  0.00  0.00    +0.000 C 
ATOM     22  N   UNL     1       1.866   8.281  20.193  0.00  0.00    +0.000 NA
BRANCH  17  24
ATOM     23  C   UNL     1       2.229  11.029  17.993  0.00  0.00    +0.000 C 
ATOM     24  C   UNL     1       1.838   9.554  17.985  0.00  0.00    +0.000 C 
ENDBRANCH  17  24
ENDBRANCH  16  22
ENDBRANCH  15  16
ENDBRANCH  14  15
ENDBRANCH   1  14
TORSDOF 5
ENDMDL
MODEL 8
REMARK VINA RESULT:      -6.9      4.503      7.019
REMARK  Name = 
REMARK  6 active torsions:
REMARK  status: ('A' for Active; 'I' for Inactive)
REMARK    1  A    between atoms: C_1  and  C_2
REMARK    2  A    between atoms: C_2  and  C_3
REMARK    3  A    between atoms: N_8  and  C_9
REMARK    4  A    between atoms: C_9  and  C_10
REMARK    5  A    between atoms: C_10  and  C_11
REMARK    6  A    between atoms: C_11  and  N_12
REMARK                            x       y       z     vdW  Elec       q    Type
REMARK                         _______ _______ _______ _____ _____    ______ ____
ROOT
ATOM      1  N   UNL     1       2.133   7.719  19.283  0.00  0.00    +0.000 N 
ATOM      2  C   UNL     1       1.654   7.573  20.583  0.00  0.00    +0.000 A 
ATOM      3  S   UNL     1       1.197   8.796  21.639  0.00  0.00    +0.000 S 
ATOM      4  N   UNL     1       1.536   6.292  21.066  0.00  0.00    +0.000 N 
ATOM      5  C   UNL     1       1.787   5.155  20.308  0.00  0.00    +0.000 A 
ATOM      6  C   UNL     1       1.510   3.891  20.839  0.00  0.00    +0.000 A 
ATOM      7  C   UNL     1       1.720   2.754  20.056  0.00  0.00    +0.000 A 
ATOM      8  C   UNL     1       2.222   2.879  18.755  0.00  0.00    +0.000 A 
ATOM      9  C   UNL     1       2.520   4.142  18.244  0.00  0.00    +0.000 A 
ATOM     10  C   UNL     1       2.297   5.278  19.023  0.00  0.00    +0.000 A 
ATOM     11  C   UNL     1       2.588   6.633  18.517  0.00  0.00    +0.000 A 
ATOM     12  O   UNL     1       3.222   6.743  17.470  0.00  0.00    +0.000 OA
ATOM     13  H   UNL     1       1.182   6.202  22.010  0.00  0.00    +0.000 HD
ENDROOT
BRANCH   1  14
ATOM     14  C   UNL     1       2.236   9.045  18.642  0.00  0.00    +0.000 C 
BRANCH  14  15
ATOM     15  C   UNL     1       0.943   9.422  17.904  0.00  0.00    +0.000 C 
BRANCH  15  16
ATOM     16  C   UNL     1       0.230  10.605  18.585  0.00  0.00    +0.000 C 
BRANCH  16  22
ATOM     17  C   UNL     1      -1.901  11.836  18.784  0.00  0.00    +0.000 C 
ATOM     18  C   UNL     1      -3.442  11.744  18.654  0.00  0.00    +0.000 C 
ATOM     19  C   UNL     1      -3.891  11.119  17.343  0.00  0.00    +0.000 C 
ATOM     20  C   UNL     1      -3.201   9.782  17.161  0.00  0.00    +0.000 C 
ATOM     21  C   UNL     1      -1.688   9.943  17.249  0.00  0.00    +0.000 C 
ATOM     22  N   UNL     1      -1.250  10.518  18.537  0.00  0.00    +0.000 NA
BRANCH  17  24
ATOM     23  C   UNL     1      -2.771  12.738  21.053  0.00  0.00    +0.000 C 
ATOM     24  C   UNL     1      -1.561  12.451  20.169  0.00  0.00    +0.000 C 
ENDBRANCH  17  24
ENDBRANCH  16  22
ENDBRANCH  15  16
ENDBRANCH  14  15
ENDBRANCH   1  14
TORSDOF 5
ENDMDL
MODEL 9
REMARK VINA RESULT:      -6.9      4.071      9.050
REMARK  Name = 
REMARK  6 active torsions:
REMARK  status: ('A' for Active; 'I' for Inactive)
REMARK    1  A    between atoms: C_1  and  C_2
REMARK    2  A    between atoms: C_2  and  C_3
REMARK    3  A    between atoms: N_8  and  C_9
REMARK    4  A    between atoms: C_9  and  C_10
REMARK    5  A    between atoms: C_10  and  C_11
REMARK    6  A    between atoms: C_11  and  N_12
REMARK                            x       y       z     vdW  Elec       q    Type
REMARK                         _______ _______ _______ _____ _____    ______ ____
ROOT
ATOM      1  N   UNL     1       1.010   9.160  20.769  0.00  0.00    +0.000 N 
ATOM      2  C   UNL     1       0.723   9.760  19.546  0.00  0.00    +0.000 A 
ATOM      3  S   UNL     1       1.340   9.341  18.041  0.00  0.00    +0.000 S 
ATOM      4  N   UNL     1      -0.163  10.809  19.555  0.00  0.00    +0.000 N 
ATOM      5  C   UNL     1      -0.836  11.241  20.692  0.00  0.00    +0.000 A 
ATOM      6  C   UNL     1      -1.821  12.228  20.583  0.00  0.00    +0.000 A 
ATOM      7  C   UNL     1      -2.528  12.624  21.721  0.00  0.00    +0.000 A 
ATOM      8  C   UNL     1      -2.238  12.049  22.964  0.00  0.00    +0.000 A 
ATOM      9  C   UNL     1      -1.236  11.084  23.067  0.00  0.00    +0.000 A 
ATOM     10  C   UNL     1      -0.540  10.680  21.927  0.00  0.00    +0.000 A 
ATOM     11  C   UNL     1       0.519   9.655  21.989  0.00  0.00    +0.000 A 
ATOM     12  O   UNL     1       0.927   9.301  23.093  0.00  0.00    +0.000 OA
ATOM     13  H   UNL     1      -0.365  11.231  18.658  0.00  0.00    +0.000 HD
ENDROOT
BRANCH   1  14
ATOM     14  C   UNL     1       1.896   7.983  20.865  0.00  0.00    +0.000 C 
BRANCH  14  15
ATOM     15  C   UNL     1       1.105   6.668  20.790  0.00  0.00    +0.000 C 
BRANCH  15  16
ATOM     16  C   UNL     1       2.044   5.449  20.734  0.00  0.00    +0.000 C 
BRANCH  16  22
ATOM     17  C   UNL     1       3.218   4.521  18.769  0.00  0.00    +0.000 C 
ATOM     18  C   UNL     1       3.085   3.626  17.511  0.00  0.00    +0.000 C 
ATOM     19  C   UNL     1       2.451   2.277  17.807  0.00  0.00    +0.000 C 
ATOM     20  C   UNL     1       1.133   2.487  18.525  0.00  0.00    +0.000 C 
ATOM     21  C   UNL     1       1.333   3.331  19.778  0.00  0.00    +0.000 C 
ATOM     22  N   UNL     1       1.918   4.656  19.486  0.00  0.00    +0.000 NA
BRANCH  17  24
ATOM     23  C   UNL     1       4.461   5.885  16.949  0.00  0.00    +0.000 C 
ATOM     24  C   UNL     1       3.840   5.879  18.342  0.00  0.00    +0.000 C 
ENDBRANCH  17  24
ENDBRANCH  16  22
ENDBRANCH  15  16
ENDBRANCH  14  15
ENDBRANCH   1  14
TORSDOF 5
ENDMDL
