MODEL 1
REMARK VINA RESULT:      -7.5      0.000      0.000
REMARK  Name = 
REMARK  4 active torsions:
REMARK  status: ('A' for Active; 'I' for Inactive)
REMARK    1  A    between atoms: C_4  and  C_5
REMARK    2  A    between atoms: C_5  and  S_6
REMARK    3  A    between atoms: S_6  and  C_7
REMARK    4  A    between atoms: C_10  and  C_11
REMARK                            x       y       z     vdW  Elec       q    Type
REMARK                         _______ _______ _______ _____ _____    ______ ____
ROOT
ATOM      1  C   UNL     1       6.133   4.931  17.981  0.00  0.00    +0.000 A 
ATOM      2  N   UNL     1       7.415   4.651  18.095  0.00  0.00    +0.000 NA
ATOM      3  N   UNL     1       7.885   4.382  16.832  0.00  0.00    +0.000 NA
ATOM      4  C   UNL     1       6.864   4.525  16.014  0.00  0.00    +0.000 A 
ATOM      5  O   UNL     1       5.701   4.857  16.675  0.00  0.00    +0.000 OA
ENDROOT
BRANCH   4   6
ATOM      6  C   UNL     1       6.845   4.396  14.565  0.00  0.00    +0.000 A 
ATOM      7  C   UNL     1       5.992   3.537  13.868  0.00  0.00    +0.000 A 
ATOM      8  C   UNL     1       6.037   3.491  12.471  0.00  0.00    +0.000 A 
ATOM      9  C   UNL     1       6.938   4.310  11.809  0.00  0.00    +0.000 A 
ATOM     10  N   UNL     1       7.777   5.153  12.442  0.00  0.00    +0.000 NA
ATOM     11  C   UNL     1       7.710   5.177  13.797  0.00  0.00    +0.000 A 
ENDBRANCH   4   6
BRANCH   1  12
ATOM     12  S   UNL     1       5.185   5.442  19.342  0.00  0.00    +0.000 S 
BRANCH  12  13
ATOM     13  C   UNL     1       3.593   5.874  18.601  0.00  0.00    +0.000 C 
BRANCH  13  17
ATOM     14  C   UNL     1       0.705   2.764  19.460  0.00  0.00    +0.000 A 
ATOM     15  C   UNL     1       0.880   3.821  20.349  0.00  0.00    +0.000 A 
ATOM     16  C   UNL     1       1.802   4.830  20.063  0.00  0.00    +0.000 A 
ATOM     17  C   UNL     1       2.561   4.799  18.881  0.00  0.00    +0.000 A 
ATOM     18  C   UNL     1       2.376   3.723  17.998  0.00  0.00    +0.000 A 
ATOM     19  C   UNL     1       1.453   2.713  18.285  0.00  0.00    +0.000 A 
ENDBRANCH  13  17
ENDBRANCH  12  13
ENDBRANCH   1  12
TORSDOF 4
ENDMDL
MODEL 2
REMARK VINA RESULT:      -7.3      0.663      1.558
REMARK  Name = 
REMARK  4 active torsions:
REMARK  status: ('A' for Active; 'I' for Inactive)
REMARK    1  A    between atoms: C_4  and  C_5
REMARK    2  A    between atoms: C_5  and  S_6
REMARK    3  A    between atoms: S_6  and  C_7
REMARK    4  A    between atoms: C_10  and  C_11
REMARK                            x       y       z     vdW  Elec       q    Type
REMARK                         _______ _______ _______ _____ _____    ______ ____
ROOT
ATOM      1  C   UNL     1       6.131   5.012  17.959  0.00  0.00    +0.000 A 
ATOM      2  N   UNL     1       7.398   4.684  18.110  0.00  0.00    +0.000 NA
ATOM      3  N   UNL     1       7.902   4.428  16.858  0.00  0.00    +0.000 NA
ATOM      4  C   UNL     1       6.917   4.625  16.009  0.00  0.00    +0.000 A 
ATOM      5  O   UNL     1       5.743   4.982  16.638  0.00  0.00    +0.000 OA
ENDROOT
BRANCH   4   6
ATOM      6  C   UNL     1       6.944   4.530  14.558  0.00  0.00    +0.000 A 
ATOM      7  C   UNL     1       7.763   5.311  13.738  0.00  0.00    +0.000 A 
ATOM      8  C   UNL     1       7.728   5.140  12.351  0.00  0.00    +0.000 A 
ATOM      9  C   UNL     1       6.873   4.186  11.821  0.00  0.00    +0.000 A 
ATOM     10  N   UNL     1       6.068   3.412  12.574  0.00  0.00    +0.000 NA
ATOM     11  C   UNL     1       6.123   3.600  13.917  0.00  0.00    +0.000 A 
ENDBRANCH   4   6
BRANCH   1  12
ATOM     12  S   UNL     1       5.153   5.524  19.299  0.00  0.00    +0.000 S 
BRANCH  12  13
ATOM     13  C   UNL     1       3.532   5.804  18.547  0.00  0.00    +0.000 C 
BRANCH  13  17
ATOM     14  C   UNL     1       0.655   2.794  19.734  0.00  0.00    +0.000 A 
ATOM     15  C   UNL     1       1.134   2.826  18.427  0.00  0.00    +0.000 A 
ATOM     16  C   UNL     1       2.074   3.790  18.050  0.00  0.00    +0.000 A 
ATOM     17  C   UNL     1       2.549   4.733  18.976  0.00  0.00    +0.000 A 
ATOM     18  C   UNL     1       2.050   4.690  20.288  0.00  0.00    +0.000 A 
ATOM     19  C   UNL     1       1.111   3.726  20.664  0.00  0.00    +0.000 A 
ENDBRANCH  13  17
ENDBRANCH  12  13
ENDBRANCH   1  12
TORSDOF 4
ENDMDL
MODEL 3
REMARK VINA RESULT:      -7.2      4.908      8.047
REMARK  Name = 
REMARK  4 active torsions:
REMARK  status: ('A' for Active; 'I' for Inactive)
REMARK    1  A    between atoms: C_4  and  C_5
REMARK    2  A    between atoms: C_5  and  S_6
REMARK    3  A    between atoms: S_6  and  C_7
REMARK    4  A    between atoms: C_10  and  C_11
REMARK                            x       y       z     vdW  Elec       q    Type
REMARK                         _______ _______ _______ _____ _____    ______ ____
ROOT
ATOM      1  C   UNL     1       2.592   7.869  18.299  0.00  0.00    +0.000 A 
ATOM      2  N   UNL     1       2.183   8.872  17.549  0.00  0.00    +0.000 NA
ATOM      3  N   UNL     1       1.355   9.647  18.324  0.00  0.00    +0.000 NA
ATOM      4  C   UNL     1       1.313   9.080  19.511  0.00  0.00    +0.000 A 
ATOM      5  O   UNL     1       2.064   7.925  19.570  0.00  0.00    +0.000 OA
ENDROOT
BRANCH   4   6
ATOM      6  C   UNL     1       0.613   9.533  20.703  0.00  0.00    +0.000 A 
ATOM      7  C   UNL     1       0.767   8.957  21.967  0.00  0.00    +0.000 A 
ATOM      8  C   UNL     1       0.060   9.470  23.058  0.00  0.00    +0.000 A 
ATOM      9  C   UNL     1      -0.784  10.550  22.854  0.00  0.00    +0.000 A 
ATOM     10  N   UNL     1      -0.962  11.135  21.654  0.00  0.00    +0.000 NA
ATOM     11  C   UNL     1      -0.262  10.617  20.613  0.00  0.00    +0.000 A 
ENDBRANCH   4   6
BRANCH   1  12
ATOM     12  S   UNL     1       3.754   6.714  17.727  0.00  0.00    +0.000 S 
BRANCH  12  13
ATOM     13  C   UNL     1       4.040   5.662  19.170  0.00  0.00    +0.000 C 
BRANCH  13  17
ATOM     14  C   UNL     1       0.713   2.939  19.680  0.00  0.00    +0.000 A 
ATOM     15  C   UNL     1       1.263   3.142  18.418  0.00  0.00    +0.000 A 
ATOM     16  C   UNL     1       2.346   4.011  18.258  0.00  0.00    +0.000 A 
ATOM     17  C   UNL     1       2.896   4.686  19.360  0.00  0.00    +0.000 A 
ATOM     18  C   UNL     1       2.325   4.474  20.625  0.00  0.00    +0.000 A 
ATOM     19  C   UNL     1       1.242   3.605  20.784  0.00  0.00    +0.000 A 
ENDBRANCH  13  17
ENDBRANCH  12  13
ENDBRANCH   1  12
TORSDOF 4
ENDMDL
MODEL 4
REMARK VINA RESULT:      -7.1      4.902      7.963
REMARK  Name = 
REMARK  4 active torsions:
REMARK  status: ('A' for Active; 'I' for Inactive)
REMARK    1  A    between atoms: C_4  and  C_5
REMARK    2  A    between atoms: C_5  and  S_6
REMARK    3  A    between atoms: S_6  and  C_7
REMARK    4  A    between atoms: C_10  and  C_11
REMARK                            x       y       z     vdW  Elec       q    Type
REMARK                         _______ _______ _______ _____ _____    ______ ____
ROOT
ATOM      1  C   UNL     1       2.599   7.892  18.249  0.00  0.00    +0.000 A 
ATOM      2  N   UNL     1       2.142   8.870  17.494  0.00  0.00    +0.000 NA
ATOM      3  N   UNL     1       1.307   9.630  18.277  0.00  0.00    +0.000 NA
ATOM      4  C   UNL     1       1.310   9.081  19.472  0.00  0.00    +0.000 A 
ATOM      5  O   UNL     1       2.098   7.951  19.531  0.00  0.00    +0.000 OA
ENDROOT
BRANCH   4   6
ATOM      6  C   UNL     1       0.623   9.529  20.673  0.00  0.00    +0.000 A 
ATOM      7  C   UNL     1       0.811   8.966  21.938  0.00  0.00    +0.000 A 
ATOM      8  C   UNL     1       0.113   9.474  23.038  0.00  0.00    +0.000 A 
ATOM      9  C   UNL     1      -0.755  10.536  22.841  0.00  0.00    +0.000 A 
ATOM     10  N   UNL     1      -0.966  11.108  21.640  0.00  0.00    +0.000 NA
ATOM     11  C   UNL     1      -0.275  10.595  20.591  0.00  0.00    +0.000 A 
ENDBRANCH   4   6
BRANCH   1  12
ATOM     12  S   UNL     1       3.783   6.765  17.666  0.00  0.00    +0.000 S 
BRANCH  12  13
ATOM     13  C   UNL     1       4.046   5.670  19.082  0.00  0.00    +0.000 C 
BRANCH  13  17
ATOM     14  C   UNL     1       0.725   2.952  19.652  0.00  0.00    +0.000 A 
ATOM     15  C   UNL     1       1.241   3.661  20.733  0.00  0.00    +0.000 A 
ATOM     16  C   UNL     1       2.304   4.549  20.544  0.00  0.00    +0.000 A 
ATOM     17  C   UNL     1       2.864   4.742  19.270  0.00  0.00    +0.000 A 
ATOM     18  C   UNL     1       2.334   4.014  18.191  0.00  0.00    +0.000 A 
ATOM     19  C   UNL     1       1.271   3.127  18.381  0.00  0.00    +0.000 A 
ENDBRANCH  13  17
ENDBRANCH  12  13
ENDBRANCH   1  12
TORSDOF 4
ENDMDL
MODEL 5
REMARK VINA RESULT:      -7.0      1.271      1.574
REMARK  Name = 
REMARK  4 active torsions:
REMARK  status: ('A' for Active; 'I' for Inactive)
REMARK    1  A    between atoms: C_4  and  C_5
REMARK    2  A    between atoms: C_5  and  S_6
REMARK    3  A    between atoms: S_6  and  C_7
REMARK    4  A    between atoms: C_10  and  C_11
REMARK                            x       y       z     vdW  Elec       q    Type
REMARK                         _______ _______ _______ _____ _____    ______ ____
ROOT
ATOM      1  C   UNL     1       6.196   5.296  17.811  0.00  0.00    +0.000 A 
ATOM      2  N   UNL     1       7.059   6.273  17.620  0.00  0.00    +0.000 NA
ATOM      3  N   UNL     1       7.447   6.219  16.304  0.00  0.00    +0.000 NA
ATOM      4  C   UNL     1       6.789   5.218  15.759  0.00  0.00    +0.000 A 
ATOM      5  O   UNL     1       5.981   4.564  16.665  0.00  0.00    +0.000 OA
ENDROOT
BRANCH   4   6
ATOM      6  C   UNL     1       6.811   4.771  14.375  0.00  0.00    +0.000 A 
ATOM      7  C   UNL     1       7.682   5.274  13.405  0.00  0.00    +0.000 A 
ATOM      8  C   UNL     1       7.636   4.772  12.100  0.00  0.00    +0.000 A 
ATOM      9  C   UNL     1       6.719   3.776  11.803  0.00  0.00    +0.000 A 
ATOM     10  N   UNL     1       5.863   3.264  12.708  0.00  0.00    +0.000 NA
ATOM     11  C   UNL     1       5.930   3.769  13.965  0.00  0.00    +0.000 A 
ENDBRANCH   4   6
BRANCH   1  12
ATOM     12  S   UNL     1       5.373   5.086  19.325  0.00  0.00    +0.000 S 
BRANCH  12  13
ATOM     13  C   UNL     1       4.770   3.383  19.238  0.00  0.00    +0.000 C 
BRANCH  13  17
ATOM     14  C   UNL     1       0.486   3.202  19.842  0.00  0.00    +0.000 A 
ATOM     15  C   UNL     1       1.249   4.147  20.523  0.00  0.00    +0.000 A 
ATOM     16  C   UNL     1       2.630   4.212  20.315  0.00  0.00    +0.000 A 
ATOM     17  C   UNL     1       3.266   3.336  19.421  0.00  0.00    +0.000 A 
ATOM     18  C   UNL     1       2.482   2.385  18.747  0.00  0.00    +0.000 A 
ATOM     19  C   UNL     1       1.102   2.320  18.955  0.00  0.00    +0.000 A 
ENDBRANCH  13  17
ENDBRANCH  12  13
ENDBRANCH   1  12
TORSDOF 4
ENDMDL
MODEL 6
REMARK VINA RESULT:      -7.0      5.208      8.297
REMARK  Name = 
REMARK  4 active torsions:
REMARK  status: ('A' for Active; 'I' for Inactive)
REMARK    1  A    between atoms: C_4  and  C_5
REMARK    2  A    between atoms: C_5  and  S_6
REMARK    3  A    between atoms: S_6  and  C_7
REMARK    4  A    between atoms: C_10  and  C_11
REMARK                            x       y       z     vdW  Elec       q    Type
REMARK                         _______ _______ _______ _____ _____    ______ ____
ROOT
ATOM      1  C   UNL     1       2.230   8.250  18.377  0.00  0.00    +0.000 A 
ATOM      2  N   UNL     1       1.848   9.246  17.603  0.00  0.00    +0.000 NA
ATOM      3  N   UNL     1       1.055  10.069  18.365  0.00  0.00    +0.000 NA
ATOM      4  C   UNL     1       1.006   9.537  19.567  0.00  0.00    +0.000 A 
ATOM      5  O   UNL     1       1.718   8.359  19.651  0.00  0.00    +0.000 OA
ENDROOT
BRANCH   4   6
ATOM      6  C   UNL     1       0.334  10.045  20.753  0.00  0.00    +0.000 A 
ATOM      7  C   UNL     1      -0.682  11.004  20.725  0.00  0.00    +0.000 A 
ATOM      8  C   UNL     1      -1.278  11.423  21.918  0.00  0.00    +0.000 A 
ATOM      9  C   UNL     1      -0.840  10.868  23.110  0.00  0.00    +0.000 A 
ATOM     10  N   UNL     1       0.135   9.942  23.182  0.00  0.00    +0.000 NA
ATOM     11  C   UNL     1       0.695   9.553  22.008  0.00  0.00    +0.000 A 
ENDBRANCH   4   6
BRANCH   1  12
ATOM     12  S   UNL     1       3.346   7.041  17.825  0.00  0.00    +0.000 S 
BRANCH  12  13
ATOM     13  C   UNL     1       3.593   6.005  19.287  0.00  0.00    +0.000 C 
BRANCH  13  17
ATOM     14  C   UNL     1       0.768   2.727  19.433  0.00  0.00    +0.000 A 
ATOM     15  C   UNL     1       0.982   3.516  20.560  0.00  0.00    +0.000 A 
ATOM     16  C   UNL     1       1.885   4.582  20.506  0.00  0.00    +0.000 A 
ATOM     17  C   UNL     1       2.582   4.877  19.323  0.00  0.00    +0.000 A 
ATOM     18  C   UNL     1       2.357   4.067  18.197  0.00  0.00    +0.000 A 
ATOM     19  C   UNL     1       1.455   3.001  18.252  0.00  0.00    +0.000 A 
ENDBRANCH  13  17
ENDBRANCH  12  13
ENDBRANCH   1  12
TORSDOF 4
ENDMDL
MODEL 7
REMARK VINA RESULT:      -7.0      2.479      3.377
REMARK  Name = 
REMARK  4 active torsions:
REMARK  status: ('A' for Active; 'I' for Inactive)
REMARK    1  A    between atoms: C_4  and  C_5
REMARK    2  A    between atoms: C_5  and  S_6
REMARK    3  A    between atoms: S_6  and  C_7
REMARK    4  A    between atoms: C_10  and  C_11
REMARK                            x       y       z     vdW  Elec       q    Type
REMARK                         _______ _______ _______ _____ _____    ______ ____
ROOT
ATOM      1  C   UNL     1       2.824   6.246  19.416  0.00  0.00    +0.000 A 
ATOM      2  N   UNL     1       2.504   7.263  18.642  0.00  0.00    +0.000 NA
ATOM      3  N   UNL     1       3.338   7.219  17.551  0.00  0.00    +0.000 NA
ATOM      4  C   UNL     1       4.114   6.169  17.714  0.00  0.00    +0.000 A 
ATOM      5  O   UNL     1       3.860   5.504  18.894  0.00  0.00    +0.000 OA
ENDROOT
BRANCH   4   6
ATOM      6  C   UNL     1       5.139   5.657  16.817  0.00  0.00    +0.000 A 
ATOM      7  C   UNL     1       4.979   4.524  16.014  0.00  0.00    +0.000 A 
ATOM      8  C   UNL     1       6.019   4.114  15.173  0.00  0.00    +0.000 A 
ATOM      9  C   UNL     1       7.191   4.853  15.158  0.00  0.00    +0.000 A 
ATOM     10  N   UNL     1       7.386   5.950  15.914  0.00  0.00    +0.000 NA
ATOM     11  C   UNL     1       6.361   6.324  16.721  0.00  0.00    +0.000 A 
ENDBRANCH   4   6
BRANCH   1  12
ATOM     12  S   UNL     1       1.925   5.873  20.854  0.00  0.00    +0.000 S 
BRANCH  12  13
ATOM     13  C   UNL     1       0.970   4.412  20.379  0.00  0.00    +0.000 C 
BRANCH  13  17
ATOM     14  C   UNL     1       3.526   1.637  18.254  0.00  0.00    +0.000 A 
ATOM     15  C   UNL     1       3.771   1.928  19.594  0.00  0.00    +0.000 A 
ATOM     16  C   UNL     1       2.936   2.813  20.281  0.00  0.00    +0.000 A 
ATOM     17  C   UNL     1       1.842   3.418  19.639  0.00  0.00    +0.000 A 
ATOM     18  C   UNL     1       1.614   3.118  18.286  0.00  0.00    +0.000 A 
ATOM     19  C   UNL     1       2.449   2.232  17.600  0.00  0.00    +0.000 A 
ENDBRANCH  13  17
ENDBRANCH  12  13
ENDBRANCH   1  12
TORSDOF 4
ENDMDL
MODEL 8
REMARK VINA RESULT:      -7.0      3.237      4.127
REMARK  Name = 
REMARK  4 active torsions:
REMARK  status: ('A' for Active; 'I' for Inactive)
REMARK    1  A    between atoms: C_4  and  C_5
REMARK    2  A    between atoms: C_5  and  S_6
REMARK    3  A    between atoms: S_6  and  C_7
REMARK    4  A    between atoms: C_10  and  C_11
REMARK                            x       y       z     vdW  Elec       q    Type
REMARK                         _______ _______ _______ _____ _____    ______ ____
ROOT
ATOM      1  C   UNL     1       4.010   2.867  18.459  0.00  0.00    +0.000 A 
ATOM      2  N   UNL     1       4.549   2.709  19.651  0.00  0.00    +0.000 NA
ATOM      3  N   UNL     1       5.516   3.674  19.789  0.00  0.00    +0.000 NA
ATOM      4  C   UNL     1       5.507   4.377  18.677  0.00  0.00    +0.000 A 
ATOM      5  O   UNL     1       4.583   3.910  17.766  0.00  0.00    +0.000 OA
ENDROOT
BRANCH   4   6
ATOM      6  C   UNL     1       6.311   5.541  18.338  0.00  0.00    +0.000 A 
ATOM      7  C   UNL     1       7.494   5.892  18.995  0.00  0.00    +0.000 A 
ATOM      8  C   UNL     1       8.206   7.025  18.590  0.00  0.00    +0.000 A 
ATOM      9  C   UNL     1       7.715   7.776  17.534  0.00  0.00    +0.000 A 
ATOM     10  N   UNL     1       6.581   7.473  16.873  0.00  0.00    +0.000 NA
ATOM     11  C   UNL     1       5.910   6.368  17.288  0.00  0.00    +0.000 A 
ENDBRANCH   4   6
BRANCH   1  12
ATOM     12  S   UNL     1       2.659   1.912  17.933  0.00  0.00    +0.000 S 
BRANCH  12  13
ATOM     13  C   UNL     1       1.233   2.828  18.564  0.00  0.00    +0.000 C 
BRANCH  13  17
ATOM     14  C   UNL     1       2.258   6.902  19.613  0.00  0.00    +0.000 A 
ATOM     15  C   UNL     1       1.948   5.980  20.609  0.00  0.00    +0.000 A 
ATOM     16  C   UNL     1       1.631   4.662  20.269  0.00  0.00    +0.000 A 
ATOM     17  C   UNL     1       1.623   4.246  18.927  0.00  0.00    +0.000 A 
ATOM     18  C   UNL     1       1.933   5.191  17.934  0.00  0.00    +0.000 A 
ATOM     19  C   UNL     1       2.250   6.508  18.275  0.00  0.00    +0.000 A 
ENDBRANCH  13  17
ENDBRANCH  12  13
ENDBRANCH   1  12
TORSDOF 4
ENDMDL
MODEL 9
REMARK VINA RESULT:      -6.9      1.489      1.877
REMARK  Name = 
REMARK  4 active torsions:
REMARK  status: ('A' for Active; 'I' for Inactive)
REMARK    1  A    between atoms: C_4  and  C_5
REMARK    2  A    between atoms: C_5  and  S_6
REMARK    3  A    between atoms: S_6  and  C_7
REMARK    4  A    between atoms: C_10  and  C_11
REMARK                            x       y       z     vdW  Elec       q    Type
REMARK                         _______ _______ _______ _____ _____    ______ ____
ROOT
ATOM      1  C   UNL     1       5.444   5.503  17.605  0.00  0.00    +0.000 A 
ATOM      2  N   UNL     1       5.024   6.632  17.071  0.00  0.00    +0.000 NA
ATOM      3  N   UNL     1       5.232   6.540  15.716  0.00  0.00    +0.000 NA
ATOM      4  C   UNL     1       5.757   5.353  15.496  0.00  0.00    +0.000 A 
ATOM      5  O   UNL     1       5.942   4.635  16.659  0.00  0.00    +0.000 OA
ENDROOT
BRANCH   4   6
ATOM      6  C   UNL     1       6.121   4.749  14.224  0.00  0.00    +0.000 A 
ATOM      7  C   UNL     1       5.341   3.801  13.557  0.00  0.00    +0.000 A 
ATOM      8  C   UNL     1       5.768   3.285  12.330  0.00  0.00    +0.000 A 
ATOM      9  C   UNL     1       6.968   3.735  11.802  0.00  0.00    +0.000 A 
ATOM     10  N   UNL     1       7.749   4.647  12.411  0.00  0.00    +0.000 NA
ATOM     11  C   UNL     1       7.310   5.131  13.600  0.00  0.00    +0.000 A 
ENDBRANCH   4   6
BRANCH   1  12
ATOM     12  S   UNL     1       5.252   5.166  19.298  0.00  0.00    +0.000 S 
BRANCH  12  13
ATOM     13  C   UNL     1       4.787   3.419  19.323  0.00  0.00    +0.000 C 
BRANCH  13  17
ATOM     14  C   UNL     1       0.493   3.034  19.732  0.00  0.00    +0.000 A 
ATOM     15  C   UNL     1       1.168   2.323  18.743  0.00  0.00    +0.000 A 
ATOM     16  C   UNL     1       2.556   2.438  18.622  0.00  0.00    +0.000 A 
ATOM     17  C   UNL     1       3.289   3.263  19.491  0.00  0.00    +0.000 A 
ATOM     18  C   UNL     1       2.591   3.978  20.480  0.00  0.00    +0.000 A 
ATOM     19  C   UNL     1       1.204   3.862  20.600  0.00  0.00    +0.000 A 
ENDBRANCH  13  17
ENDBRANCH  12  13
ENDBRANCH   1  12
TORSDOF 4
ENDMDL
