MODEL 1
REMARK VINA RESULT:      -8.3      0.000      0.000
REMARK  Name = 
REMARK  9 active torsions:
REMARK  status: ('A' for Active; 'I' for Inactive)
REMARK    1  A    between atoms: C_1  and  O_2
REMARK    2  A    between atoms: O_2  and  C_3
REMARK    3  A    between atoms: C_5  and  O_6
REMARK    4  A    between atoms: O_6  and  C_7
REMARK    5  A    between atoms: C_8  and  N_9
REMARK    6  A    between atoms: C_10  and  C_12
REMARK    7  A    between atoms: C_12  and  N_13
REMARK    8  A    between atoms: C_18  and  S_19
REMARK    9  A    between atoms: S_19  and  C_20
REMARK                            x       y       z     vdW  Elec       q    Type
REMARK                         _______ _______ _______ _____ _____    ______ ____
ROOT
ATOM      1  N   UNL     1       1.705   9.515  18.998  0.00  0.00    +0.000 N 
ATOM      2  N   UNL     1       1.372   8.869  20.180  0.00  0.00    +0.000 NA
ATOM      3  C   UNL     1       1.747   7.641  19.972  0.00  0.00    +0.000 A 
ATOM      4  C   UNL     1       1.608   6.495  20.881  0.00  0.00    +0.000 A 
ATOM      5  C   UNL     1       2.070   5.306  20.471  0.00  0.00    +0.000 A 
ATOM      6  C   UNL     1       2.685   5.239  19.121  0.00  0.00    +0.000 A 
ATOM      7  N   UNL     1       2.811   6.231  18.299  0.00  0.00    +0.000 NA
ATOM      8  N   UNL     1       2.329   7.417  18.768  0.00  0.00    +0.000 N 
ATOM      9  C   UNL     1       2.303   8.617  18.085  0.00  0.00    +0.000 A 
ATOM     10  O   UNL     1       2.686   8.873  16.955  0.00  0.00    +0.000 OA
ENDROOT
BRANCH   1  11
ATOM     11  C   UNL     1       1.353  10.890  18.704  0.00  0.00    +0.000 C 
BRANCH  11  13
ATOM     12  N   UNL     1      -0.594  11.197  20.127  0.00  0.00    +0.000 N 
ATOM     13  C   UNL     1       0.707  11.614  19.893  0.00  0.00    +0.000 C 
ATOM     14  O   UNL     1       1.315  12.509  20.468  0.00  0.00    +0.000 OA
ATOM     15  H   UNL     1      -0.845  10.360  19.605  0.00  0.00    +0.000 HD
BRANCH  12  19
ATOM     16  C   UNL     1      -3.593  12.722  22.728  0.00  0.00    +0.000 A 
ATOM     17  C   UNL     1      -2.497  12.045  23.276  0.00  0.00    +0.000 A 
ATOM     18  C   UNL     1      -1.470  11.505  22.479  0.00  0.00    +0.000 A 
ATOM     19  C   UNL     1      -1.534  11.655  21.083  0.00  0.00    +0.000 A 
ATOM     20  C   UNL     1      -2.624  12.359  20.540  0.00  0.00    +0.000 A 
ATOM     21  C   UNL     1      -3.647  12.885  21.344  0.00  0.00    +0.000 A 
ATOM     22 CL   UNL     1      -4.872  13.781  20.522  0.00  0.00    +0.000 Cl
BRANCH  16  24
ATOM     23  C   UNL     1      -4.468  12.623  24.943  0.00  0.00    +0.000 C 
ATOM     24  O   UNL     1      -4.421  13.262  23.674  0.00  0.00    +0.000 OA
ENDBRANCH  16  24
BRANCH  18  25
ATOM     25  O   UNL     1      -0.341  10.991  23.057  0.00  0.00    +0.000 OA
ATOM     26  C   UNL     1      -0.318   9.575  23.233  0.00  0.00    +0.000 C 
ENDBRANCH  18  25
ENDBRANCH  12  19
ENDBRANCH  11  13
ENDBRANCH   1  11
BRANCH   6  27
ATOM     27  S   UNL     1       3.212   3.640  18.643  0.00  0.00    +0.000 S 
BRANCH  27  28
ATOM     28  C   UNL     1       4.778   3.982  17.863  0.00  0.00    +0.000 A 
ATOM     29  C   UNL     1       5.867   4.485  18.587  0.00  0.00    +0.000 A 
ATOM     30  C   UNL     1       7.080   4.759  17.944  0.00  0.00    +0.000 A 
ATOM     31  C   UNL     1       7.205   4.543  16.574  0.00  0.00    +0.000 A 
ATOM     32  C   UNL     1       6.114   4.067  15.855  0.00  0.00    +0.000 A 
ATOM     33  F   UNL     1       6.228   3.876  14.534  0.00  0.00    +0.000 F 
ATOM     34  C   UNL     1       4.904   3.791  16.484  0.00  0.00    +0.000 A 
ENDBRANCH  27  28
ENDBRANCH   6  27
TORSDOF 7
ENDMDL
MODEL 2
REMARK VINA RESULT:      -8.2      0.935      1.255
REMARK  Name = 
REMARK  9 active torsions:
REMARK  status: ('A' for Active; 'I' for Inactive)
REMARK    1  A    between atoms: C_1  and  O_2
REMARK    2  A    between atoms: O_2  and  C_3
REMARK    3  A    between atoms: C_5  and  O_6
REMARK    4  A    between atoms: O_6  and  C_7
REMARK    5  A    between atoms: C_8  and  N_9
REMARK    6  A    between atoms: C_10  and  C_12
REMARK    7  A    between atoms: C_12  and  N_13
REMARK    8  A    between atoms: C_18  and  S_19
REMARK    9  A    between atoms: S_19  and  C_20
REMARK                            x       y       z     vdW  Elec       q    Type
REMARK                         _______ _______ _______ _____ _____    ______ ____
ROOT
ATOM      1  N   UNL     1       1.594   9.605  19.030  0.00  0.00    +0.000 N 
ATOM      2  N   UNL     1       1.270   8.959  20.215  0.00  0.00    +0.000 NA
ATOM      3  C   UNL     1       1.655   7.734  20.010  0.00  0.00    +0.000 A 
ATOM      4  C   UNL     1       1.528   6.590  20.923  0.00  0.00    +0.000 A 
ATOM      5  C   UNL     1       1.999   5.403  20.516  0.00  0.00    +0.000 A 
ATOM      6  C   UNL     1       2.611   5.337  19.164  0.00  0.00    +0.000 A 
ATOM      7  N   UNL     1       2.725   6.328  18.339  0.00  0.00    +0.000 NA
ATOM      8  N   UNL     1       2.234   7.511  18.805  0.00  0.00    +0.000 N 
ATOM      9  C   UNL     1       2.196   8.709  18.118  0.00  0.00    +0.000 A 
ATOM     10  O   UNL     1       2.573   8.964  16.987  0.00  0.00    +0.000 OA
ENDROOT
BRANCH   1  11
ATOM     11  C   UNL     1       1.229  10.976  18.733  0.00  0.00    +0.000 C 
BRANCH  11  13
ATOM     12  N   UNL     1      -0.679  11.311  20.200  0.00  0.00    +0.000 N 
ATOM     13  C   UNL     1       0.620  11.711  19.934  0.00  0.00    +0.000 C 
ATOM     14  O   UNL     1       1.253  12.601  20.492  0.00  0.00    +0.000 OA
ATOM     15  H   UNL     1      -0.953  10.477  19.687  0.00  0.00    +0.000 HD
BRANCH  12  19
ATOM     16  C   UNL     1      -3.592  12.889  22.867  0.00  0.00    +0.000 A 
ATOM     17  C   UNL     1      -2.508  12.174  23.390  0.00  0.00    +0.000 A 
ATOM     18  C   UNL     1      -1.511  11.615  22.569  0.00  0.00    +0.000 A 
ATOM     19  C   UNL     1      -1.591  11.784  21.177  0.00  0.00    +0.000 A 
ATOM     20  C   UNL     1      -2.669  12.526  20.660  0.00  0.00    +0.000 A 
ATOM     21  C   UNL     1      -3.663  13.072  21.487  0.00  0.00    +0.000 A 
ATOM     22 CL   UNL     1      -4.874  14.014  20.695  0.00  0.00    +0.000 Cl
BRANCH  16  24
ATOM     23  C   UNL     1      -4.207  14.820  24.123  0.00  0.00    +0.000 C 
ATOM     24  O   UNL     1      -4.389  13.440  23.833  0.00  0.00    +0.000 OA
ENDBRANCH  16  24
BRANCH  18  25
ATOM     25  O   UNL     1      -0.388  11.060  23.124  0.00  0.00    +0.000 OA
ATOM     26  C   UNL     1      -0.395   9.640  23.260  0.00  0.00    +0.000 C 
ENDBRANCH  18  25
ENDBRANCH  12  19
ENDBRANCH  11  13
ENDBRANCH   1  11
BRANCH   6  27
ATOM     27  S   UNL     1       3.149   3.741  18.690  0.00  0.00    +0.000 S 
BRANCH  27  28
ATOM     28  C   UNL     1       4.685   4.099  17.858  0.00  0.00    +0.000 A 
ATOM     29  C   UNL     1       4.829   3.933  16.474  0.00  0.00    +0.000 A 
ATOM     30  C   UNL     1       6.051   4.207  15.850  0.00  0.00    +0.000 A 
ATOM     31  C   UNL     1       7.138   4.636  16.608  0.00  0.00    +0.000 A 
ATOM     32  C   UNL     1       6.998   4.776  17.985  0.00  0.00    +0.000 A 
ATOM     33  F   UNL     1       8.047   5.172  18.716  0.00  0.00    +0.000 F 
ATOM     34  C   UNL     1       5.787   4.507  18.615  0.00  0.00    +0.000 A 
ENDBRANCH  27  28
ENDBRANCH   6  27
TORSDOF 7
ENDMDL
MODEL 3
REMARK VINA RESULT:      -8.1      3.825      5.614
REMARK  Name = 
REMARK  9 active torsions:
REMARK  status: ('A' for Active; 'I' for Inactive)
REMARK    1  A    between atoms: C_1  and  O_2
REMARK    2  A    between atoms: O_2  and  C_3
REMARK    3  A    between atoms: C_5  and  O_6
REMARK    4  A    between atoms: O_6  and  C_7
REMARK    5  A    between atoms: C_8  and  N_9
REMARK    6  A    between atoms: C_10  and  C_12
REMARK    7  A    between atoms: C_12  and  N_13
REMARK    8  A    between atoms: C_18  and  S_19
REMARK    9  A    between atoms: S_19  and  C_20
REMARK                            x       y       z     vdW  Elec       q    Type
REMARK                         _______ _______ _______ _____ _____    ______ ____
ROOT
ATOM      1  N   UNL     1      -0.191  10.589  20.965  0.00  0.00    +0.000 N 
ATOM      2  N   UNL     1      -0.051  10.684  19.587  0.00  0.00    +0.000 NA
ATOM      3  C   UNL     1       0.747   9.700  19.293  0.00  0.00    +0.000 A 
ATOM      4  C   UNL     1       1.272   9.336  17.970  0.00  0.00    +0.000 A 
ATOM      5  C   UNL     1       2.084   8.273  17.885  0.00  0.00    +0.000 A 
ATOM      6  C   UNL     1       2.395   7.546  19.142  0.00  0.00    +0.000 A 
ATOM      7  N   UNL     1       1.952   7.853  20.319  0.00  0.00    +0.000 NA
ATOM      8  N   UNL     1       1.128   8.939  20.348  0.00  0.00    +0.000 N 
ATOM      9  C   UNL     1       0.553   9.500  21.472  0.00  0.00    +0.000 A 
ATOM     10  O   UNL     1       0.652   9.166  22.640  0.00  0.00    +0.000 OA
ENDROOT
BRANCH   1  11
ATOM     11  C   UNL     1      -0.893  11.567  21.773  0.00  0.00    +0.000 C 
BRANCH  11  13
ATOM     12  N   UNL     1      -0.523  13.461  20.296  0.00  0.00    +0.000 N 
ATOM     13  C   UNL     1      -0.360  12.994  21.590  0.00  0.00    +0.000 C 
ATOM     14  O   UNL     1       0.208  13.559  22.519  0.00  0.00    +0.000 OA
ATOM     15  H   UNL     1      -1.127  12.869  19.731  0.00  0.00    +0.000 HD
BRANCH  12  19
ATOM     16  C   UNL     1       0.991  16.986  18.461  0.00  0.00    +0.000 A 
ATOM     17  C   UNL     1      -0.225  17.048  19.153  0.00  0.00    +0.000 A 
ATOM     18  C   UNL     1      -0.792  15.921  19.777  0.00  0.00    +0.000 A 
ATOM     19  C   UNL     1      -0.118  14.690  19.719  0.00  0.00    +0.000 A 
ATOM     20  C   UNL     1       1.116  14.641  19.045  0.00  0.00    +0.000 A 
ATOM     21  C   UNL     1       1.669  15.769  18.418  0.00  0.00    +0.000 A 
ATOM     22 CL   UNL     1       3.223  15.550  17.699  0.00  0.00    +0.000 Cl
BRANCH  16  24
ATOM     23  C   UNL     1       1.072  18.587  16.696  0.00  0.00    +0.000 C 
ATOM     24  O   UNL     1       1.422  18.208  18.020  0.00  0.00    +0.000 OA
ENDBRANCH  16  24
BRANCH  18  25
ATOM     25  O   UNL     1      -1.898  16.055  20.573  0.00  0.00    +0.000 OA
ATOM     26  C   UNL     1      -1.717  16.805  21.773  0.00  0.00    +0.000 C 
ENDBRANCH  18  25
ENDBRANCH  12  19
ENDBRANCH  11  13
ENDBRANCH   1  11
BRANCH   6  27
ATOM     27  S   UNL     1       3.503   6.207  18.949  0.00  0.00    +0.000 S 
BRANCH  27  28
ATOM     28  C   UNL     1       2.439   4.802  19.218  0.00  0.00    +0.000 A 
ATOM     29  C   UNL     1       1.771   4.170  18.160  0.00  0.00    +0.000 A 
ATOM     30  C   UNL     1       0.930   3.079  18.404  0.00  0.00    +0.000 A 
ATOM     31  C   UNL     1       0.743   2.622  19.706  0.00  0.00    +0.000 A 
ATOM     32  C   UNL     1       1.388   3.267  20.755  0.00  0.00    +0.000 A 
ATOM     33  F   UNL     1       1.195   2.839  22.010  0.00  0.00    +0.000 F 
ATOM     34  C   UNL     1       2.227   4.353  20.524  0.00  0.00    +0.000 A 
ENDBRANCH  27  28
ENDBRANCH   6  27
TORSDOF 7
ENDMDL
MODEL 4
REMARK VINA RESULT:      -8.1      7.421      9.364
REMARK  Name = 
REMARK  9 active torsions:
REMARK  status: ('A' for Active; 'I' for Inactive)
REMARK    1  A    between atoms: C_1  and  O_2
REMARK    2  A    between atoms: O_2  and  C_3
REMARK    3  A    between atoms: C_5  and  O_6
REMARK    4  A    between atoms: O_6  and  C_7
REMARK    5  A    between atoms: C_8  and  N_9
REMARK    6  A    between atoms: C_10  and  C_12
REMARK    7  A    between atoms: C_12  and  N_13
REMARK    8  A    between atoms: C_18  and  S_19
REMARK    9  A    between atoms: S_19  and  C_20
REMARK                            x       y       z     vdW  Elec       q    Type
REMARK                         _______ _______ _______ _____ _____    ______ ____
ROOT
ATOM      1  N   UNL     1       7.628   6.923  18.249  0.00  0.00    +0.000 N 
ATOM      2  N   UNL     1       7.171   6.996  16.941  0.00  0.00    +0.000 NA
ATOM      3  C   UNL     1       6.347   5.994  16.850  0.00  0.00    +0.000 A 
ATOM      4  C   UNL     1       5.588   5.563  15.668  0.00  0.00    +0.000 A 
ATOM      5  C   UNL     1       4.783   4.498  15.790  0.00  0.00    +0.000 A 
ATOM      6  C   UNL     1       4.727   3.831  17.115  0.00  0.00    +0.000 A 
ATOM      7  N   UNL     1       5.393   4.186  18.167  0.00  0.00    +0.000 NA
ATOM      8  N   UNL     1       6.192   5.276  17.989  0.00  0.00    +0.000 N 
ATOM      9  C   UNL     1       7.032   5.838  18.930  0.00  0.00    +0.000 A 
ATOM     10  O   UNL     1       7.242   5.496  20.082  0.00  0.00    +0.000 OA
ENDROOT
BRANCH   1  11
ATOM     11  C   UNL     1       8.680   7.765  18.785  0.00  0.00    +0.000 C 
BRANCH  11  13
ATOM     12  N   UNL     1       9.506  10.046  18.951  0.00  0.00    +0.000 N 
ATOM     13  C   UNL     1       8.538   9.238  18.376  0.00  0.00    +0.000 C 
ATOM     14  O   UNL     1       7.594   9.591  17.678  0.00  0.00    +0.000 OA
ATOM     15  H   UNL     1      10.255   9.518  19.394  0.00  0.00    +0.000 HD
BRANCH  12  19
ATOM     16  C   UNL     1      10.240  14.200  18.422  0.00  0.00    +0.000 A 
ATOM     17  C   UNL     1       9.472  13.779  19.515  0.00  0.00    +0.000 A 
ATOM     18  C   UNL     1       9.179  12.423  19.749  0.00  0.00    +0.000 A 
ATOM     19  C   UNL     1       9.680  11.449  18.869  0.00  0.00    +0.000 A 
ATOM     20  C   UNL     1      10.474  11.877  17.788  0.00  0.00    +0.000 A 
ATOM     21  C   UNL     1      10.752  13.234  17.558  0.00  0.00    +0.000 A 
ATOM     22 CL   UNL     1      11.800  13.577  16.230  0.00  0.00    +0.000 Cl
BRANCH  16  24
ATOM     23  C   UNL     1       9.552  16.398  17.805  0.00  0.00    +0.000 C 
ATOM     24  O   UNL     1      10.499  15.544  18.433  0.00  0.00    +0.000 OA
ENDBRANCH  16  24
BRANCH  18  25
ATOM     25  O   UNL     1       8.561  12.038  20.908  0.00  0.00    +0.000 OA
ATOM     26  C   UNL     1       9.235  12.377  22.119  0.00  0.00    +0.000 C 
ENDBRANCH  18  25
ENDBRANCH  12  19
ENDBRANCH  11  13
ENDBRANCH   1  11
BRANCH   6  27
ATOM     27  S   UNL     1       3.696   2.418  17.172  0.00  0.00    +0.000 S 
BRANCH  27  28
ATOM     28  C   UNL     1       2.679   2.757  18.596  0.00  0.00    +0.000 A 
ATOM     29  C   UNL     1       1.470   3.458  18.487  0.00  0.00    +0.000 A 
ATOM     30  C   UNL     1       0.699   3.723  19.625  0.00  0.00    +0.000 A 
ATOM     31  C   UNL     1       1.140   3.300  20.877  0.00  0.00    +0.000 A 
ATOM     32  C   UNL     1       2.352   2.627  20.983  0.00  0.00    +0.000 A 
ATOM     33  F   UNL     1       2.784   2.235  22.189  0.00  0.00    +0.000 F 
ATOM     34  C   UNL     1       3.125   2.358  19.858  0.00  0.00    +0.000 A 
ENDBRANCH  27  28
ENDBRANCH   6  27
TORSDOF 7
ENDMDL
MODEL 5
REMARK VINA RESULT:      -8.0      2.685      3.675
REMARK  Name = 
REMARK  9 active torsions:
REMARK  status: ('A' for Active; 'I' for Inactive)
REMARK    1  A    between atoms: C_1  and  O_2
REMARK    2  A    between atoms: O_2  and  C_3
REMARK    3  A    between atoms: C_5  and  O_6
REMARK    4  A    between atoms: O_6  and  C_7
REMARK    5  A    between atoms: C_8  and  N_9
REMARK    6  A    between atoms: C_10  and  C_12
REMARK    7  A    between atoms: C_12  and  N_13
REMARK    8  A    between atoms: C_18  and  S_19
REMARK    9  A    between atoms: S_19  and  C_20
REMARK                            x       y       z     vdW  Elec       q    Type
REMARK                         _______ _______ _______ _____ _____    ______ ____
ROOT
ATOM      1  N   UNL     1       0.880  10.248  19.882  0.00  0.00    +0.000 N 
ATOM      2  N   UNL     1       1.436  10.061  18.624  0.00  0.00    +0.000 NA
ATOM      3  C   UNL     1       1.912   8.852  18.679  0.00  0.00    +0.000 A 
ATOM      4  C   UNL     1       2.646   8.130  17.631  0.00  0.00    +0.000 A 
ATOM      5  C   UNL     1       3.048   6.878  17.892  0.00  0.00    +0.000 A 
ATOM      6  C   UNL     1       2.722   6.319  19.229  0.00  0.00    +0.000 A 
ATOM      7  N   UNL     1       2.086   6.938  20.170  0.00  0.00    +0.000 NA
ATOM      8  N   UNL     1       1.697   8.205  19.850  0.00  0.00    +0.000 N 
ATOM      9  C   UNL     1       1.040   9.093  20.680  0.00  0.00    +0.000 A 
ATOM     10  O   UNL     1       0.680   8.950  21.836  0.00  0.00    +0.000 OA
ENDROOT
BRANCH   1  11
ATOM     11  C   UNL     1       0.338  11.511  20.344  0.00  0.00    +0.000 C 
BRANCH  11  13
ATOM     12  N   UNL     1      -2.003  11.575  19.694  0.00  0.00    +0.000 N 
ATOM     13  C   UNL     1      -0.744  12.079  19.415  0.00  0.00    +0.000 C 
ATOM     14  O   UNL     1      -0.429  12.829  18.497  0.00  0.00    +0.000 OA
ATOM     15  H   UNL     1      -2.043  11.064  20.573  0.00  0.00    +0.000 HD
BRANCH  12  19
ATOM     16  C   UNL     1      -5.814  12.435  18.014  0.00  0.00    +0.000 A 
ATOM     17  C   UNL     1      -4.911  11.652  17.285  0.00  0.00    +0.000 A 
ATOM     18  C   UNL     1      -3.629  11.334  17.772  0.00  0.00    +0.000 A 
ATOM     19  C   UNL     1      -3.237  11.804  19.036  0.00  0.00    +0.000 A 
ATOM     20  C   UNL     1      -4.160  12.568  19.775  0.00  0.00    +0.000 A 
ATOM     21  C   UNL     1      -5.433  12.888  19.276  0.00  0.00    +0.000 A 
ATOM     22 CL   UNL     1      -6.464  13.771  20.341  0.00  0.00    +0.000 Cl
BRANCH  16  24
ATOM     23  C   UNL     1      -7.378  13.788  16.826  0.00  0.00    +0.000 C 
ATOM     24  O   UNL     1      -7.040  12.539  17.415  0.00  0.00    +0.000 OA
ENDBRANCH  16  24
BRANCH  18  25
ATOM     25  O   UNL     1      -2.836  10.441  17.103  0.00  0.00    +0.000 OA
ATOM     26  C   UNL     1      -2.606  10.719  15.723  0.00  0.00    +0.000 C 
ENDBRANCH  18  25
ENDBRANCH  12  19
ENDBRANCH  11  13
ENDBRANCH   1  11
BRANCH   6  27
ATOM     27  S   UNL     1       3.331   4.702  19.505  0.00  0.00    +0.000 S 
BRANCH  27  28
ATOM     28  C   UNL     1       4.909   4.753  18.677  0.00  0.00    +0.000 A 
ATOM     29  C   UNL     1       6.024   5.375  19.255  0.00  0.00    +0.000 A 
ATOM     30  C   UNL     1       7.247   5.413  18.574  0.00  0.00    +0.000 A 
ATOM     31  C   UNL     1       7.357   4.841  17.310  0.00  0.00    +0.000 A 
ATOM     32  C   UNL     1       6.242   4.246  16.730  0.00  0.00    +0.000 A 
ATOM     33  F   UNL     1       6.342   3.711  15.506  0.00  0.00    +0.000 F 
ATOM     34  C   UNL     1       5.022   4.203  17.397  0.00  0.00    +0.000 A 
ENDBRANCH  27  28
ENDBRANCH   6  27
TORSDOF 7
ENDMDL
MODEL 6
REMARK VINA RESULT:      -7.9      2.613      3.482
REMARK  Name = 
REMARK  9 active torsions:
REMARK  status: ('A' for Active; 'I' for Inactive)
REMARK    1  A    between atoms: C_1  and  O_2
REMARK    2  A    between atoms: O_2  and  C_3
REMARK    3  A    between atoms: C_5  and  O_6
REMARK    4  A    between atoms: O_6  and  C_7
REMARK    5  A    between atoms: C_8  and  N_9
REMARK    6  A    between atoms: C_10  and  C_12
REMARK    7  A    between atoms: C_12  and  N_13
REMARK    8  A    between atoms: C_18  and  S_19
REMARK    9  A    between atoms: S_19  and  C_20
REMARK                            x       y       z     vdW  Elec       q    Type
REMARK                         _______ _______ _______ _____ _____    ______ ____
ROOT
ATOM      1  N   UNL     1       1.558   9.471  19.105  0.00  0.00    +0.000 N 
ATOM      2  N   UNL     1       1.281   8.806  20.291  0.00  0.00    +0.000 NA
ATOM      3  C   UNL     1       1.693   7.594  20.064  0.00  0.00    +0.000 A 
ATOM      4  C   UNL     1       1.619   6.438  20.968  0.00  0.00    +0.000 A 
ATOM      5  C   UNL     1       2.111   5.268  20.537  0.00  0.00    +0.000 A 
ATOM      6  C   UNL     1       2.691   5.231  19.170  0.00  0.00    +0.000 A 
ATOM      7  N   UNL     1       2.759   6.233  18.352  0.00  0.00    +0.000 NA
ATOM      8  N   UNL     1       2.248   7.398  18.843  0.00  0.00    +0.000 N 
ATOM      9  C   UNL     1       2.161   8.601  18.169  0.00  0.00    +0.000 A 
ATOM     10  O   UNL     1       2.503   8.877  17.032  0.00  0.00    +0.000 OA
ENDROOT
BRANCH   1  11
ATOM     11  C   UNL     1       1.150  10.835  18.831  0.00  0.00    +0.000 C 
BRANCH  11  13
ATOM     12  N   UNL     1      -1.095  11.164  17.957  0.00  0.00    +0.000 N 
ATOM     13  C   UNL     1      -0.337  11.087  19.115  0.00  0.00    +0.000 C 
ATOM     14  O   UNL     1      -0.717  11.271  20.266  0.00  0.00    +0.000 OA
ATOM     15  H   UNL     1      -0.589  10.859  17.129  0.00  0.00    +0.000 HD
BRANCH  12  19
ATOM     16  C   UNL     1      -5.258  12.022  17.822  0.00  0.00    +0.000 A 
ATOM     17  C   UNL     1      -4.594  11.682  16.637  0.00  0.00    +0.000 A 
ATOM     18  C   UNL     1      -3.217  11.394  16.602  0.00  0.00    +0.000 A 
ATOM     19  C   UNL     1      -2.476  11.436  17.795  0.00  0.00    +0.000 A 
ATOM     20  C   UNL     1      -3.153  11.753  18.987  0.00  0.00    +0.000 A 
ATOM     21  C   UNL     1      -4.526  12.047  19.009  0.00  0.00    +0.000 A 
ATOM     22 CL   UNL     1      -5.212  12.343  20.565  0.00  0.00    +0.000 Cl
BRANCH  16  24
ATOM     23  C   UNL     1      -7.075  13.314  16.978  0.00  0.00    +0.000 C 
ATOM     24  O   UNL     1      -6.610  12.158  17.662  0.00  0.00    +0.000 OA
ENDBRANCH  16  24
BRANCH  18  25
ATOM     25  O   UNL     1      -2.638  10.915  15.458  0.00  0.00    +0.000 OA
ATOM     26  C   UNL     1      -2.999   9.587  15.084  0.00  0.00    +0.000 C 
ENDBRANCH  18  25
ENDBRANCH  12  19
ENDBRANCH  11  13
ENDBRANCH   1  11
BRANCH   6  27
ATOM     27  S   UNL     1       3.260   3.655  18.667  0.00  0.00    +0.000 S 
BRANCH  27  28
ATOM     28  C   UNL     1       4.781   4.059  17.829  0.00  0.00    +0.000 A 
ATOM     29  C   UNL     1       5.899   4.540  18.524  0.00  0.00    +0.000 A 
ATOM     30  C   UNL     1       7.075   4.864  17.838  0.00  0.00    +0.000 A 
ATOM     31  C   UNL     1       7.135   4.719  16.454  0.00  0.00    +0.000 A 
ATOM     32  C   UNL     1       6.016   4.264  15.766  0.00  0.00    +0.000 A 
ATOM     33  F   UNL     1       6.067   4.142  14.433  0.00  0.00    +0.000 F 
ATOM     34  C   UNL     1       4.842   3.940  16.438  0.00  0.00    +0.000 A 
ENDBRANCH  27  28
ENDBRANCH   6  27
TORSDOF 7
ENDMDL
MODEL 7
REMARK VINA RESULT:      -7.9      2.249      3.065
REMARK  Name = 
REMARK  9 active torsions:
REMARK  status: ('A' for Active; 'I' for Inactive)
REMARK    1  A    between atoms: C_1  and  O_2
REMARK    2  A    between atoms: O_2  and  C_3
REMARK    3  A    between atoms: C_5  and  O_6
REMARK    4  A    between atoms: O_6  and  C_7
REMARK    5  A    between atoms: C_8  and  N_9
REMARK    6  A    between atoms: C_10  and  C_12
REMARK    7  A    between atoms: C_12  and  N_13
REMARK    8  A    between atoms: C_18  and  S_19
REMARK    9  A    between atoms: S_19  and  C_20
REMARK                            x       y       z     vdW  Elec       q    Type
REMARK                         _______ _______ _______ _____ _____    ______ ____
ROOT
ATOM      1  N   UNL     1       1.567   9.091  19.528  0.00  0.00    +0.000 N 
ATOM      2  N   UNL     1       1.471   8.176  20.567  0.00  0.00    +0.000 NA
ATOM      3  C   UNL     1       1.860   7.059  20.027  0.00  0.00    +0.000 A 
ATOM      4  C   UNL     1       1.929   5.734  20.659  0.00  0.00    +0.000 A 
ATOM      5  C   UNL     1       2.366   4.705  19.921  0.00  0.00    +0.000 A 
ATOM      6  C   UNL     1       2.744   4.986  18.512  0.00  0.00    +0.000 A 
ATOM      7  N   UNL     1       2.682   6.141  17.930  0.00  0.00    +0.000 NA
ATOM      8  N   UNL     1       2.235   7.152  18.729  0.00  0.00    +0.000 N 
ATOM      9  C   UNL     1       2.039   8.466  18.351  0.00  0.00    +0.000 A 
ATOM     10  O   UNL     1       2.211   8.993  17.265  0.00  0.00    +0.000 OA
ENDROOT
BRANCH   1  11
ATOM     11  C   UNL     1       1.109  10.463  19.616  0.00  0.00    +0.000 C 
BRANCH  11  13
ATOM     12  N   UNL     1      -1.092  11.342  19.073  0.00  0.00    +0.000 N 
ATOM     13  C   UNL     1      -0.376  10.580  19.983  0.00  0.00    +0.000 C 
ATOM     14  O   UNL     1      -0.788  10.090  21.029  0.00  0.00    +0.000 OA
ATOM     15  H   UNL     1      -0.570  11.542  18.223  0.00  0.00    +0.000 HD
BRANCH  12  19
ATOM     16  C   UNL     1      -5.118  12.665  19.418  0.00  0.00    +0.000 A 
ATOM     17  C   UNL     1      -4.770  11.813  18.363  0.00  0.00    +0.000 A 
ATOM     18  C   UNL     1      -3.457  11.342  18.179  0.00  0.00    +0.000 A 
ATOM     19  C   UNL     1      -2.455  11.725  19.087  0.00  0.00    +0.000 A 
ATOM     20  C   UNL     1      -2.817  12.560  20.160  0.00  0.00    +0.000 A 
ATOM     21  C   UNL     1      -4.129  13.032  20.329  0.00  0.00    +0.000 A 
ATOM     22 CL   UNL     1      -4.414  13.987  21.739  0.00  0.00    +0.000 Cl
BRANCH  16  24
ATOM     23  C   UNL     1      -7.343  11.909  19.016  0.00  0.00    +0.000 C 
ATOM     24  O   UNL     1      -6.461  12.921  19.483  0.00  0.00    +0.000 OA
ENDBRANCH  16  24
BRANCH  18  25
ATOM     25  O   UNL     1      -3.189  10.390  17.233  0.00  0.00    +0.000 OA
ATOM     26  C   UNL     1      -2.980  10.869  15.905  0.00  0.00    +0.000 C 
ENDBRANCH  18  25
ENDBRANCH  12  19
ENDBRANCH  11  13
ENDBRANCH   1  11
BRANCH   6  27
ATOM     27  S   UNL     1       3.251   3.579  17.604  0.00  0.00    +0.000 S 
BRANCH  27  28
ATOM     28  C   UNL     1       4.867   4.068  17.033  0.00  0.00    +0.000 A 
ATOM     29  C   UNL     1       5.183   4.115  15.668  0.00  0.00    +0.000 A 
ATOM     30  C   UNL     1       6.465   4.488  15.249  0.00  0.00    +0.000 A 
ATOM     31  C   UNL     1       7.440   4.804  16.191  0.00  0.00    +0.000 A 
ATOM     32  C   UNL     1       7.130   4.733  17.545  0.00  0.00    +0.000 A 
ATOM     33  F   UNL     1       8.072   5.020  18.453  0.00  0.00    +0.000 F 
ATOM     34  C   UNL     1       5.858   4.364  17.972  0.00  0.00    +0.000 A 
ENDBRANCH  27  28
ENDBRANCH   6  27
TORSDOF 7
ENDMDL
MODEL 8
REMARK VINA RESULT:      -7.9      7.303      9.219
REMARK  Name = 
REMARK  9 active torsions:
REMARK  status: ('A' for Active; 'I' for Inactive)
REMARK    1  A    between atoms: C_1  and  O_2
REMARK    2  A    between atoms: O_2  and  C_3
REMARK    3  A    between atoms: C_5  and  O_6
REMARK    4  A    between atoms: O_6  and  C_7
REMARK    5  A    between atoms: C_8  and  N_9
REMARK    6  A    between atoms: C_10  and  C_12
REMARK    7  A    between atoms: C_12  and  N_13
REMARK    8  A    between atoms: C_18  and  S_19
REMARK    9  A    between atoms: S_19  and  C_20
REMARK                            x       y       z     vdW  Elec       q    Type
REMARK                         _______ _______ _______ _____ _____    ______ ____
ROOT
ATOM      1  N   UNL     1       7.631   6.887  18.217  0.00  0.00    +0.000 N 
ATOM      2  N   UNL     1       7.153   6.907  16.914  0.00  0.00    +0.000 NA
ATOM      3  C   UNL     1       6.282   5.940  16.895  0.00  0.00    +0.000 A 
ATOM      4  C   UNL     1       5.482   5.478  15.753  0.00  0.00    +0.000 A 
ATOM      5  C   UNL     1       4.632   4.461  15.949  0.00  0.00    +0.000 A 
ATOM      6  C   UNL     1       4.569   3.875  17.312  0.00  0.00    +0.000 A 
ATOM      7  N   UNL     1       5.271   4.258  18.331  0.00  0.00    +0.000 NA
ATOM      8  N   UNL     1       6.115   5.298  18.076  0.00  0.00    +0.000 N 
ATOM      9  C   UNL     1       6.998   5.872  18.970  0.00  0.00    +0.000 A 
ATOM     10  O   UNL     1       7.213   5.588  20.136  0.00  0.00    +0.000 OA
ENDROOT
BRANCH   1  11
ATOM     11  C   UNL     1       8.730   7.709  18.685  0.00  0.00    +0.000 C 
BRANCH  11  13
ATOM     12  N   UNL     1       9.500   9.994  18.994  0.00  0.00    +0.000 N 
ATOM     13  C   UNL     1       8.525   9.204  18.406  0.00  0.00    +0.000 C 
ATOM     14  O   UNL     1       7.535   9.581  17.788  0.00  0.00    +0.000 OA
ATOM     15  H   UNL     1      10.286   9.457  19.353  0.00  0.00    +0.000 HD
BRANCH  12  19
ATOM     16  C   UNL     1      10.071  14.201  18.756  0.00  0.00    +0.000 A 
ATOM     17  C   UNL     1       9.441  13.663  19.885  0.00  0.00    +0.000 A 
ATOM     18  C   UNL     1       9.209  12.282  20.030  0.00  0.00    +0.000 A 
ATOM     19  C   UNL     1       9.631  11.404  19.017  0.00  0.00    +0.000 A 
ATOM     20  C   UNL     1      10.287  11.949  17.898  0.00  0.00    +0.000 A 
ATOM     21  C   UNL     1      10.505  13.329  17.759  0.00  0.00    +0.000 A 
ATOM     22 CL   UNL     1      11.389  13.819  16.360  0.00  0.00    +0.000 Cl
BRANCH  16  24
ATOM     23  C   UNL     1       9.228  16.418  18.516  0.00  0.00    +0.000 C 
ATOM     24  O   UNL     1      10.298  15.547  18.857  0.00  0.00    +0.000 OA
ENDBRANCH  16  24
BRANCH  18  25
ATOM     25  O   UNL     1       8.734  11.780  21.211  0.00  0.00    +0.000 OA
ATOM     26  C   UNL     1       8.840  12.640  22.344  0.00  0.00    +0.000 C 
ENDBRANCH  18  25
ENDBRANCH  12  19
ENDBRANCH  11  13
ENDBRANCH   1  11
BRANCH   6  27
ATOM     27  S   UNL     1       3.476   2.518  17.468  0.00  0.00    +0.000 S 
BRANCH  27  28
ATOM     28  C   UNL     1       2.758   2.801  19.074  0.00  0.00    +0.000 A 
ATOM     29  C   UNL     1       3.215   2.127  20.215  0.00  0.00    +0.000 A 
ATOM     30  C   UNL     1       2.622   2.359  21.461  0.00  0.00    +0.000 A 
ATOM     31  C   UNL     1       1.561   3.255  21.571  0.00  0.00    +0.000 A 
ATOM     32  C   UNL     1       1.094   3.903  20.432  0.00  0.00    +0.000 A 
ATOM     33  F   UNL     1       0.063   4.752  20.534  0.00  0.00    +0.000 F 
ATOM     34  C   UNL     1       1.677   3.681  19.189  0.00  0.00    +0.000 A 
ENDBRANCH  27  28
ENDBRANCH   6  27
TORSDOF 7
ENDMDL
MODEL 9
REMARK VINA RESULT:      -7.8      1.731      2.319
REMARK  Name = 
REMARK  9 active torsions:
REMARK  status: ('A' for Active; 'I' for Inactive)
REMARK    1  A    between atoms: C_1  and  O_2
REMARK    2  A    between atoms: O_2  and  C_3
REMARK    3  A    between atoms: C_5  and  O_6
REMARK    4  A    between atoms: O_6  and  C_7
REMARK    5  A    between atoms: C_8  and  N_9
REMARK    6  A    between atoms: C_10  and  C_12
REMARK    7  A    between atoms: C_12  and  N_13
REMARK    8  A    between atoms: C_18  and  S_19
REMARK    9  A    between atoms: S_19  and  C_20
REMARK                            x       y       z     vdW  Elec       q    Type
REMARK                         _______ _______ _______ _____ _____    ______ ____
ROOT
ATOM      1  N   UNL     1       1.475   9.260  19.623  0.00  0.00    +0.000 N 
ATOM      2  N   UNL     1       1.423   8.336  20.658  0.00  0.00    +0.000 NA
ATOM      3  C   UNL     1       1.795   7.225  20.093  0.00  0.00    +0.000 A 
ATOM      4  C   UNL     1       1.894   5.896  20.711  0.00  0.00    +0.000 A 
ATOM      5  C   UNL     1       2.307   4.875  19.947  0.00  0.00    +0.000 A 
ATOM      6  C   UNL     1       2.629   5.170  18.527  0.00  0.00    +0.000 A 
ATOM      7  N   UNL     1       2.541   6.329  17.959  0.00  0.00    +0.000 NA
ATOM      8  N   UNL     1       2.120   7.331  18.782  0.00  0.00    +0.000 N 
ATOM      9  C   UNL     1       1.904   8.648  18.424  0.00  0.00    +0.000 A 
ATOM     10  O   UNL     1       2.032   9.185  17.336  0.00  0.00    +0.000 OA
ENDROOT
BRANCH   1  11
ATOM     11  C   UNL     1       1.015  10.630  19.741  0.00  0.00    +0.000 C 
BRANCH  11  13
ATOM     12  N   UNL     1      -0.945  11.800  20.577  0.00  0.00    +0.000 N 
ATOM     13  C   UNL     1      -0.515  10.749  19.783  0.00  0.00    +0.000 C 
ATOM     14  O   UNL     1      -1.209   9.915  19.214  0.00  0.00    +0.000 OA
ATOM     15  H   UNL     1      -0.192  12.429  20.849  0.00  0.00    +0.000 HD
BRANCH  12  19
ATOM     16  C   UNL     1      -4.804  12.970  21.926  0.00  0.00    +0.000 A 
ATOM     17  C   UNL     1      -4.572  12.851  20.550  0.00  0.00    +0.000 A 
ATOM     18  C   UNL     1      -3.318  12.478  20.029  0.00  0.00    +0.000 A 
ATOM     19  C   UNL     1      -2.261  12.202  20.912  0.00  0.00    +0.000 A 
ATOM     20  C   UNL     1      -2.509  12.297  22.294  0.00  0.00    +0.000 A 
ATOM     21  C   UNL     1      -3.761  12.679  22.803  0.00  0.00    +0.000 A 
ATOM     22 CL   UNL     1      -3.913  12.675  24.522  0.00  0.00    +0.000 Cl
BRANCH  16  24
ATOM     23  C   UNL     1      -6.972  13.597  21.156  0.00  0.00    +0.000 C 
ATOM     24  O   UNL     1      -6.112  13.237  22.229  0.00  0.00    +0.000 OA
ENDBRANCH  16  24
BRANCH  18  25
ATOM     25  O   UNL     1      -3.172  12.222  18.692  0.00  0.00    +0.000 OA
ATOM     26  C   UNL     1      -4.293  11.622  18.045  0.00  0.00    +0.000 C 
ENDBRANCH  18  25
ENDBRANCH  12  19
ENDBRANCH  11  13
ENDBRANCH   1  11
BRANCH   6  27
ATOM     27  S   UNL     1       3.107   3.772  17.589  0.00  0.00    +0.000 S 
BRANCH  27  28
ATOM     28  C   UNL     1       4.821   4.124  17.247  0.00  0.00    +0.000 A 
ATOM     29  C   UNL     1       5.722   4.460  18.267  0.00  0.00    +0.000 A 
ATOM     30  C   UNL     1       7.059   4.745  17.967  0.00  0.00    +0.000 A 
ATOM     31  C   UNL     1       7.498   4.709  16.646  0.00  0.00    +0.000 A 
ATOM     32  C   UNL     1       6.595   4.399  15.634  0.00  0.00    +0.000 A 
ATOM     33  F   UNL     1       7.013   4.381  14.362  0.00  0.00    +0.000 F 
ATOM     34  C   UNL     1       5.264   4.113  15.921  0.00  0.00    +0.000 A 
ENDBRANCH  27  28
ENDBRANCH   6  27
TORSDOF 7
ENDMDL
