MODEL 1
REMARK VINA RESULT:      -7.6      0.000      0.000
REMARK  Name = 
REMARK  13 active torsions:
REMARK  status: ('A' for Active; 'I' for Inactive)
REMARK    1  A    between atoms: C_1  and  O_2
REMARK    2  A    between atoms: O_2  and  C_3
REMARK    3  A    between atoms: C_6  and  N_7
REMARK    4  A    between atoms: N_14  and  C_15
REMARK    5  A    between atoms: C_17  and  C_18
REMARK    6  A    between atoms: C_18  and  C_19
REMARK    7  A    between atoms: C_18  and  C_20
REMARK    8  A    between atoms: C_18  and  C_21
REMARK    9  A    between atoms: C_24  and  C_25
REMARK   10  A    between atoms: C_27  and  O_28
REMARK   11  A    between atoms: O_28  and  C_29
REMARK   12  A    between atoms: C_32  and  C_33
REMARK   13  A    between atoms: C_32  and  C_34
REMARK                            x       y       z     vdW  Elec       q    Type
REMARK                         _______ _______ _______ _____ _____    ______ ____
ROOT
ATOM      1  N   UNL     1       0.309   9.863  20.563  0.00  0.00    +0.000 N 
ATOM      2  C   UNL     1      -0.589   9.278  21.594  0.00  0.00    +0.000 C 
ATOM      3  C   UNL     1      -0.564  10.103  22.902  0.00  0.00    +0.000 C 
ATOM      4  N   UNL     1      -0.661  11.543  22.674  0.00  0.00    +0.000 N 
ATOM      5  C   UNL     1      -1.663  12.303  23.214  0.00  0.00    +0.000 A 
ATOM      6  N   UNL     1      -1.449  13.620  23.381  0.00  0.00    +0.000 NA
ATOM      7  C   UNL     1      -2.432  14.388  23.883  0.00  0.00    +0.000 A 
ATOM      8  N   UNL     1      -2.201  15.762  24.158  0.00  0.00    +0.000 N 
ATOM      9  C   UNL     1      -3.668  13.864  24.169  0.00  0.00    +0.000 A 
ATOM     10  C   UNL     1      -3.790  12.508  23.998  0.00  0.00    +0.000 A 
ATOM     11  N   UNL     1      -2.813  11.712  23.540  0.00  0.00    +0.000 NA
ATOM     12  C   UNL     1       0.174  12.119  21.620  0.00  0.00    +0.000 C 
ATOM     13  C   UNL     1       0.031  11.325  20.273  0.00  0.00    +0.000 C 
ATOM     14  C   UNL     1       0.952  12.010  19.247  0.00  0.00    +0.000 C 
ATOM     15  C   UNL     1      -1.399  11.465  19.693  0.00  0.00    +0.000 C 
ATOM     16  H   UNL     1      -2.804  16.345  23.595  0.00  0.00    +0.000 HD
ENDROOT
BRANCH   8  17
ATOM     17  C   UNL     1      -0.961  16.353  24.500  0.00  0.00    +0.000 A 
ATOM     18  C   UNL     1      -0.552  16.376  25.851  0.00  0.00    +0.000 A 
ATOM     19  C   UNL     1       0.645  16.981  26.287  0.00  0.00    +0.000 A 
ATOM     20  C   UNL     1       1.473  17.525  25.300  0.00  0.00    +0.000 A 
ATOM     21  C   UNL     1       1.081  17.537  23.959  0.00  0.00    +0.000 A 
ATOM     22  C   UNL     1      -0.151  16.998  23.551  0.00  0.00    +0.000 A 
ATOM     23  C   UNL     1      -0.539  17.128  22.105  0.00  0.00    +0.000 C 
BRANCH  19  24
ATOM     24  C   UNL     1       0.973  17.057  27.787  0.00  0.00    +0.000 C 
ATOM     25  C   UNL     1      -0.106  17.870  28.533  0.00  0.00    +0.000 C 
ATOM     26  C   UNL     1       1.064  15.673  28.470  0.00  0.00    +0.000 C 
ATOM     27  C   UNL     1       2.344  17.745  27.981  0.00  0.00    +0.000 C 
ENDBRANCH  19  24
ENDBRANCH   8  17
BRANCH   1  31
ATOM     28  C   UNL     1       2.844   7.311  18.313  0.00  0.00    +0.000 A 
ATOM     29  C   UNL     1       2.228   8.402  17.704  0.00  0.00    +0.000 A 
ATOM     30  C   UNL     1       1.384   9.251  18.445  0.00  0.00    +0.000 A 
ATOM     31  C   UNL     1       1.099   9.020  19.799  0.00  0.00    +0.000 A 
ATOM     32  C   UNL     1       1.626   7.835  20.326  0.00  0.00    +0.000 A 
ATOM     33  C   UNL     1       2.515   7.013  19.624  0.00  0.00    +0.000 A 
BRANCH  28  35
ATOM     34  C   UNL     1       4.559   5.702  18.266  0.00  0.00    +0.000 C 
ATOM     35  O   UNL     1       3.701   6.579  17.539  0.00  0.00    +0.000 OA
ENDBRANCH  28  35
ENDBRANCH   1  31
BRANCH  10  36
ATOM     36  O   UNL     1      -5.009  11.953  24.336  0.00  0.00    +0.000 OA
ATOM     37  C   UNL     1      -6.109  12.807  24.035  0.00  0.00    +0.000 C 
ENDBRANCH  10  36
TORSDOF 5
ENDMDL
MODEL 2
REMARK VINA RESULT:      -7.4      2.330      4.211
REMARK  Name = 
REMARK  13 active torsions:
REMARK  status: ('A' for Active; 'I' for Inactive)
REMARK    1  A    between atoms: C_1  and  O_2
REMARK    2  A    between atoms: O_2  and  C_3
REMARK    3  A    between atoms: C_6  and  N_7
REMARK    4  A    between atoms: N_14  and  C_15
REMARK    5  A    between atoms: C_17  and  C_18
REMARK    6  A    between atoms: C_18  and  C_19
REMARK    7  A    between atoms: C_18  and  C_20
REMARK    8  A    between atoms: C_18  and  C_21
REMARK    9  A    between atoms: C_24  and  C_25
REMARK   10  A    between atoms: C_27  and  O_28
REMARK   11  A    between atoms: O_28  and  C_29
REMARK   12  A    between atoms: C_32  and  C_33
REMARK   13  A    between atoms: C_32  and  C_34
REMARK                            x       y       z     vdW  Elec       q    Type
REMARK                         _______ _______ _______ _____ _____    ______ ____
ROOT
ATOM      1  N   UNL     1       1.182   8.486  20.258  0.00  0.00    +0.000 N 
ATOM      2  C   UNL     1       0.518   8.367  21.584  0.00  0.00    +0.000 C 
ATOM      3  C   UNL     1       0.713   9.645  22.432  0.00  0.00    +0.000 C 
ATOM      4  N   UNL     1       0.479  10.875  21.679  0.00  0.00    +0.000 N 
ATOM      5  C   UNL     1      -0.464  11.793  22.053  0.00  0.00    +0.000 A 
ATOM      6  N   UNL     1      -0.317  13.066  21.645  0.00  0.00    +0.000 NA
ATOM      7  C   UNL     1      -1.248  13.976  21.979  0.00  0.00    +0.000 A 
ATOM      8  N   UNL     1      -1.068  15.344  21.643  0.00  0.00    +0.000 N 
ATOM      9  C   UNL     1      -2.376  13.617  22.673  0.00  0.00    +0.000 A 
ATOM     10  C   UNL     1      -2.433  12.307  23.075  0.00  0.00    +0.000 A 
ATOM     11  N   UNL     1      -1.497  11.388  22.793  0.00  0.00    +0.000 NA
ATOM     12  C   UNL     1       1.077  10.977  20.348  0.00  0.00    +0.000 C 
ATOM     13  C   UNL     1       0.758   9.712  19.474  0.00  0.00    +0.000 C 
ATOM     14  C   UNL     1       1.438   9.926  18.109  0.00  0.00    +0.000 C 
ATOM     15  C   UNL     1      -0.757   9.618  19.163  0.00  0.00    +0.000 C 
ATOM     16  H   UNL     1      -1.798  15.658  21.020  0.00  0.00    +0.000 HD
ENDROOT
BRANCH   8  17
ATOM     17  C   UNL     1       0.168  16.016  21.488  0.00  0.00    +0.000 A 
ATOM     18  C   UNL     1       0.863  15.918  20.263  0.00  0.00    +0.000 A 
ATOM     19  C   UNL     1       2.118  16.518  20.035  0.00  0.00    +0.000 A 
ATOM     20  C   UNL     1       2.648  17.288  21.075  0.00  0.00    +0.000 A 
ATOM     21  C   UNL     1       1.994  17.381  22.306  0.00  0.00    +0.000 A 
ATOM     22  C   UNL     1       0.779  16.714  22.542  0.00  0.00    +0.000 A 
ATOM     23  C   UNL     1       0.183  16.793  23.920  0.00  0.00    +0.000 C 
BRANCH  19  24
ATOM     24  C   UNL     1       2.861  16.281  18.709  0.00  0.00    +0.000 C 
ATOM     25  C   UNL     1       2.761  14.798  18.294  0.00  0.00    +0.000 C 
ATOM     26  C   UNL     1       2.316  17.128  17.536  0.00  0.00    +0.000 C 
ATOM     27  C   UNL     1       4.352  16.656  18.879  0.00  0.00    +0.000 C 
ENDBRANCH  19  24
ENDBRANCH   8  17
BRANCH   1  31
ATOM     28  C   UNL     1       3.422   5.176  18.835  0.00  0.00    +0.000 A 
ATOM     29  C   UNL     1       3.327   6.338  18.073  0.00  0.00    +0.000 A 
ATOM     30  C   UNL     1       2.583   7.439  18.538  0.00  0.00    +0.000 A 
ATOM     31  C   UNL     1       1.884   7.403  19.755  0.00  0.00    +0.000 A 
ATOM     32  C   UNL     1       1.894   6.168  20.413  0.00  0.00    +0.000 A 
ATOM     33  C   UNL     1       2.676   5.085  19.997  0.00  0.00    +0.000 A 
BRANCH  28  35
ATOM     34  C   UNL     1       4.085   2.925  19.002  0.00  0.00    +0.000 C 
ATOM     35  O   UNL     1       4.220   4.182  18.341  0.00  0.00    +0.000 OA
ENDBRANCH  28  35
ENDBRANCH   1  31
BRANCH  10  36
ATOM     36  O   UNL     1      -3.534  11.940  23.824  0.00  0.00    +0.000 OA
ATOM     37  C   UNL     1      -4.174  13.049  24.447  0.00  0.00    +0.000 C 
ENDBRANCH  10  36
TORSDOF 5
ENDMDL
MODEL 3
REMARK VINA RESULT:      -7.4      1.131      2.784
REMARK  Name = 
REMARK  13 active torsions:
REMARK  status: ('A' for Active; 'I' for Inactive)
REMARK    1  A    between atoms: C_1  and  O_2
REMARK    2  A    between atoms: O_2  and  C_3
REMARK    3  A    between atoms: C_6  and  N_7
REMARK    4  A    between atoms: N_14  and  C_15
REMARK    5  A    between atoms: C_17  and  C_18
REMARK    6  A    between atoms: C_18  and  C_19
REMARK    7  A    between atoms: C_18  and  C_20
REMARK    8  A    between atoms: C_18  and  C_21
REMARK    9  A    between atoms: C_24  and  C_25
REMARK   10  A    between atoms: C_27  and  O_28
REMARK   11  A    between atoms: O_28  and  C_29
REMARK   12  A    between atoms: C_32  and  C_33
REMARK   13  A    between atoms: C_32  and  C_34
REMARK                            x       y       z     vdW  Elec       q    Type
REMARK                         _______ _______ _______ _____ _____    ______ ____
ROOT
ATOM      1  N   UNL     1       0.542   9.608  20.513  0.00  0.00    +0.000 N 
ATOM      2  C   UNL     1      -0.331   9.104  21.606  0.00  0.00    +0.000 C 
ATOM      3  C   UNL     1      -0.290  10.034  22.841  0.00  0.00    +0.000 C 
ATOM      4  N   UNL     1      -0.406  11.450  22.497  0.00  0.00    +0.000 N 
ATOM      5  C   UNL     1      -1.405  12.243  22.991  0.00  0.00    +0.000 A 
ATOM      6  N   UNL     1      -1.203  13.571  23.044  0.00  0.00    +0.000 NA
ATOM      7  C   UNL     1      -2.183  14.369  23.501  0.00  0.00    +0.000 A 
ATOM      8  N   UNL     1      -1.962  15.763  23.656  0.00  0.00    +0.000 N 
ATOM      9  C   UNL     1      -3.408  13.859  23.853  0.00  0.00    +0.000 A 
ATOM     10  C   UNL     1      -3.519  12.494  23.798  0.00  0.00    +0.000 A 
ATOM     11  N   UNL     1      -2.543  11.671  23.388  0.00  0.00    +0.000 NA
ATOM     12  C   UNL     1       0.403  11.943  21.383  0.00  0.00    +0.000 C 
ATOM     13  C   UNL     1       0.243  11.039  20.109  0.00  0.00    +0.000 C 
ATOM     14  C   UNL     1       1.137  11.645  19.012  0.00  0.00    +0.000 C 
ATOM     15  C   UNL     1      -1.199  11.118  19.547  0.00  0.00    +0.000 C 
ATOM     16  H   UNL     1      -2.581  16.292  23.059  0.00  0.00    +0.000 HD
ENDROOT
BRANCH   8  17
ATOM     17  C   UNL     1      -0.722  16.391  23.924  0.00  0.00    +0.000 A 
ATOM     18  C   UNL     1       0.156  16.678  22.857  0.00  0.00    +0.000 A 
ATOM     19  C   UNL     1       1.427  17.263  23.036  0.00  0.00    +0.000 A 
ATOM     20  C   UNL     1       1.781  17.616  24.342  0.00  0.00    +0.000 A 
ATOM     21  C   UNL     1       0.942  17.321  25.419  0.00  0.00    +0.000 A 
ATOM     22  C   UNL     1      -0.289  16.669  25.232  0.00  0.00    +0.000 A 
ATOM     23  C   UNL     1      -1.094  16.309  26.448  0.00  0.00    +0.000 C 
BRANCH  19  24
ATOM     24  C   UNL     1       2.370  17.450  21.836  0.00  0.00    +0.000 C 
ATOM     25  C   UNL     1       2.392  16.176  20.966  0.00  0.00    +0.000 C 
ATOM     26  C   UNL     1       1.975  18.631  20.919  0.00  0.00    +0.000 C 
ATOM     27  C   UNL     1       3.802  17.736  22.345  0.00  0.00    +0.000 C 
ENDBRANCH  19  24
ENDBRANCH   8  17
BRANCH   1  31
ATOM     28  C   UNL     1       2.827   6.837  18.257  0.00  0.00    +0.000 A 
ATOM     29  C   UNL     1       2.596   6.616  19.612  0.00  0.00    +0.000 A 
ATOM     30  C   UNL     1       1.841   7.534  20.367  0.00  0.00    +0.000 A 
ATOM     31  C   UNL     1       1.326   8.712  19.806  0.00  0.00    +0.000 A 
ATOM     32  C   UNL     1       1.704   8.958  18.481  0.00  0.00    +0.000 A 
ATOM     33  C   UNL     1       2.402   8.031  17.699  0.00  0.00    +0.000 A 
BRANCH  28  35
ATOM     34  C   UNL     1       4.929   6.028  17.575  0.00  0.00    +0.000 C 
ATOM     35  O   UNL     1       3.512   5.863  17.584  0.00  0.00    +0.000 OA
ENDBRANCH  28  35
ENDBRANCH   1  31
BRANCH  10  36
ATOM     36  O   UNL     1      -4.726  11.957  24.204  0.00  0.00    +0.000 OA
ATOM     37  C   UNL     1      -5.813  12.866  24.058  0.00  0.00    +0.000 C 
ENDBRANCH  10  36
TORSDOF 5
ENDMDL
MODEL 4
REMARK VINA RESULT:      -7.3      2.295      4.300
REMARK  Name = 
REMARK  13 active torsions:
REMARK  status: ('A' for Active; 'I' for Inactive)
REMARK    1  A    between atoms: C_1  and  O_2
REMARK    2  A    between atoms: O_2  and  C_3
REMARK    3  A    between atoms: C_6  and  N_7
REMARK    4  A    between atoms: N_14  and  C_15
REMARK    5  A    between atoms: C_17  and  C_18
REMARK    6  A    between atoms: C_18  and  C_19
REMARK    7  A    between atoms: C_18  and  C_20
REMARK    8  A    between atoms: C_18  and  C_21
REMARK    9  A    between atoms: C_24  and  C_25
REMARK   10  A    between atoms: C_27  and  O_28
REMARK   11  A    between atoms: O_28  and  C_29
REMARK   12  A    between atoms: C_32  and  C_33
REMARK   13  A    between atoms: C_32  and  C_34
REMARK                            x       y       z     vdW  Elec       q    Type
REMARK                         _______ _______ _______ _____ _____    ______ ____
ROOT
ATOM      1  N   UNL     1       1.183   8.430  20.256  0.00  0.00    +0.000 N 
ATOM      2  C   UNL     1       0.526   8.318  21.585  0.00  0.00    +0.000 C 
ATOM      3  C   UNL     1       0.716   9.604  22.423  0.00  0.00    +0.000 C 
ATOM      4  N   UNL     1       0.471  10.827  21.661  0.00  0.00    +0.000 N 
ATOM      5  C   UNL     1      -0.476  11.742  22.031  0.00  0.00    +0.000 A 
ATOM      6  N   UNL     1      -0.338  13.012  21.613  0.00  0.00    +0.000 NA
ATOM      7  C   UNL     1      -1.273  13.920  21.944  0.00  0.00    +0.000 A 
ATOM      8  N   UNL     1      -1.103  15.286  21.596  0.00  0.00    +0.000 N 
ATOM      9  C   UNL     1      -2.397  13.559  22.645  0.00  0.00    +0.000 A 
ATOM     10  C   UNL     1      -2.443  12.252  23.057  0.00  0.00    +0.000 A 
ATOM     11  N   UNL     1      -1.504  11.337  22.779  0.00  0.00    +0.000 NA
ATOM     12  C   UNL     1       1.063  10.922  20.327  0.00  0.00    +0.000 C 
ATOM     13  C   UNL     1       0.749   9.648  19.465  0.00  0.00    +0.000 C 
ATOM     14  C   UNL     1       1.421   9.855  18.095  0.00  0.00    +0.000 C 
ATOM     15  C   UNL     1      -0.767   9.542  19.160  0.00  0.00    +0.000 C 
ATOM     16  H   UNL     1      -1.837  15.590  20.973  0.00  0.00    +0.000 HD
ENDROOT
BRANCH   8  17
ATOM     17  C   UNL     1       0.129  15.963  21.431  0.00  0.00    +0.000 A 
ATOM     18  C   UNL     1       0.827  15.846  20.210  0.00  0.00    +0.000 A 
ATOM     19  C   UNL     1       2.079  16.451  19.973  0.00  0.00    +0.000 A 
ATOM     20  C   UNL     1       2.600  17.246  20.998  0.00  0.00    +0.000 A 
ATOM     21  C   UNL     1       1.942  17.359  22.225  0.00  0.00    +0.000 A 
ATOM     22  C   UNL     1       0.732  16.688  22.472  0.00  0.00    +0.000 A 
ATOM     23  C   UNL     1       0.131  16.790  23.846  0.00  0.00    +0.000 C 
BRANCH  19  24
ATOM     24  C   UNL     1       2.827  16.193  18.654  0.00  0.00    +0.000 C 
ATOM     25  C   UNL     1       2.302  17.130  17.546  0.00  0.00    +0.000 C 
ATOM     26  C   UNL     1       4.354  16.409  18.758  0.00  0.00    +0.000 C 
ATOM     27  C   UNL     1       2.608  14.726  18.216  0.00  0.00    +0.000 C 
ENDBRANCH  19  24
ENDBRANCH   8  17
BRANCH   1  31
ATOM     28  C   UNL     1       3.257   5.114  18.613  0.00  0.00    +0.000 A 
ATOM     29  C   UNL     1       2.625   5.003  19.848  0.00  0.00    +0.000 A 
ATOM     30  C   UNL     1       1.938   6.101  20.400  0.00  0.00    +0.000 A 
ATOM     31  C   UNL     1       1.890   7.348  19.758  0.00  0.00    +0.000 A 
ATOM     32  C   UNL     1       2.658   7.449  18.593  0.00  0.00    +0.000 A 
ATOM     33  C   UNL     1       3.296   6.355  17.998  0.00  0.00    +0.000 A 
BRANCH  28  35
ATOM     34  C   UNL     1       4.372   4.110  16.800  0.00  0.00    +0.000 C 
ATOM     35  O   UNL     1       3.843   3.982  18.119  0.00  0.00    +0.000 OA
ENDBRANCH  28  35
ENDBRANCH   1  31
BRANCH  10  36
ATOM     36  O   UNL     1      -3.539  11.884  23.814  0.00  0.00    +0.000 OA
ATOM     37  C   UNL     1      -4.074  12.963  24.574  0.00  0.00    +0.000 C 
ENDBRANCH  10  36
TORSDOF 5
ENDMDL
MODEL 5
REMARK VINA RESULT:      -7.2      1.813      3.250
REMARK  Name = 
REMARK  13 active torsions:
REMARK  status: ('A' for Active; 'I' for Inactive)
REMARK    1  A    between atoms: C_1  and  O_2
REMARK    2  A    between atoms: O_2  and  C_3
REMARK    3  A    between atoms: C_6  and  N_7
REMARK    4  A    between atoms: N_14  and  C_15
REMARK    5  A    between atoms: C_17  and  C_18
REMARK    6  A    between atoms: C_18  and  C_19
REMARK    7  A    between atoms: C_18  and  C_20
REMARK    8  A    between atoms: C_18  and  C_21
REMARK    9  A    between atoms: C_24  and  C_25
REMARK   10  A    between atoms: C_27  and  O_28
REMARK   11  A    between atoms: O_28  and  C_29
REMARK   12  A    between atoms: C_32  and  C_33
REMARK   13  A    between atoms: C_32  and  C_34
REMARK                            x       y       z     vdW  Elec       q    Type
REMARK                         _______ _______ _______ _____ _____    ______ ____
ROOT
ATOM      1  N   UNL     1       0.951   8.978  20.378  0.00  0.00    +0.000 N 
ATOM      2  C   UNL     1       0.156   8.619  21.583  0.00  0.00    +0.000 C 
ATOM      3  C   UNL     1       0.264   9.706  22.678  0.00  0.00    +0.000 C 
ATOM      4  N   UNL     1       0.107  11.062  22.159  0.00  0.00    +0.000 N 
ATOM      5  C   UNL     1      -0.869  11.909  22.608  0.00  0.00    +0.000 A 
ATOM      6  N   UNL     1      -0.681  13.234  22.472  0.00  0.00    +0.000 NA
ATOM      7  C   UNL     1      -1.641  14.081  22.882  0.00  0.00    +0.000 A 
ATOM      8  N   UNL     1      -1.428  15.484  22.837  0.00  0.00    +0.000 N 
ATOM      9  C   UNL     1      -2.834  13.617  23.378  0.00  0.00    +0.000 A 
ATOM     10  C   UNL     1      -2.930  12.255  23.510  0.00  0.00    +0.000 A 
ATOM     11  N   UNL     1      -1.971  11.390  23.150  0.00  0.00    +0.000 NA
ATOM     12  C   UNL     1       0.837  11.407  20.939  0.00  0.00    +0.000 C 
ATOM     13  C   UNL     1       0.608  10.341  19.809  0.00  0.00    +0.000 C 
ATOM     14  C   UNL     1       1.421  10.801  18.585  0.00  0.00    +0.000 C 
ATOM     15  C   UNL     1      -0.868  10.339  19.337  0.00  0.00    +0.000 C 
ATOM     16  H   UNL     1      -2.091  15.926  22.217  0.00  0.00    +0.000 HD
ENDROOT
BRANCH   8  17
ATOM     17  C   UNL     1      -0.182  16.148  22.938  0.00  0.00    +0.000 A 
ATOM     18  C   UNL     1       0.701  16.140  21.837  0.00  0.00    +0.000 A 
ATOM     19  C   UNL     1       1.977  16.739  21.863  0.00  0.00    +0.000 A 
ATOM     20  C   UNL     1       2.333  17.415  23.035  0.00  0.00    +0.000 A 
ATOM     21  C   UNL     1       1.489  17.418  24.148  0.00  0.00    +0.000 A 
ATOM     22  C   UNL     1       0.251  16.751  24.131  0.00  0.00    +0.000 A 
ATOM     23  C   UNL     1      -0.559  16.726  25.396  0.00  0.00    +0.000 C 
BRANCH  19  24
ATOM     24  C   UNL     1       2.924  16.599  20.659  0.00  0.00    +0.000 C 
ATOM     25  C   UNL     1       3.731  15.288  20.760  0.00  0.00    +0.000 C 
ATOM     26  C   UNL     1       2.193  16.591  19.297  0.00  0.00    +0.000 C 
ATOM     27  C   UNL     1       3.906  17.793  20.635  0.00  0.00    +0.000 C 
ENDBRANCH  19  24
ENDBRANCH   8  17
BRANCH   1  31
ATOM     28  C   UNL     1       3.343   5.988  18.555  0.00  0.00    +0.000 A 
ATOM     29  C   UNL     1       3.087   7.183  17.888  0.00  0.00    +0.000 A 
ATOM     30  C   UNL     1       2.291   8.178  18.487  0.00  0.00    +0.000 A 
ATOM     31  C   UNL     1       1.699   8.000  19.746  0.00  0.00    +0.000 A 
ATOM     32  C   UNL     1       1.869   6.731  20.311  0.00  0.00    +0.000 A 
ATOM     33  C   UNL     1       2.705   5.753  19.761  0.00  0.00    +0.000 A 
BRANCH  28  35
ATOM     34  C   UNL     1       3.600   3.834  17.643  0.00  0.00    +0.000 C 
ATOM     35  O   UNL     1       4.181   5.104  17.932  0.00  0.00    +0.000 OA
ENDBRANCH  28  35
ENDBRANCH   1  31
BRANCH  10  36
ATOM     36  O   UNL     1      -4.101  11.772  24.062  0.00  0.00    +0.000 OA
ATOM     37  C   UNL     1      -5.095  12.779  24.221  0.00  0.00    +0.000 C 
ENDBRANCH  10  36
TORSDOF 5
ENDMDL
MODEL 6
REMARK VINA RESULT:      -7.2      1.913      3.502
REMARK  Name = 
REMARK  13 active torsions:
REMARK  status: ('A' for Active; 'I' for Inactive)
REMARK    1  A    between atoms: C_1  and  O_2
REMARK    2  A    between atoms: O_2  and  C_3
REMARK    3  A    between atoms: C_6  and  N_7
REMARK    4  A    between atoms: N_14  and  C_15
REMARK    5  A    between atoms: C_17  and  C_18
REMARK    6  A    between atoms: C_18  and  C_19
REMARK    7  A    between atoms: C_18  and  C_20
REMARK    8  A    between atoms: C_18  and  C_21
REMARK    9  A    between atoms: C_24  and  C_25
REMARK   10  A    between atoms: C_27  and  O_28
REMARK   11  A    between atoms: O_28  and  C_29
REMARK   12  A    between atoms: C_32  and  C_33
REMARK   13  A    between atoms: C_32  and  C_34
REMARK                            x       y       z     vdW  Elec       q    Type
REMARK                         _______ _______ _______ _____ _____    ______ ____
ROOT
ATOM      1  N   UNL     1       0.967   8.862  20.423  0.00  0.00    +0.000 N 
ATOM      2  C   UNL     1       0.169   8.563  21.643  0.00  0.00    +0.000 C 
ATOM      3  C   UNL     1       0.291   9.693  22.692  0.00  0.00    +0.000 C 
ATOM      4  N   UNL     1       0.149  11.028  22.116  0.00  0.00    +0.000 N 
ATOM      5  C   UNL     1      -0.817  11.904  22.530  0.00  0.00    +0.000 A 
ATOM      6  N   UNL     1      -0.613  13.220  22.338  0.00  0.00    +0.000 NA
ATOM      7  C   UNL     1      -1.563  14.094  22.713  0.00  0.00    +0.000 A 
ATOM      8  N   UNL     1      -1.335  15.492  22.610  0.00  0.00    +0.000 N 
ATOM      9  C   UNL     1      -2.761  13.665  23.228  0.00  0.00    +0.000 A 
ATOM     10  C   UNL     1      -2.873  12.311  23.418  0.00  0.00    +0.000 A 
ATOM     11  N   UNL     1      -1.925  11.421  23.094  0.00  0.00    +0.000 NA
ATOM     12  C   UNL     1       0.882  11.314  20.882  0.00  0.00    +0.000 C 
ATOM     13  C   UNL     1       0.639  10.204  19.798  0.00  0.00    +0.000 C 
ATOM     14  C   UNL     1       1.457  10.603  18.556  0.00  0.00    +0.000 C 
ATOM     15  C   UNL     1      -0.837  10.199  19.327  0.00  0.00    +0.000 C 
ATOM     16  H   UNL     1      -1.993  15.915  21.972  0.00  0.00    +0.000 HD
ENDROOT
BRANCH   8  17
ATOM     17  C   UNL     1      -0.081  16.145  22.682  0.00  0.00    +0.000 A 
ATOM     18  C   UNL     1       0.767  16.148  21.554  0.00  0.00    +0.000 A 
ATOM     19  C   UNL     1       2.048  16.738  21.550  0.00  0.00    +0.000 A 
ATOM     20  C   UNL     1       2.446  17.392  22.720  0.00  0.00    +0.000 A 
ATOM     21  C   UNL     1       1.636  17.383  23.859  0.00  0.00    +0.000 A 
ATOM     22  C   UNL     1       0.394  16.726  23.870  0.00  0.00    +0.000 A 
ATOM     23  C   UNL     1      -0.377  16.687  25.159  0.00  0.00    +0.000 C 
BRANCH  19  24
ATOM     24  C   UNL     1       2.956  16.610  20.315  0.00  0.00    +0.000 C 
ATOM     25  C   UNL     1       4.179  17.542  20.448  0.00  0.00    +0.000 C 
ATOM     26  C   UNL     1       3.489  15.177  20.086  0.00  0.00    +0.000 C 
ATOM     27  C   UNL     1       2.161  17.003  19.049  0.00  0.00    +0.000 C 
ENDBRANCH  19  24
ENDBRANCH   8  17
BRANCH   1  31
ATOM     28  C   UNL     1       3.125   5.756  18.504  0.00  0.00    +0.000 A 
ATOM     29  C   UNL     1       2.614   5.566  19.785  0.00  0.00    +0.000 A 
ATOM     30  C   UNL     1       1.900   6.594  20.429  0.00  0.00    +0.000 A 
ATOM     31  C   UNL     1       1.704   7.850  19.833  0.00  0.00    +0.000 A 
ATOM     32  C   UNL     1       2.356   8.038  18.609  0.00  0.00    +0.000 A 
ATOM     33  C   UNL     1       3.018   7.011  17.928  0.00  0.00    +0.000 A 
BRANCH  28  35
ATOM     34  C   UNL     1       2.864   3.678  17.431  0.00  0.00    +0.000 C 
ATOM     35  O   UNL     1       3.746   4.684  17.925  0.00  0.00    +0.000 OA
ENDBRANCH  28  35
ENDBRANCH   1  31
BRANCH  10  36
ATOM     36  O   UNL     1      -4.049  11.865  23.990  0.00  0.00    +0.000 OA
ATOM     37  C   UNL     1      -5.006  12.904  24.169  0.00  0.00    +0.000 C 
ENDBRANCH  10  36
TORSDOF 5
ENDMDL
MODEL 7
REMARK VINA RESULT:      -7.1      3.689      5.102
REMARK  Name = 
REMARK  13 active torsions:
REMARK  status: ('A' for Active; 'I' for Inactive)
REMARK    1  A    between atoms: C_1  and  O_2
REMARK    2  A    between atoms: O_2  and  C_3
REMARK    3  A    between atoms: C_6  and  N_7
REMARK    4  A    between atoms: N_14  and  C_15
REMARK    5  A    between atoms: C_17  and  C_18
REMARK    6  A    between atoms: C_18  and  C_19
REMARK    7  A    between atoms: C_18  and  C_20
REMARK    8  A    between atoms: C_18  and  C_21
REMARK    9  A    between atoms: C_24  and  C_25
REMARK   10  A    between atoms: C_27  and  O_28
REMARK   11  A    between atoms: O_28  and  C_29
REMARK   12  A    between atoms: C_32  and  C_33
REMARK   13  A    between atoms: C_32  and  C_34
REMARK                            x       y       z     vdW  Elec       q    Type
REMARK                         _______ _______ _______ _____ _____    ______ ____
ROOT
ATOM      1  N   UNL     1       1.099   8.988  20.127  0.00  0.00    +0.000 N 
ATOM      2  C   UNL     1       0.710   9.404  21.501  0.00  0.00    +0.000 C 
ATOM      3  C   UNL     1       1.038  10.893  21.758  0.00  0.00    +0.000 C 
ATOM      4  N   UNL     1       0.634  11.768  20.659  0.00  0.00    +0.000 N 
ATOM      5  C   UNL     1      -0.238  12.807  20.835  0.00  0.00    +0.000 A 
ATOM      6  N   UNL     1      -0.202  13.829  19.962  0.00  0.00    +0.000 NA
ATOM      7  C   UNL     1      -1.070  14.846  20.102  0.00  0.00    +0.000 A 
ATOM      8  N   UNL     1      -0.990  15.980  19.252  0.00  0.00    +0.000 N 
ATOM      9  C   UNL     1      -2.033  14.829  21.080  0.00  0.00    +0.000 A 
ATOM     10  C   UNL     1      -1.980  13.766  21.945  0.00  0.00    +0.000 A 
ATOM     11  N   UNL     1      -1.097  12.760  21.854  0.00  0.00    +0.000 NA
ATOM     12  C   UNL     1       0.958  11.338  19.299  0.00  0.00    +0.000 C 
ATOM     13  C   UNL     1       0.502   9.858  19.038  0.00  0.00    +0.000 C 
ATOM     14  C   UNL     1       0.896   9.515  17.590  0.00  0.00    +0.000 C 
ATOM     15  C   UNL     1      -1.042   9.735  19.078  0.00  0.00    +0.000 C 
ATOM     16  H   UNL     1      -1.835  16.079  18.707  0.00  0.00    +0.000 HD
ENDROOT
BRANCH   8  17
ATOM     17  C   UNL     1       0.177  16.480  18.626  0.00  0.00    +0.000 A 
ATOM     18  C   UNL     1       1.429  15.907  18.932  0.00  0.00    +0.000 A 
ATOM     19  C   UNL     1       2.646  16.369  18.388  0.00  0.00    +0.000 A 
ATOM     20  C   UNL     1       2.567  17.411  17.460  0.00  0.00    +0.000 A 
ATOM     21  C   UNL     1       1.343  18.012  17.156  0.00  0.00    +0.000 A 
ATOM     22  C   UNL     1       0.148  17.590  17.765  0.00  0.00    +0.000 A 
ATOM     23  C   UNL     1      -1.113  18.345  17.452  0.00  0.00    +0.000 C 
BRANCH  19  24
ATOM     24  C   UNL     1       3.981  15.761  18.850  0.00  0.00    +0.000 C 
ATOM     25  C   UNL     1       4.526  14.787  17.783  0.00  0.00    +0.000 C 
ATOM     26  C   UNL     1       5.079  16.815  19.119  0.00  0.00    +0.000 C 
ATOM     27  C   UNL     1       3.766  14.988  20.172  0.00  0.00    +0.000 C 
ENDBRANCH  19  24
ENDBRANCH   8  17
BRANCH   1  31
ATOM     28  C   UNL     1       2.909   5.216  19.426  0.00  0.00    +0.000 A 
ATOM     29  C   UNL     1       2.093   5.406  20.538  0.00  0.00    +0.000 A 
ATOM     30  C   UNL     1       1.492   6.656  20.778  0.00  0.00    +0.000 A 
ATOM     31  C   UNL     1       1.713   7.761  19.941  0.00  0.00    +0.000 A 
ATOM     32  C   UNL     1       2.650   7.559  18.922  0.00  0.00    +0.000 A 
ATOM     33  C   UNL     1       3.210   6.310  18.632  0.00  0.00    +0.000 A 
BRANCH  28  35
ATOM     34  C   UNL     1       4.801   3.889  18.983  0.00  0.00    +0.000 C 
ATOM     35  O   UNL     1       3.397   3.954  19.232  0.00  0.00    +0.000 OA
ENDBRANCH  28  35
ENDBRANCH   1  31
BRANCH  10  36
ATOM     36  O   UNL     1      -2.904  13.761  22.971  0.00  0.00    +0.000 OA
ATOM     37  C   UNL     1      -3.120  12.462  23.515  0.00  0.00    +0.000 C 
ENDBRANCH  10  36
TORSDOF 5
ENDMDL
MODEL 8
REMARK VINA RESULT:      -7.1      4.197      6.948
REMARK  Name = 
REMARK  13 active torsions:
REMARK  status: ('A' for Active; 'I' for Inactive)
REMARK    1  A    between atoms: C_1  and  O_2
REMARK    2  A    between atoms: O_2  and  C_3
REMARK    3  A    between atoms: C_6  and  N_7
REMARK    4  A    between atoms: N_14  and  C_15
REMARK    5  A    between atoms: C_17  and  C_18
REMARK    6  A    between atoms: C_18  and  C_19
REMARK    7  A    between atoms: C_18  and  C_20
REMARK    8  A    between atoms: C_18  and  C_21
REMARK    9  A    between atoms: C_24  and  C_25
REMARK   10  A    between atoms: C_27  and  O_28
REMARK   11  A    between atoms: O_28  and  C_29
REMARK   12  A    between atoms: C_32  and  C_33
REMARK   13  A    between atoms: C_32  and  C_34
REMARK                            x       y       z     vdW  Elec       q    Type
REMARK                         _______ _______ _______ _____ _____    ______ ____
ROOT
ATOM      1  N   UNL     1       1.426   8.647  19.569  0.00  0.00    +0.000 N 
ATOM      2  C   UNL     1       1.774   9.680  18.556  0.00  0.00    +0.000 C 
ATOM      3  C   UNL     1       0.537  10.511  18.145  0.00  0.00    +0.000 C 
ATOM      4  N   UNL     1      -0.270  10.943  19.285  0.00  0.00    +0.000 N 
ATOM      5  C   UNL     1      -0.525  12.262  19.542  0.00  0.00    +0.000 A 
ATOM      6  N   UNL     1      -1.615  12.574  20.266  0.00  0.00    +0.000 NA
ATOM      7  C   UNL     1      -1.867  13.863  20.553  0.00  0.00    +0.000 A 
ATOM      8  N   UNL     1      -3.059  14.228  21.233  0.00  0.00    +0.000 N 
ATOM      9  C   UNL     1      -1.000  14.858  20.175  0.00  0.00    +0.000 A 
ATOM     10  C   UNL     1       0.069  14.456  19.416  0.00  0.00    +0.000 A 
ATOM     11  N   UNL     1       0.321  13.183  19.078  0.00  0.00    +0.000 NA
ATOM     12  C   UNL     1      -0.566   9.950  20.317  0.00  0.00    +0.000 C 
ATOM     13  C   UNL     1       0.733   9.209  20.795  0.00  0.00    +0.000 C 
ATOM     14  C   UNL     1       0.302   8.192  21.868  0.00  0.00    +0.000 C 
ATOM     15  C   UNL     1       1.694  10.182  21.522  0.00  0.00    +0.000 C 
ATOM     16  H   UNL     1      -2.845  14.659  22.121  0.00  0.00    +0.000 HD
ENDROOT
BRANCH   8  17
ATOM     17  C   UNL     1      -4.292  13.535  21.196  0.00  0.00    +0.000 A 
ATOM     18  C   UNL     1      -4.658  12.830  20.029  0.00  0.00    +0.000 A 
ATOM     19  C   UNL     1      -5.884  12.148  19.889  0.00  0.00    +0.000 A 
ATOM     20  C   UNL     1      -6.734  12.143  20.999  0.00  0.00    +0.000 A 
ATOM     21  C   UNL     1      -6.408  12.853  22.157  0.00  0.00    +0.000 A 
ATOM     22  C   UNL     1      -5.216  13.590  22.253  0.00  0.00    +0.000 A 
ATOM     23  C   UNL     1      -4.979  14.398  23.498  0.00  0.00    +0.000 C 
BRANCH  19  24
ATOM     24  C   UNL     1      -6.256  11.489  18.549  0.00  0.00    +0.000 C 
ATOM     25  C   UNL     1      -7.205  12.403  17.746  0.00  0.00    +0.000 C 
ATOM     26  C   UNL     1      -5.035  11.185  17.652  0.00  0.00    +0.000 C 
ATOM     27  C   UNL     1      -6.964  10.141  18.817  0.00  0.00    +0.000 C 
ENDBRANCH  19  24
ENDBRANCH   8  17
BRANCH   1  31
ATOM     28  C   UNL     1       2.981   4.729  19.097  0.00  0.00    +0.000 A 
ATOM     29  C   UNL     1       2.419   5.118  20.310  0.00  0.00    +0.000 A 
ATOM     30  C   UNL     1       1.904   6.418  20.474  0.00  0.00    +0.000 A 
ATOM     31  C   UNL     1       1.965   7.377  19.451  0.00  0.00    +0.000 A 
ATOM     32  C   UNL     1       2.665   6.983  18.305  0.00  0.00    +0.000 A 
ATOM     33  C   UNL     1       3.129   5.679  18.101  0.00  0.00    +0.000 A 
BRANCH  28  35
ATOM     34  C   UNL     1       3.264   2.671  20.203  0.00  0.00    +0.000 C 
ATOM     35  O   UNL     1       3.395   3.429  19.001  0.00  0.00    +0.000 OA
ENDBRANCH  28  35
ENDBRANCH   1  31
BRANCH  10  36
ATOM     36  O   UNL     1       0.921  15.451  18.977  0.00  0.00    +0.000 OA
ATOM     37  C   UNL     1       2.180  14.948  18.541  0.00  0.00    +0.000 C 
ENDBRANCH  10  36
TORSDOF 5
ENDMDL
MODEL 9
REMARK VINA RESULT:      -7.0      4.158      6.914
REMARK  Name = 
REMARK  13 active torsions:
REMARK  status: ('A' for Active; 'I' for Inactive)
REMARK    1  A    between atoms: C_1  and  O_2
REMARK    2  A    between atoms: O_2  and  C_3
REMARK    3  A    between atoms: C_6  and  N_7
REMARK    4  A    between atoms: N_14  and  C_15
REMARK    5  A    between atoms: C_17  and  C_18
REMARK    6  A    between atoms: C_18  and  C_19
REMARK    7  A    between atoms: C_18  and  C_20
REMARK    8  A    between atoms: C_18  and  C_21
REMARK    9  A    between atoms: C_24  and  C_25
REMARK   10  A    between atoms: C_27  and  O_28
REMARK   11  A    between atoms: O_28  and  C_29
REMARK   12  A    between atoms: C_32  and  C_33
REMARK   13  A    between atoms: C_32  and  C_34
REMARK                            x       y       z     vdW  Elec       q    Type
REMARK                         _______ _______ _______ _____ _____    ______ ____
ROOT
ATOM      1  N   UNL     1       1.479   8.413  19.534  0.00  0.00    +0.000 N 
ATOM      2  C   UNL     1       1.819   9.419  18.492  0.00  0.00    +0.000 C 
ATOM      3  C   UNL     1       0.587  10.266  18.097  0.00  0.00    +0.000 C 
ATOM      4  N   UNL     1      -0.180  10.735  19.249  0.00  0.00    +0.000 N 
ATOM      5  C   UNL     1      -0.403  12.064  19.486  0.00  0.00    +0.000 A 
ATOM      6  N   UNL     1      -1.466  12.412  20.232  0.00  0.00    +0.000 NA
ATOM      7  C   UNL     1      -1.686  13.711  20.500  0.00  0.00    +0.000 A 
ATOM      8  N   UNL     1      -2.852  14.112  21.204  0.00  0.00    +0.000 N 
ATOM      9  C   UNL     1      -0.811  14.681  20.079  0.00  0.00    +0.000 A 
ATOM     10  C   UNL     1       0.229  14.243  19.300  0.00  0.00    +0.000 A 
ATOM     11  N   UNL     1       0.447  12.959  18.981  0.00  0.00    +0.000 NA
ATOM     12  C   UNL     1      -0.467   9.769  20.308  0.00  0.00    +0.000 C 
ATOM     13  C   UNL     1       0.830   9.012  20.766  0.00  0.00    +0.000 C 
ATOM     14  C   UNL     1       0.409   8.025  21.870  0.00  0.00    +0.000 C 
ATOM     15  C   UNL     1       1.829   9.981  21.447  0.00  0.00    +0.000 C 
ATOM     16  H   UNL     1      -2.607  14.557  22.077  0.00  0.00    +0.000 HD
ENDROOT
BRANCH   8  17
ATOM     17  C   UNL     1      -4.099  13.443  21.213  0.00  0.00    +0.000 A 
ATOM     18  C   UNL     1      -4.509  12.722  20.071  0.00  0.00    +0.000 A 
ATOM     19  C   UNL     1      -5.752  12.062  19.977  0.00  0.00    +0.000 A 
ATOM     20  C   UNL     1      -6.571  12.095  21.109  0.00  0.00    +0.000 A 
ATOM     21  C   UNL     1      -6.201  12.822  22.244  0.00  0.00    +0.000 A 
ATOM     22  C   UNL     1      -4.992  13.537  22.293  0.00  0.00    +0.000 A 
ATOM     23  C   UNL     1      -4.707  14.365  23.515  0.00  0.00    +0.000 C 
BRANCH  19  24
ATOM     24  C   UNL     1      -6.171  11.384  18.662  0.00  0.00    +0.000 C 
ATOM     25  C   UNL     1      -6.840  10.023  18.948  0.00  0.00    +0.000 C 
ATOM     26  C   UNL     1      -7.165  12.222  17.825  0.00  0.00    +0.000 C 
ATOM     27  C   UNL     1      -4.922  11.154  17.780  0.00  0.00    +0.000 C 
ENDBRANCH  19  24
ENDBRANCH   8  17
BRANCH   1  31
ATOM     28  C   UNL     1       3.140   4.516  19.318  0.00  0.00    +0.000 A 
ATOM     29  C   UNL     1       3.195   5.363  18.215  0.00  0.00    +0.000 A 
ATOM     30  C   UNL     1       2.643   6.656  18.279  0.00  0.00    +0.000 A 
ATOM     31  C   UNL     1       1.991   7.131  19.427  0.00  0.00    +0.000 A 
ATOM     32  C   UNL     1       1.836   6.194  20.456  0.00  0.00    +0.000 A 
ATOM     33  C   UNL     1       2.430   4.927  20.434  0.00  0.00    +0.000 A 
BRANCH  28  35
ATOM     34  C   UNL     1       2.985   2.303  18.533  0.00  0.00    +0.000 C 
ATOM     35  O   UNL     1       3.760   3.303  19.193  0.00  0.00    +0.000 OA
ENDBRANCH  28  35
ENDBRANCH   1  31
BRANCH  10  36
ATOM     36  O   UNL     1       1.088  15.212  18.818  0.00  0.00    +0.000 OA
ATOM     37  C   UNL     1       2.412  14.728  18.618  0.00  0.00    +0.000 C 
ENDBRANCH  10  36
TORSDOF 5
ENDMDL
