MODEL 1
REMARK VINA RESULT:      -8.8      0.000      0.000
REMARK  Name = 
REMARK  4 active torsions:
REMARK  status: ('A' for Active; 'I' for Inactive)
REMARK    1  A    between atoms: C_1  and  C_2
REMARK    2  A    between atoms: C_5  and  C_6
REMARK    3  A    between atoms: C_12  and  C_13
REMARK    4  A    between atoms: N_21  and  C_22
REMARK                            x       y       z     vdW  Elec       q    Type
REMARK                         _______ _______ _______ _____ _____    ______ ____
ROOT
ATOM      1  C   UNL     1       4.144   4.326  17.428  0.00  0.00    +0.000 C 
ATOM      2  C   UNL     1       3.844   5.844  17.293  0.00  0.00    +0.000 C 
ATOM      3  C   UNL     1       5.122   6.639  17.005  0.00  0.00    +0.000 C 
ATOM      4  C   UNL     1       6.115   6.438  18.156  0.00  0.00    +0.000 C 
ATOM      5  C   UNL     1       6.464   4.951  18.285  0.00  0.00    +0.000 C 
ATOM      6  C   UNL     1       7.099   4.466  16.975  0.00  0.00    +0.000 C 
ATOM      7  C   UNL     1       6.117   4.637  15.788  0.00  0.00    +0.000 C 
ATOM      8  C   UNL     1       5.735   6.140  15.692  0.00  0.00    +0.000 C 
ATOM      9  C   UNL     1       4.825   3.836  16.118  0.00  0.00    +0.000 C 
ATOM     10  C   UNL     1       5.185   4.147  18.569  0.00  0.00    +0.000 C 
ENDROOT
BRANCH   1  15
ATOM     11  C   UNL     1       2.607   2.793  21.374  0.00  0.00    +0.000 C 
ATOM     12  C   UNL     1       2.377   3.223  19.957  0.00  0.00    +0.000 C 
ATOM     13  N   UNL     1       1.567   4.209  19.677  0.00  0.00    +0.000 NA
ATOM     14  C   UNL     1       1.624   4.309  18.189  0.00  0.00    +0.000 C 
ATOM     15  C   UNL     1       2.855   3.483  17.721  0.00  0.00    +0.000 C 
ATOM     16  N   UNL     1       3.042   2.654  18.902  0.00  0.00    +0.000 N 
ATOM     17  C   UNL     1       3.509   1.295  18.835  0.00  0.00    +0.000 C 
ENDBRANCH   1  15
BRANCH   7  18
ATOM     18  C   UNL     1       6.697   4.151  14.428  0.00  0.00    +0.000 C 
ATOM     19  C   UNL     1       5.668   3.636  13.419  0.00  0.00    +0.000 C 
ATOM     20  C   UNL     1       6.425   3.595  12.101  0.00  0.00    +0.000 C 
ATOM     21  C   UNL     1       7.471   4.702  12.181  0.00  0.00    +0.000 C 
ATOM     22  C   UNL     1       7.466   5.204  13.623  0.00  0.00    +0.000 C 
ENDBRANCH   7  18
TORSDOF 2
ENDMDL
MODEL 2
REMARK VINA RESULT:      -8.6      0.990      1.723
REMARK  Name = 
REMARK  4 active torsions:
REMARK  status: ('A' for Active; 'I' for Inactive)
REMARK    1  A    between atoms: C_1  and  C_2
REMARK    2  A    between atoms: C_5  and  C_6
REMARK    3  A    between atoms: C_12  and  C_13
REMARK    4  A    between atoms: N_21  and  C_22
REMARK                            x       y       z     vdW  Elec       q    Type
REMARK                         _______ _______ _______ _____ _____    ______ ____
ROOT
ATOM      1  C   UNL     1       5.046   4.481  18.014  0.00  0.00    +0.000 C 
ATOM      2  C   UNL     1       4.119   5.682  17.682  0.00  0.00    +0.000 C 
ATOM      3  C   UNL     1       4.805   6.666  16.729  0.00  0.00    +0.000 C 
ATOM      4  C   UNL     1       6.083   7.203  17.387  0.00  0.00    +0.000 C 
ATOM      5  C   UNL     1       7.037   6.042  17.686  0.00  0.00    +0.000 C 
ATOM      6  C   UNL     1       7.399   5.335  16.374  0.00  0.00    +0.000 C 
ATOM      7  C   UNL     1       6.134   4.762  15.687  0.00  0.00    +0.000 C 
ATOM      8  C   UNL     1       5.154   5.939  15.426  0.00  0.00    +0.000 C 
ATOM      9  C   UNL     1       5.450   3.783  16.683  0.00  0.00    +0.000 C 
ATOM     10  C   UNL     1       6.353   5.047  18.638  0.00  0.00    +0.000 C 
ENDROOT
BRANCH   1  15
ATOM     11  C   UNL     1       0.685   3.444  18.446  0.00  0.00    +0.000 C 
ATOM     12  C   UNL     1       2.134   3.090  18.583  0.00  0.00    +0.000 C 
ATOM     13  N   UNL     1       2.634   2.054  17.966  0.00  0.00    +0.000 NA
ATOM     14  C   UNL     1       4.073   2.060  18.361  0.00  0.00    +0.000 C 
ATOM     15  C   UNL     1       4.372   3.452  18.985  0.00  0.00    +0.000 C 
ATOM     16  N   UNL     1       3.011   3.861  19.302  0.00  0.00    +0.000 N 
ATOM     17  C   UNL     1       2.684   4.655  20.455  0.00  0.00    +0.000 C 
ENDBRANCH   1  15
BRANCH   7  18
ATOM     18  C   UNL     1       6.435   4.020  14.352  0.00  0.00    +0.000 C 
ATOM     19  C   UNL     1       5.212   3.687  13.493  0.00  0.00    +0.000 C 
ATOM     20  C   UNL     1       5.796   3.333  12.134  0.00  0.00    +0.000 C 
ATOM     21  C   UNL     1       7.080   4.144  12.003  0.00  0.00    +0.000 C 
ATOM     22  C   UNL     1       7.347   4.765  13.371  0.00  0.00    +0.000 C 
ENDBRANCH   7  18
TORSDOF 2
ENDMDL
MODEL 3
REMARK VINA RESULT:      -8.4      0.878      1.357
REMARK  Name = 
REMARK  4 active torsions:
REMARK  status: ('A' for Active; 'I' for Inactive)
REMARK    1  A    between atoms: C_1  and  C_2
REMARK    2  A    between atoms: C_5  and  C_6
REMARK    3  A    between atoms: C_12  and  C_13
REMARK    4  A    between atoms: N_21  and  C_22
REMARK                            x       y       z     vdW  Elec       q    Type
REMARK                         _______ _______ _______ _____ _____    ______ ____
ROOT
ATOM      1  C   UNL     1       4.527   4.062  17.617  0.00  0.00    +0.000 C 
ATOM      2  C   UNL     1       3.893   5.458  17.862  0.00  0.00    +0.000 C 
ATOM      3  C   UNL     1       4.826   6.581  17.395  0.00  0.00    +0.000 C 
ATOM      4  C   UNL     1       6.146   6.501  18.173  0.00  0.00    +0.000 C 
ATOM      5  C   UNL     1       6.817   5.147  17.915  0.00  0.00    +0.000 C 
ATOM      6  C   UNL     1       7.101   5.003  16.415  0.00  0.00    +0.000 C 
ATOM      7  C   UNL     1       5.788   5.061  15.595  0.00  0.00    +0.000 C 
ATOM      8  C   UNL     1       5.094   6.418  15.895  0.00  0.00    +0.000 C 
ATOM      9  C   UNL     1       4.856   3.924  16.102  0.00  0.00    +0.000 C 
ATOM     10  C   UNL     1       5.884   4.016  18.376  0.00  0.00    +0.000 C 
ENDROOT
BRANCH   1  15
ATOM     11  C   UNL     1       1.004   4.193  20.419  0.00  0.00    +0.000 C 
ATOM     12  C   UNL     1       1.753   3.560  19.287  0.00  0.00    +0.000 C 
ATOM     13  N   UNL     1       1.202   3.422  18.111  0.00  0.00    +0.000 NA
ATOM     14  C   UNL     1       2.261   2.761  17.293  0.00  0.00    +0.000 C 
ATOM     15  C   UNL     1       3.596   2.890  18.081  0.00  0.00    +0.000 C 
ATOM     16  N   UNL     1       3.058   3.156  19.407  0.00  0.00    +0.000 N 
ATOM     17  C   UNL     1       3.686   2.686  20.612  0.00  0.00    +0.000 C 
ENDBRANCH   1  15
BRANCH   7  18
ATOM     18  C   UNL     1       6.007   4.908  14.061  0.00  0.00    +0.000 C 
ATOM     19  C   UNL     1       7.456   5.040  13.586  0.00  0.00    +0.000 C 
ATOM     20  C   UNL     1       7.437   4.488  12.169  0.00  0.00    +0.000 C 
ATOM     21  C   UNL     1       6.333   3.437  12.143  0.00  0.00    +0.000 C 
ATOM     22  C   UNL     1       5.574   3.566  13.461  0.00  0.00    +0.000 C 
ENDBRANCH   7  18
TORSDOF 2
ENDMDL
MODEL 4
REMARK VINA RESULT:      -8.0      0.684      1.089
REMARK  Name = 
REMARK  4 active torsions:
REMARK  status: ('A' for Active; 'I' for Inactive)
REMARK    1  A    between atoms: C_1  and  C_2
REMARK    2  A    between atoms: C_5  and  C_6
REMARK    3  A    between atoms: C_12  and  C_13
REMARK    4  A    between atoms: N_21  and  C_22
REMARK                            x       y       z     vdW  Elec       q    Type
REMARK                         _______ _______ _______ _____ _____    ______ ____
ROOT
ATOM      1  C   UNL     1       4.180   4.780  17.627  0.00  0.00    +0.000 C 
ATOM      2  C   UNL     1       4.265   6.309  17.885  0.00  0.00    +0.000 C 
ATOM      3  C   UNL     1       5.620   6.872  17.443  0.00  0.00    +0.000 C 
ATOM      4  C   UNL     1       6.739   6.180  18.233  0.00  0.00    +0.000 C 
ATOM      5  C   UNL     1       6.706   4.672  17.964  0.00  0.00    +0.000 C 
ATOM      6  C   UNL     1       6.914   4.423  16.464  0.00  0.00    +0.000 C 
ATOM      7  C   UNL     1       5.792   5.092  15.632  0.00  0.00    +0.000 C 
ATOM      8  C   UNL     1       5.804   6.614  15.943  0.00  0.00    +0.000 C 
ATOM      9  C   UNL     1       4.430   4.516  16.114  0.00  0.00    +0.000 C 
ATOM     10  C   UNL     1       5.347   4.102  18.399  0.00  0.00    +0.000 C 
ENDROOT
BRANCH   1  15
ATOM     11  C   UNL     1       3.168   2.477  21.363  0.00  0.00    +0.000 C 
ATOM     12  C   UNL     1       2.766   3.353  20.216  0.00  0.00    +0.000 C 
ATOM     13  N   UNL     1       2.222   4.522  20.422  0.00  0.00    +0.000 NA
ATOM     14  C   UNL     1       1.981   5.054  19.048  0.00  0.00    +0.000 C 
ATOM     15  C   UNL     1       2.802   4.173  18.065  0.00  0.00    +0.000 C 
ATOM     16  N   UNL     1       3.002   3.006  18.910  0.00  0.00    +0.000 N 
ATOM     17  C   UNL     1       3.047   1.665  18.391  0.00  0.00    +0.000 C 
ENDBRANCH   1  15
BRANCH   7  18
ATOM     18  C   UNL     1       5.938   4.866  14.098  0.00  0.00    +0.000 C 
ATOM     19  C   UNL     1       7.375   4.795  13.577  0.00  0.00    +0.000 C 
ATOM     20  C   UNL     1       7.238   4.207  12.181  0.00  0.00    +0.000 C 
ATOM     21  C   UNL     1       6.008   3.308  12.223  0.00  0.00    +0.000 C 
ATOM     22  C   UNL     1       5.316   3.574  13.557  0.00  0.00    +0.000 C 
ENDBRANCH   7  18
TORSDOF 2
ENDMDL
MODEL 5
REMARK VINA RESULT:      -8.0      2.779      6.143
REMARK  Name = 
REMARK  4 active torsions:
REMARK  status: ('A' for Active; 'I' for Inactive)
REMARK    1  A    between atoms: C_1  and  C_2
REMARK    2  A    between atoms: C_5  and  C_6
REMARK    3  A    between atoms: C_12  and  C_13
REMARK    4  A    between atoms: N_21  and  C_22
REMARK                            x       y       z     vdW  Elec       q    Type
REMARK                         _______ _______ _______ _____ _____    ______ ____
ROOT
ATOM      1  C   UNL     1       4.677   4.526  17.995  0.00  0.00    +0.000 C 
ATOM      2  C   UNL     1       3.625   3.908  17.034  0.00  0.00    +0.000 C 
ATOM      3  C   UNL     1       2.216   3.981  17.632  0.00  0.00    +0.000 C 
ATOM      4  C   UNL     1       2.185   3.204  18.954  0.00  0.00    +0.000 C 
ATOM      5  C   UNL     1       3.184   3.820  19.939  0.00  0.00    +0.000 C 
ATOM      6  C   UNL     1       2.801   5.282  20.200  0.00  0.00    +0.000 C 
ATOM      7  C   UNL     1       2.838   6.106  18.888  0.00  0.00    +0.000 C 
ATOM      8  C   UNL     1       1.854   5.450  17.880  0.00  0.00    +0.000 C 
ATOM      9  C   UNL     1       4.272   5.998  18.296  0.00  0.00    +0.000 C 
ATOM     10  C   UNL     1       4.600   3.755  19.343  0.00  0.00    +0.000 C 
ENDROOT
BRANCH   1  15
ATOM     11  C   UNL     1       7.575   7.903  17.301  0.00  0.00    +0.000 C 
ATOM     12  C   UNL     1       7.290   6.454  17.553  0.00  0.00    +0.000 C 
ATOM     13  N   UNL     1       7.776   5.845  18.600  0.00  0.00    +0.000 NA
ATOM     14  C   UNL     1       7.264   4.449  18.474  0.00  0.00    +0.000 C 
ATOM     15  C   UNL     1       6.131   4.470  17.411  0.00  0.00    +0.000 C 
ATOM     16  N   UNL     1       6.463   5.719  16.742  0.00  0.00    +0.000 N 
ATOM     17  C   UNL     1       6.265   5.926  15.332  0.00  0.00    +0.000 C 
ENDBRANCH   1  15
BRANCH   7  18
ATOM     18  C   UNL     1       2.469   7.606  19.086  0.00  0.00    +0.000 C 
ATOM     19  C   UNL     1       1.707   8.255  17.928  0.00  0.00    +0.000 C 
ATOM     20  C   UNL     1       1.158   9.544  18.519  0.00  0.00    +0.000 C 
ATOM     21  C   UNL     1       0.934   9.266  20.001  0.00  0.00    +0.000 C 
ATOM     22  C   UNL     1       1.578   7.914  20.295  0.00  0.00    +0.000 C 
ENDBRANCH   7  18
TORSDOF 2
ENDMDL
MODEL 6
REMARK VINA RESULT:      -7.9      2.581      5.929
REMARK  Name = 
REMARK  4 active torsions:
REMARK  status: ('A' for Active; 'I' for Inactive)
REMARK    1  A    between atoms: C_1  and  C_2
REMARK    2  A    between atoms: C_5  and  C_6
REMARK    3  A    between atoms: C_12  and  C_13
REMARK    4  A    between atoms: N_21  and  C_22
REMARK                            x       y       z     vdW  Elec       q    Type
REMARK                         _______ _______ _______ _____ _____    ______ ____
ROOT
ATOM      1  C   UNL     1       4.719   4.394  17.833  0.00  0.00    +0.000 C 
ATOM      2  C   UNL     1       3.805   3.380  17.093  0.00  0.00    +0.000 C 
ATOM      3  C   UNL     1       2.437   3.266  17.773  0.00  0.00    +0.000 C 
ATOM      4  C   UNL     1       2.627   2.787  19.218  0.00  0.00    +0.000 C 
ATOM      5  C   UNL     1       3.490   3.793  19.987  0.00  0.00    +0.000 C 
ATOM      6  C   UNL     1       2.792   5.159  19.991  0.00  0.00    +0.000 C 
ATOM      7  C   UNL     1       2.598   5.686  18.547  0.00  0.00    +0.000 C 
ATOM      8  C   UNL     1       1.758   4.640  17.763  0.00  0.00    +0.000 C 
ATOM      9  C   UNL     1       3.999   5.773  17.877  0.00  0.00    +0.000 C 
ATOM     10  C   UNL     1       4.863   3.917  19.307  0.00  0.00    +0.000 C 
ENDROOT
BRANCH   1  15
ATOM     11  C   UNL     1       7.274   8.076  17.380  0.00  0.00    +0.000 C 
ATOM     12  C   UNL     1       7.127   6.587  17.471  0.00  0.00    +0.000 C 
ATOM     13  N   UNL     1       7.735   5.908  18.406  0.00  0.00    +0.000 NA
ATOM     14  C   UNL     1       7.331   4.495  18.143  0.00  0.00    +0.000 C 
ATOM     15  C   UNL     1       6.128   4.537  17.160  0.00  0.00    +0.000 C 
ATOM     16  N   UNL     1       6.308   5.880  16.629  0.00  0.00    +0.000 N 
ATOM     17  C   UNL     1       5.995   6.229  15.269  0.00  0.00    +0.000 C 
ENDBRANCH   1  15
BRANCH   7  18
ATOM     18  C   UNL     1       1.903   7.078  18.482  0.00  0.00    +0.000 C 
ATOM     19  C   UNL     1       1.808   7.829  19.812  0.00  0.00    +0.000 C 
ATOM     20  C   UNL     1       1.455   9.253  19.411  0.00  0.00    +0.000 C 
ATOM     21  C   UNL     1       2.075   9.469  18.035  0.00  0.00    +0.000 C 
ATOM     22  C   UNL     1       2.564   8.105  17.556  0.00  0.00    +0.000 C 
ENDBRANCH   7  18
TORSDOF 2
ENDMDL
MODEL 7
REMARK VINA RESULT:      -7.5      1.138      1.881
REMARK  Name = 
REMARK  4 active torsions:
REMARK  status: ('A' for Active; 'I' for Inactive)
REMARK    1  A    between atoms: C_1  and  C_2
REMARK    2  A    between atoms: C_5  and  C_6
REMARK    3  A    between atoms: C_12  and  C_13
REMARK    4  A    between atoms: N_21  and  C_22
REMARK                            x       y       z     vdW  Elec       q    Type
REMARK                         _______ _______ _______ _____ _____    ______ ____
ROOT
ATOM      1  C   UNL     1       4.975   5.255  18.221  0.00  0.00    +0.000 C 
ATOM      2  C   UNL     1       4.809   6.740  17.798  0.00  0.00    +0.000 C 
ATOM      3  C   UNL     1       5.959   7.191  16.892  0.00  0.00    +0.000 C 
ATOM      4  C   UNL     1       7.287   7.044  17.646  0.00  0.00    +0.000 C 
ATOM      5  C   UNL     1       7.499   5.577  18.038  0.00  0.00    +0.000 C 
ATOM      6  C   UNL     1       7.535   4.715  16.770  0.00  0.00    +0.000 C 
ATOM      7  C   UNL     1       6.202   4.824  15.989  0.00  0.00    +0.000 C 
ATOM      8  C   UNL     1       5.974   6.319  15.632  0.00  0.00    +0.000 C 
ATOM      9  C   UNL     1       5.053   4.379  16.938  0.00  0.00    +0.000 C 
ATOM     10  C   UNL     1       6.345   5.117  18.944  0.00  0.00    +0.000 C 
ENDROOT
BRANCH   1  15
ATOM     11  C   UNL     1       2.252   1.707  17.689  0.00  0.00    +0.000 C 
ATOM     12  C   UNL     1       2.934   2.714  18.564  0.00  0.00    +0.000 C 
ATOM     13  N   UNL     1       3.742   2.338  19.517  0.00  0.00    +0.000 NA
ATOM     14  C   UNL     1       4.195   3.620  20.132  0.00  0.00    +0.000 C 
ATOM     15  C   UNL     1       3.811   4.761  19.148  0.00  0.00    +0.000 C 
ATOM     16  N   UNL     1       2.796   4.065  18.370  0.00  0.00    +0.000 N 
ATOM     17  C   UNL     1       1.637   4.725  17.832  0.00  0.00    +0.000 C 
ENDBRANCH   1  15
BRANCH   7  18
ATOM     18  C   UNL     1       6.169   3.961  14.693  0.00  0.00    +0.000 C 
ATOM     19  C   UNL     1       4.854   3.996  13.911  0.00  0.00    +0.000 C 
ATOM     20  C   UNL     1       5.210   3.408  12.554  0.00  0.00    +0.000 C 
ATOM     21  C   UNL     1       6.674   3.759  12.315  0.00  0.00    +0.000 C 
ATOM     22  C   UNL     1       7.208   4.328  13.628  0.00  0.00    +0.000 C 
ENDBRANCH   7  18
TORSDOF 2
ENDMDL
MODEL 8
REMARK VINA RESULT:      -7.4      2.651      6.285
REMARK  Name = 
REMARK  4 active torsions:
REMARK  status: ('A' for Active; 'I' for Inactive)
REMARK    1  A    between atoms: C_1  and  C_2
REMARK    2  A    between atoms: C_5  and  C_6
REMARK    3  A    between atoms: C_12  and  C_13
REMARK    4  A    between atoms: N_21  and  C_22
REMARK                            x       y       z     vdW  Elec       q    Type
REMARK                         _______ _______ _______ _____ _____    ______ ____
ROOT
ATOM      1  C   UNL     1       4.069   4.299  17.412  0.00  0.00    +0.000 C 
ATOM      2  C   UNL     1       2.741   3.656  16.928  0.00  0.00    +0.000 C 
ATOM      3  C   UNL     1       1.783   3.413  18.099  0.00  0.00    +0.000 C 
ATOM      4  C   UNL     1       2.445   2.466  19.108  0.00  0.00    +0.000 C 
ATOM      5  C   UNL     1       3.738   3.095  19.637  0.00  0.00    +0.000 C 
ATOM      6  C   UNL     1       3.408   4.424  20.328  0.00  0.00    +0.000 C 
ATOM      7  C   UNL     1       2.753   5.416  19.335  0.00  0.00    +0.000 C 
ATOM      8  C   UNL     1       1.466   4.754  18.772  0.00  0.00    +0.000 C 
ATOM      9  C   UNL     1       3.738   5.629  18.150  0.00  0.00    +0.000 C 
ATOM     10  C   UNL     1       4.703   3.347  18.466  0.00  0.00    +0.000 C 
ENDROOT
BRANCH   1  15
ATOM     11  C   UNL     1       7.561   7.140  17.263  0.00  0.00    +0.000 C 
ATOM     12  C   UNL     1       6.861   5.900  16.795  0.00  0.00    +0.000 C 
ATOM     13  N   UNL     1       7.426   4.729  16.902  0.00  0.00    +0.000 NA
ATOM     14  C   UNL     1       6.415   3.789  16.333  0.00  0.00    +0.000 C 
ATOM     15  C   UNL     1       5.071   4.564  16.236  0.00  0.00    +0.000 C 
ATOM     16  N   UNL     1       5.584   5.925  16.296  0.00  0.00    +0.000 N 
ATOM     17  C   UNL     1       4.980   7.018  15.582  0.00  0.00    +0.000 C 
ENDBRANCH   1  15
BRANCH   7  18
ATOM     18  C   UNL     1       2.403   6.793  19.973  0.00  0.00    +0.000 C 
ATOM     19  C   UNL     1       2.006   7.894  18.987  0.00  0.00    +0.000 C 
ATOM     20  C   UNL     1       1.369   8.965  19.859  0.00  0.00    +0.000 C 
ATOM     21  C   UNL     1       0.745   8.229  21.039  0.00  0.00    +0.000 C 
ATOM     22  C   UNL     1       1.232   6.785  20.963  0.00  0.00    +0.000 C 
ENDBRANCH   7  18
TORSDOF 2
ENDMDL
MODEL 9
REMARK VINA RESULT:      -7.1      2.053      4.532
REMARK  Name = 
REMARK  4 active torsions:
REMARK  status: ('A' for Active; 'I' for Inactive)
REMARK    1  A    between atoms: C_1  and  C_2
REMARK    2  A    between atoms: C_5  and  C_6
REMARK    3  A    between atoms: C_12  and  C_13
REMARK    4  A    between atoms: N_21  and  C_22
REMARK                            x       y       z     vdW  Elec       q    Type
REMARK                         _______ _______ _______ _____ _____    ______ ____
ROOT
ATOM      1  C   UNL     1       4.335   3.927  17.952  0.00  0.00    +0.000 C 
ATOM      2  C   UNL     1       5.506   4.336  18.887  0.00  0.00    +0.000 C 
ATOM      3  C   UNL     1       5.997   5.753  18.574  0.00  0.00    +0.000 C 
ATOM      4  C   UNL     1       6.490   5.810  17.122  0.00  0.00    +0.000 C 
ATOM      5  C   UNL     1       5.341   5.453  16.172  0.00  0.00    +0.000 C 
ATOM      6  C   UNL     1       4.198   6.458  16.361  0.00  0.00    +0.000 C 
ATOM      7  C   UNL     1       3.661   6.417  17.814  0.00  0.00    +0.000 C 
ATOM      8  C   UNL     1       4.841   6.739  18.772  0.00  0.00    +0.000 C 
ATOM      9  C   UNL     1       3.187   4.966  18.109  0.00  0.00    +0.000 C 
ATOM     10  C   UNL     1       4.839   4.034  16.485  0.00  0.00    +0.000 C 
ENDROOT
BRANCH   1  15
ATOM     11  C   UNL     1       1.591   2.545  21.245  0.00  0.00    +0.000 C 
ATOM     12  C   UNL     1       2.183   2.380  19.878  0.00  0.00    +0.000 C 
ATOM     13  N   UNL     1       1.424   2.349  18.817  0.00  0.00    +0.000 NA
ATOM     14  C   UNL     1       2.389   2.174  17.691  0.00  0.00    +0.000 C 
ATOM     15  C   UNL     1       3.806   2.482  18.249  0.00  0.00    +0.000 C 
ATOM     16  N   UNL     1       3.537   2.316  19.670  0.00  0.00    +0.000 N 
ATOM     17  C   UNL     1       4.507   1.788  20.591  0.00  0.00    +0.000 C 
ENDBRANCH   1  15
BRANCH   7  18
ATOM     18  C   UNL     1       2.487   7.409  18.070  0.00  0.00    +0.000 C 
ATOM     19  C   UNL     1       2.147   7.660  19.541  0.00  0.00    +0.000 C 
ATOM     20  C   UNL     1       1.270   8.903  19.514  0.00  0.00    +0.000 C 
ATOM     21  C   UNL     1       1.727   9.714  18.307  0.00  0.00    +0.000 C 
ATOM     22  C   UNL     1       2.686   8.825  17.519  0.00  0.00    +0.000 C 
ENDBRANCH   7  18
TORSDOF 2
ENDMDL
