MODEL 1
REMARK VINA RESULT:      -7.9      0.000      0.000
REMARK  Name = 
REMARK  6 active torsions:
REMARK  status: ('A' for Active; 'I' for Inactive)
REMARK    1  A    between atoms: C_1  and  O_2
REMARK    2  A    between atoms: O_2  and  C_3
REMARK    3  A    between atoms: C_8  and  N_9
REMARK    4  A    between atoms: C_11  and  C_12
REMARK    5  A    between atoms: C_12  and  N_13
REMARK    6  A    between atoms: N_20  and  C_21
REMARK                            x       y       z     vdW  Elec       q    Type
REMARK                         _______ _______ _______ _____ _____    ______ ____
ROOT
ATOM      1  N   UNL     1       1.369   8.360  19.930  0.00  0.00    +0.000 N 
ATOM      2  C   UNL     1       1.790   8.828  18.690  0.00  0.00    +0.000 A 
ATOM      3  N   UNL     1       1.496   9.984  18.174  0.00  0.00    +0.000 NA
ATOM      4  C   UNL     1       0.617  10.693  18.931  0.00  0.00    +0.000 A 
ATOM      5  C   UNL     1      -0.001  10.268  20.083  0.00  0.00    +0.000 A 
ATOM      6  C   UNL     1      -1.002  11.209  20.333  0.00  0.00    +0.000 A 
ATOM      7  N   UNL     1      -0.902  12.262  19.510  0.00  0.00    +0.000 NA
ATOM      8  N   UNL     1       0.285  12.044  18.856  0.00  0.00    +0.000 N 
ATOM      9  C   UNL     1       0.463   9.073  20.721  0.00  0.00    +0.000 A 
ATOM     10  O   UNL     1       0.154   8.779  21.870  0.00  0.00    +0.000 OA
ENDROOT
BRANCH   8  11
ATOM     11  C   UNL     1       1.141  13.139  18.533  0.00  0.00    +0.000 A 
ATOM     12  C   UNL     1       0.707  14.450  18.797  0.00  0.00    +0.000 A 
ATOM     13  C   UNL     1       1.614  15.511  18.762  0.00  0.00    +0.000 A 
ATOM     14  C   UNL     1       2.952  15.274  18.450  0.00  0.00    +0.000 A 
ATOM     15 CL   UNL     1       4.091  16.560  18.512  0.00  0.00    +0.000 Cl
ATOM     16  C   UNL     1       3.379  13.988  18.122  0.00  0.00    +0.000 A 
ATOM     17  C   UNL     1       2.474  12.923  18.154  0.00  0.00    +0.000 A 
ENDBRANCH   8  11
BRANCH   1  18
ATOM     18  C   UNL     1       1.975   7.167  20.482  0.00  0.00    +0.000 C 
BRANCH  18  21
ATOM     19  N   UNL     1       4.003   5.539  17.922  0.00  0.00    +0.000 N 
ATOM     20  C   UNL     1       3.857   6.579  18.812  0.00  0.00    +0.000 A 
ATOM     21  C   UNL     1       2.625   6.396  19.397  0.00  0.00    +0.000 A 
ATOM     22  N   UNL     1       2.022   5.312  18.836  0.00  0.00    +0.000 NA
ATOM     23  N   UNL     1       2.844   4.800  17.935  0.00  0.00    +0.000 NA
BRANCH  19  29
ATOM     24  C   UNL     1       6.375   4.847  17.568  0.00  0.00    +0.000 A 
ATOM     25  C   UNL     1       7.372   4.469  16.656  0.00  0.00    +0.000 A 
ATOM     26  C   UNL     1       7.120   4.437  15.281  0.00  0.00    +0.000 A 
ATOM     27  C   UNL     1       5.865   4.777  14.801  0.00  0.00    +0.000 A 
ATOM     28  C   UNL     1       4.857   5.138  15.692  0.00  0.00    +0.000 A 
ATOM     29  C   UNL     1       5.094   5.171  17.084  0.00  0.00    +0.000 A 
BRANCH  24  31
ATOM     30  C   UNL     1       7.644   5.689  19.399  0.00  0.00    +0.000 C 
ATOM     31  O   UNL     1       6.603   4.837  18.917  0.00  0.00    +0.000 OA
ENDBRANCH  24  31
ENDBRANCH  19  29
ENDBRANCH  18  21
ENDBRANCH   1  18
TORSDOF 5
ENDMDL
MODEL 2
REMARK VINA RESULT:      -7.9      5.297      7.721
REMARK  Name = 
REMARK  6 active torsions:
REMARK  status: ('A' for Active; 'I' for Inactive)
REMARK    1  A    between atoms: C_1  and  O_2
REMARK    2  A    between atoms: O_2  and  C_3
REMARK    3  A    between atoms: C_8  and  N_9
REMARK    4  A    between atoms: C_11  and  C_12
REMARK    5  A    between atoms: C_12  and  N_13
REMARK    6  A    between atoms: N_20  and  C_21
REMARK                            x       y       z     vdW  Elec       q    Type
REMARK                         _______ _______ _______ _____ _____    ______ ____
ROOT
ATOM      1  N   UNL     1       3.814  15.220  19.978  0.00  0.00    +0.000 N 
ATOM      2  C   UNL     1       3.790  14.210  20.935  0.00  0.00    +0.000 A 
ATOM      3  N   UNL     1       2.875  13.294  21.049  0.00  0.00    +0.000 NA
ATOM      4  C   UNL     1       1.840  13.469  20.185  0.00  0.00    +0.000 A 
ATOM      5  C   UNL     1       1.667  14.521  19.317  0.00  0.00    +0.000 A 
ATOM      6  C   UNL     1       0.352  14.408  18.860  0.00  0.00    +0.000 A 
ATOM      7  N   UNL     1      -0.209  13.258  19.257  0.00  0.00    +0.000 NA
ATOM      8  N   UNL     1       0.836  12.573  19.825  0.00  0.00    +0.000 N 
ATOM      9  C   UNL     1       2.758  15.418  19.085  0.00  0.00    +0.000 A 
ATOM     10  O   UNL     1       2.775  16.202  18.143  0.00  0.00    +0.000 OA
ENDROOT
BRANCH   8  11
ATOM     11  C   UNL     1       0.941  11.159  19.666  0.00  0.00    +0.000 A 
ATOM     12  C   UNL     1       1.436  10.640  18.457  0.00  0.00    +0.000 A 
ATOM     13  C   UNL     1       1.817   9.299  18.371  0.00  0.00    +0.000 A 
ATOM     14  C   UNL     1       1.694   8.468  19.483  0.00  0.00    +0.000 A 
ATOM     15 CL   UNL     1       2.262   6.847  19.413  0.00  0.00    +0.000 Cl
ATOM     16  C   UNL     1       1.143   8.956  20.667  0.00  0.00    +0.000 A 
ATOM     17  C   UNL     1       0.758  10.296  20.757  0.00  0.00    +0.000 A 
ENDBRANCH   8  11
BRANCH   1  18
ATOM     18  C   UNL     1       5.015  16.011  19.812  0.00  0.00    +0.000 C 
BRANCH  18  21
ATOM     19  N   UNL     1       7.766  14.089  18.379  0.00  0.00    +0.000 N 
ATOM     20  C   UNL     1       7.305  14.886  19.402  0.00  0.00    +0.000 A 
ATOM     21  C   UNL     1       6.019  15.231  19.053  0.00  0.00    +0.000 A 
ATOM     22  N   UNL     1       5.735  14.705  17.830  0.00  0.00    +0.000 NA
ATOM     23  N   UNL     1       6.792  14.027  17.413  0.00  0.00    +0.000 NA
BRANCH  19  29
ATOM     24  C   UNL     1      10.174  13.985  17.727  0.00  0.00    +0.000 A 
ATOM     25  C   UNL     1      11.342  13.214  17.640  0.00  0.00    +0.000 A 
ATOM     26  C   UNL     1      11.347  11.864  18.006  0.00  0.00    +0.000 A 
ATOM     27  C   UNL     1      10.183  11.271  18.472  0.00  0.00    +0.000 A 
ATOM     28  C   UNL     1       9.018  12.025  18.584  0.00  0.00    +0.000 A 
ATOM     29  C   UNL     1       8.997  13.391  18.221  0.00  0.00    +0.000 A 
BRANCH  24  31
ATOM     30  C   UNL     1      11.441  15.908  17.119  0.00  0.00    +0.000 C 
ATOM     31  O   UNL     1      10.174  15.317  17.411  0.00  0.00    +0.000 OA
ENDBRANCH  24  31
ENDBRANCH  19  29
ENDBRANCH  18  21
ENDBRANCH   1  18
TORSDOF 5
ENDMDL
MODEL 3
REMARK VINA RESULT:      -7.9      4.285      6.857
REMARK  Name = 
REMARK  6 active torsions:
REMARK  status: ('A' for Active; 'I' for Inactive)
REMARK    1  A    between atoms: C_1  and  O_2
REMARK    2  A    between atoms: O_2  and  C_3
REMARK    3  A    between atoms: C_8  and  N_9
REMARK    4  A    between atoms: C_11  and  C_12
REMARK    5  A    between atoms: C_12  and  N_13
REMARK    6  A    between atoms: N_20  and  C_21
REMARK                            x       y       z     vdW  Elec       q    Type
REMARK                         _______ _______ _______ _____ _____    ______ ____
ROOT
ATOM      1  N   UNL     1       6.080   6.352  17.969  0.00  0.00    +0.000 N 
ATOM      2  C   UNL     1       5.150   7.095  17.250  0.00  0.00    +0.000 A 
ATOM      3  N   UNL     1       3.891   7.228  17.547  0.00  0.00    +0.000 NA
ATOM      4  C   UNL     1       3.513   6.465  18.607  0.00  0.00    +0.000 A 
ATOM      5  C   UNL     1       4.297   5.564  19.287  0.00  0.00    +0.000 A 
ATOM      6  C   UNL     1       3.412   4.837  20.087  0.00  0.00    +0.000 A 
ATOM      7  N   UNL     1       2.181   5.367  20.064  0.00  0.00    +0.000 NA
ATOM      8  N   UNL     1       2.352   6.541  19.373  0.00  0.00    +0.000 N 
ATOM      9  C   UNL     1       5.710   5.559  19.059  0.00  0.00    +0.000 A 
ATOM     10  O   UNL     1       6.495   4.986  19.807  0.00  0.00    +0.000 OA
ENDROOT
BRANCH   8  11
ATOM     11  C   UNL     1       1.627   7.710  19.750  0.00  0.00    +0.000 A 
ATOM     12  C   UNL     1       1.233   7.871  21.089  0.00  0.00    +0.000 A 
ATOM     13  C   UNL     1       0.782   9.112  21.545  0.00  0.00    +0.000 A 
ATOM     14  C   UNL     1       0.708  10.191  20.667  0.00  0.00    +0.000 A 
ATOM     15 CL   UNL     1       0.256  11.745  21.249  0.00  0.00    +0.000 Cl
ATOM     16  C   UNL     1       1.033  10.026  19.322  0.00  0.00    +0.000 A 
ATOM     17  C   UNL     1       1.483   8.785  18.860  0.00  0.00    +0.000 A 
ENDBRANCH   8  11
BRANCH   1  18
ATOM     18  C   UNL     1       7.489   6.497  17.669  0.00  0.00    +0.000 C 
BRANCH  18  21
ATOM     19  N   UNL     1       8.915   9.739  18.549  0.00  0.00    +0.000 N 
ATOM     20  C   UNL     1       8.883   8.379  18.760  0.00  0.00    +0.000 A 
ATOM     21  C   UNL     1       7.906   7.896  17.921  0.00  0.00    +0.000 A 
ATOM     22  N   UNL     1       7.327   8.939  17.265  0.00  0.00    +0.000 NA
ATOM     23  N   UNL     1       7.923  10.055  17.653  0.00  0.00    +0.000 NA
BRANCH  19  29
ATOM     24  C   UNL     1       9.669  11.230  20.404  0.00  0.00    +0.000 A 
ATOM     25  C   UNL     1      10.576  12.206  20.840  0.00  0.00    +0.000 A 
ATOM     26  C   UNL     1      11.550  12.725  19.981  0.00  0.00    +0.000 A 
ATOM     27  C   UNL     1      11.632  12.267  18.675  0.00  0.00    +0.000 A 
ATOM     28  C   UNL     1      10.752  11.285  18.228  0.00  0.00    +0.000 A 
ATOM     29  C   UNL     1       9.764  10.749  19.085  0.00  0.00    +0.000 A 
BRANCH  24  31
ATOM     30  C   UNL     1       8.288  11.518  22.323  0.00  0.00    +0.000 C 
ATOM     31  O   UNL     1       8.742  10.688  21.253  0.00  0.00    +0.000 OA
ENDBRANCH  24  31
ENDBRANCH  19  29
ENDBRANCH  18  21
ENDBRANCH   1  18
TORSDOF 5
ENDMDL
MODEL 4
REMARK VINA RESULT:      -7.9      3.314      5.087
REMARK  Name = 
REMARK  6 active torsions:
REMARK  status: ('A' for Active; 'I' for Inactive)
REMARK    1  A    between atoms: C_1  and  O_2
REMARK    2  A    between atoms: O_2  and  C_3
REMARK    3  A    between atoms: C_8  and  N_9
REMARK    4  A    between atoms: C_11  and  C_12
REMARK    5  A    between atoms: C_12  and  N_13
REMARK    6  A    between atoms: N_20  and  C_21
REMARK                            x       y       z     vdW  Elec       q    Type
REMARK                         _______ _______ _______ _____ _____    ______ ____
ROOT
ATOM      1  N   UNL     1       0.807  10.713  18.266  0.00  0.00    +0.000 N 
ATOM      2  C   UNL     1       0.919  11.860  19.044  0.00  0.00    +0.000 A 
ATOM      3  N   UNL     1      -0.070  12.546  19.534  0.00  0.00    +0.000 NA
ATOM      4  C   UNL     1      -1.284  12.092  19.122  0.00  0.00    +0.000 A 
ATOM      5  C   UNL     1      -1.517  11.081  18.221  0.00  0.00    +0.000 A 
ATOM      6  C   UNL     1      -2.876  11.170  17.910  0.00  0.00    +0.000 A 
ATOM      7  N   UNL     1      -3.504  12.049  18.703  0.00  0.00    +0.000 NA
ATOM      8  N   UNL     1      -2.548  12.380  19.632  0.00  0.00    +0.000 N 
ATOM      9  C   UNL     1      -0.431  10.234  17.829  0.00  0.00    +0.000 A 
ATOM     10  O   UNL     1      -0.606   9.166  17.254  0.00  0.00    +0.000 OA
ENDROOT
BRANCH   8  11
ATOM     11  C   UNL     1      -2.913  12.602  20.993  0.00  0.00    +0.000 A 
ATOM     12  C   UNL     1      -4.180  13.134  21.285  0.00  0.00    +0.000 A 
ATOM     13  C   UNL     1      -4.674  13.098  22.592  0.00  0.00    +0.000 A 
ATOM     14  C   UNL     1      -3.902  12.546  23.612  0.00  0.00    +0.000 A 
ATOM     15 CL   UNL     1      -4.549  12.402  25.199  0.00  0.00    +0.000 Cl
ATOM     16  C   UNL     1      -2.617  12.076  23.345  0.00  0.00    +0.000 A 
ATOM     17  C   UNL     1      -2.118  12.112  22.040  0.00  0.00    +0.000 A 
ENDBRANCH   8  11
BRANCH   1  18
ATOM     18  C   UNL     1       1.986   9.915  18.003  0.00  0.00    +0.000 C 
BRANCH  18  21
ATOM     19  N   UNL     1       2.164   6.677  19.675  0.00  0.00    +0.000 N 
ATOM     20  C   UNL     1       2.302   7.403  18.513  0.00  0.00    +0.000 A 
ATOM     21  C   UNL     1       1.952   8.693  18.838  0.00  0.00    +0.000 A 
ATOM     22  N   UNL     1       1.559   8.733  20.141  0.00  0.00    +0.000 NA
ATOM     23  N   UNL     1       1.671   7.515  20.646  0.00  0.00    +0.000 NA
BRANCH  19  29
ATOM     24  C   UNL     1       3.592   4.636  19.508  0.00  0.00    +0.000 A 
ATOM     25  C   UNL     1       3.786   3.297  19.875  0.00  0.00    +0.000 A 
ATOM     26  C   UNL     1       2.847   2.618  20.659  0.00  0.00    +0.000 A 
ATOM     27  C   UNL     1       1.704   3.275  21.091  0.00  0.00    +0.000 A 
ATOM     28  C   UNL     1       1.503   4.610  20.751  0.00  0.00    +0.000 A 
ATOM     29  C   UNL     1       2.443   5.311  19.963  0.00  0.00    +0.000 A 
BRANCH  24  31
ATOM     30  C   UNL     1       5.866   5.308  19.279  0.00  0.00    +0.000 C 
ATOM     31  O   UNL     1       4.528   5.317  18.778  0.00  0.00    +0.000 OA
ENDBRANCH  24  31
ENDBRANCH  19  29
ENDBRANCH  18  21
ENDBRANCH   1  18
TORSDOF 5
ENDMDL
MODEL 5
REMARK VINA RESULT:      -7.8      4.496      7.186
REMARK  Name = 
REMARK  6 active torsions:
REMARK  status: ('A' for Active; 'I' for Inactive)
REMARK    1  A    between atoms: C_1  and  O_2
REMARK    2  A    between atoms: O_2  and  C_3
REMARK    3  A    between atoms: C_8  and  N_9
REMARK    4  A    between atoms: C_11  and  C_12
REMARK    5  A    between atoms: C_12  and  N_13
REMARK    6  A    between atoms: N_20  and  C_21
REMARK                            x       y       z     vdW  Elec       q    Type
REMARK                         _______ _______ _______ _____ _____    ______ ____
ROOT
ATOM      1  N   UNL     1       6.328   6.343  17.961  0.00  0.00    +0.000 N 
ATOM      2  C   UNL     1       5.376   7.022  17.209  0.00  0.00    +0.000 A 
ATOM      3  N   UNL     1       4.104   7.082  17.469  0.00  0.00    +0.000 NA
ATOM      4  C   UNL     1       3.743   6.307  18.526  0.00  0.00    +0.000 A 
ATOM      5  C   UNL     1       4.560   5.460  19.238  0.00  0.00    +0.000 A 
ATOM      6  C   UNL     1       3.698   4.689  20.020  0.00  0.00    +0.000 A 
ATOM      7  N   UNL     1       2.439   5.143  19.958  0.00  0.00    +0.000 NA
ATOM      8  N   UNL     1       2.558   6.319  19.260  0.00  0.00    +0.000 N 
ATOM      9  C   UNL     1       5.977   5.539  19.048  0.00  0.00    +0.000 A 
ATOM     10  O   UNL     1       6.772   5.021  19.824  0.00  0.00    +0.000 OA
ENDROOT
BRANCH   8  11
ATOM     11  C   UNL     1       1.754   7.446  19.604  0.00  0.00    +0.000 A 
ATOM     12  C   UNL     1       1.315   7.596  20.931  0.00  0.00    +0.000 A 
ATOM     13  C   UNL     1       0.778   8.812  21.360  0.00  0.00    +0.000 A 
ATOM     14  C   UNL     1       0.662   9.876  20.468  0.00  0.00    +0.000 A 
ATOM     15 CL   UNL     1       0.102  11.405  21.020  0.00  0.00    +0.000 Cl
ATOM     16  C   UNL     1       1.033   9.717  19.133  0.00  0.00    +0.000 A 
ATOM     17  C   UNL     1       1.569   8.501  18.698  0.00  0.00    +0.000 A 
ENDBRANCH   8  11
BRANCH   1  18
ATOM     18  C   UNL     1       7.734   6.570  17.698  0.00  0.00    +0.000 C 
BRANCH  18  21
ATOM     19  N   UNL     1       8.867   9.865  18.782  0.00  0.00    +0.000 N 
ATOM     20  C   UNL     1       8.771   8.517  19.044  0.00  0.00    +0.000 A 
ATOM     21  C   UNL     1       8.068   7.983  17.988  0.00  0.00    +0.000 A 
ATOM     22  N   UNL     1       7.702   8.988  17.145  0.00  0.00    +0.000 NA
ATOM     23  N   UNL     1       8.169  10.127  17.629  0.00  0.00    +0.000 NA
BRANCH  19  29
ATOM     24  C   UNL     1      10.531  11.722  18.914  0.00  0.00    +0.000 A 
ATOM     25  C   UNL     1      11.103  12.743  19.686  0.00  0.00    +0.000 A 
ATOM     26  C   UNL     1      10.721  12.944  21.016  0.00  0.00    +0.000 A 
ATOM     27  C   UNL     1       9.754  12.131  21.588  0.00  0.00    +0.000 A 
ATOM     28  C   UNL     1       9.161  11.123  20.831  0.00  0.00    +0.000 A 
ATOM     29  C   UNL     1       9.534  10.909  19.485  0.00  0.00    +0.000 A 
BRANCH  24  31
ATOM     30  C   UNL     1      11.511  12.647  16.949  0.00  0.00    +0.000 C 
ATOM     31  O   UNL     1      10.871  11.547  17.599  0.00  0.00    +0.000 OA
ENDBRANCH  24  31
ENDBRANCH  19  29
ENDBRANCH  18  21
ENDBRANCH   1  18
TORSDOF 5
ENDMDL
MODEL 6
REMARK VINA RESULT:      -7.8      3.397      9.102
REMARK  Name = 
REMARK  6 active torsions:
REMARK  status: ('A' for Active; 'I' for Inactive)
REMARK    1  A    between atoms: C_1  and  O_2
REMARK    2  A    between atoms: O_2  and  C_3
REMARK    3  A    between atoms: C_8  and  N_9
REMARK    4  A    between atoms: C_11  and  C_12
REMARK    5  A    between atoms: C_12  and  N_13
REMARK    6  A    between atoms: N_20  and  C_21
REMARK                            x       y       z     vdW  Elec       q    Type
REMARK                         _______ _______ _______ _____ _____    ______ ____
ROOT
ATOM      1  N   UNL     1       3.536   6.290  18.789  0.00  0.00    +0.000 N 
ATOM      2  C   UNL     1       3.557   6.984  17.583  0.00  0.00    +0.000 A 
ATOM      3  N   UNL     1       4.485   6.903  16.676  0.00  0.00    +0.000 NA
ATOM      4  C   UNL     1       5.534   6.129  17.060  0.00  0.00    +0.000 A 
ATOM      5  C   UNL     1       5.708   5.535  18.288  0.00  0.00    +0.000 A 
ATOM      6  C   UNL     1       7.033   5.095  18.300  0.00  0.00    +0.000 A 
ATOM      7  N   UNL     1       7.605   5.226  17.096  0.00  0.00    +0.000 NA
ATOM      8  N   UNL     1       6.560   5.593  16.285  0.00  0.00    +0.000 N 
ATOM      9  C   UNL     1       4.607   5.493  19.202  0.00  0.00    +0.000 A 
ATOM     10  O   UNL     1       4.597   4.761  20.185  0.00  0.00    +0.000 OA
ENDROOT
BRANCH   8  11
ATOM     11  C   UNL     1       6.481   5.105  14.946  0.00  0.00    +0.000 A 
ATOM     12  C   UNL     1       7.539   5.365  14.058  0.00  0.00    +0.000 A 
ATOM     13  C   UNL     1       7.628   4.672  12.849  0.00  0.00    +0.000 A 
ATOM     14  C   UNL     1       6.656   3.731  12.513  0.00  0.00    +0.000 A 
ATOM     15 CL   UNL     1       6.820   2.800  11.076  0.00  0.00    +0.000 Cl
ATOM     16  C   UNL     1       5.567   3.514  13.356  0.00  0.00    +0.000 A 
ATOM     17  C   UNL     1       5.474   4.206  14.566  0.00  0.00    +0.000 A 
ENDBRANCH   8  11
BRANCH   1  18
ATOM     18  C   UNL     1       2.326   6.285  19.583  0.00  0.00    +0.000 C 
BRANCH  18  21
ATOM     19  N   UNL     1       1.133   9.733  19.572  0.00  0.00    +0.000 N 
ATOM     20  C   UNL     1       1.632   8.665  18.860  0.00  0.00    +0.000 A 
ATOM     21  C   UNL     1       1.863   7.676  19.788  0.00  0.00    +0.000 A 
ATOM     22  N   UNL     1       1.568   8.153  21.028  0.00  0.00    +0.000 NA
ATOM     23  N   UNL     1       1.141   9.399  20.904  0.00  0.00    +0.000 NA
BRANCH  19  29
ATOM     24  C   UNL     1      -0.614  11.210  18.572  0.00  0.00    +0.000 A 
ATOM     25  C   UNL     1      -0.996  12.509  18.209  0.00  0.00    +0.000 A 
ATOM     26  C   UNL     1      -0.127  13.592  18.377  0.00  0.00    +0.000 A 
ATOM     27  C   UNL     1       1.133  13.389  18.917  0.00  0.00    +0.000 A 
ATOM     28  C   UNL     1       1.524  12.108  19.301  0.00  0.00    +0.000 A 
ATOM     29  C   UNL     1       0.657  11.004  19.141  0.00  0.00    +0.000 A 
BRANCH  24  31
ATOM     30  C   UNL     1      -2.008   9.905  17.147  0.00  0.00    +0.000 C 
ATOM     31  O   UNL     1      -1.476  10.154  18.450  0.00  0.00    +0.000 OA
ENDBRANCH  24  31
ENDBRANCH  19  29
ENDBRANCH  18  21
ENDBRANCH   1  18
TORSDOF 5
ENDMDL
MODEL 7
REMARK VINA RESULT:      -7.8      5.178      7.425
REMARK  Name = 
REMARK  6 active torsions:
REMARK  status: ('A' for Active; 'I' for Inactive)
REMARK    1  A    between atoms: C_1  and  O_2
REMARK    2  A    between atoms: O_2  and  C_3
REMARK    3  A    between atoms: C_8  and  N_9
REMARK    4  A    between atoms: C_11  and  C_12
REMARK    5  A    between atoms: C_12  and  N_13
REMARK    6  A    between atoms: N_20  and  C_21
REMARK                            x       y       z     vdW  Elec       q    Type
REMARK                         _______ _______ _______ _____ _____    ______ ____
ROOT
ATOM      1  N   UNL     1       3.732  15.303  19.744  0.00  0.00    +0.000 N 
ATOM      2  C   UNL     1       3.745  14.353  20.760  0.00  0.00    +0.000 A 
ATOM      3  N   UNL     1       2.840  13.442  20.959  0.00  0.00    +0.000 NA
ATOM      4  C   UNL     1       1.777  13.559  20.120  0.00  0.00    +0.000 A 
ATOM      5  C   UNL     1       1.569  14.555  19.196  0.00  0.00    +0.000 A 
ATOM      6  C   UNL     1       0.242  14.409  18.789  0.00  0.00    +0.000 A 
ATOM      7  N   UNL     1      -0.299  13.283  19.273  0.00  0.00    +0.000 NA
ATOM      8  N   UNL     1       0.768  12.638  19.848  0.00  0.00    +0.000 N 
ATOM      9  C   UNL     1       2.647  15.442  18.875  0.00  0.00    +0.000 A 
ATOM     10  O   UNL     1       2.628  16.168  17.887  0.00  0.00    +0.000 OA
ENDROOT
BRANCH   8  11
ATOM     11  C   UNL     1       0.878  11.217  19.771  0.00  0.00    +0.000 A 
ATOM     12  C   UNL     1       1.342  10.629  18.582  0.00  0.00    +0.000 A 
ATOM     13  C   UNL     1       1.728   9.287  18.566  0.00  0.00    +0.000 A 
ATOM     14  C   UNL     1       1.641   8.524  19.729  0.00  0.00    +0.000 A 
ATOM     15 CL   UNL     1       2.216   6.904  19.740  0.00  0.00    +0.000 Cl
ATOM     16  C   UNL     1       1.120   9.080  20.896  0.00  0.00    +0.000 A 
ATOM     17  C   UNL     1       0.730  10.422  20.916  0.00  0.00    +0.000 A 
ENDBRANCH   8  11
BRANCH   1  18
ATOM     18  C   UNL     1       4.922  16.088  19.492  0.00  0.00    +0.000 C 
BRANCH  18  21
ATOM     19  N   UNL     1       7.768  13.946  18.702  0.00  0.00    +0.000 N 
ATOM     20  C   UNL     1       7.188  14.849  19.564  0.00  0.00    +0.000 A 
ATOM     21  C   UNL     1       5.995  15.207  18.978  0.00  0.00    +0.000 A 
ATOM     22  N   UNL     1       5.887  14.583  17.772  0.00  0.00    +0.000 NA
ATOM     23  N   UNL     1       6.963  13.833  17.595  0.00  0.00    +0.000 NA
BRANCH  19  29
ATOM     24  C   UNL     1       9.466  12.678  20.022  0.00  0.00    +0.000 A 
ATOM     25  C   UNL     1      10.647  11.922  20.011  0.00  0.00    +0.000 A 
ATOM     26  C   UNL     1      11.351  11.697  18.824  0.00  0.00    +0.000 A 
ATOM     27  C   UNL     1      10.878  12.221  17.631  0.00  0.00    +0.000 A 
ATOM     28  C   UNL     1       9.697  12.959  17.618  0.00  0.00    +0.000 A 
ATOM     29  C   UNL     1       8.972  13.192  18.809  0.00  0.00    +0.000 A 
BRANCH  24  31
ATOM     30  C   UNL     1       8.596  11.728  22.026  0.00  0.00    +0.000 C 
ATOM     31  O   UNL     1       8.750  12.864  21.174  0.00  0.00    +0.000 OA
ENDBRANCH  24  31
ENDBRANCH  19  29
ENDBRANCH  18  21
ENDBRANCH   1  18
TORSDOF 5
ENDMDL
MODEL 8
REMARK VINA RESULT:      -7.7      3.460      4.875
REMARK  Name = 
REMARK  6 active torsions:
REMARK  status: ('A' for Active; 'I' for Inactive)
REMARK    1  A    between atoms: C_1  and  O_2
REMARK    2  A    between atoms: O_2  and  C_3
REMARK    3  A    between atoms: C_8  and  N_9
REMARK    4  A    between atoms: C_11  and  C_12
REMARK    5  A    between atoms: C_12  and  N_13
REMARK    6  A    between atoms: N_20  and  C_21
REMARK                            x       y       z     vdW  Elec       q    Type
REMARK                         _______ _______ _______ _____ _____    ______ ____
ROOT
ATOM      1  N   UNL     1       1.245  10.390  18.802  0.00  0.00    +0.000 N 
ATOM      2  C   UNL     1       0.180   9.716  19.388  0.00  0.00    +0.000 A 
ATOM      3  N   UNL     1      -0.821  10.269  20.007  0.00  0.00    +0.000 NA
ATOM      4  C   UNL     1      -0.687  11.615  20.132  0.00  0.00    +0.000 A 
ATOM      5  C   UNL     1       0.397  12.370  19.750  0.00  0.00    +0.000 A 
ATOM      6  C   UNL     1       0.194  13.625  20.328  0.00  0.00    +0.000 A 
ATOM      7  N   UNL     1      -1.025  13.722  20.876  0.00  0.00    +0.000 NA
ATOM      8  N   UNL     1      -1.646  12.565  20.478  0.00  0.00    +0.000 N 
ATOM      9  C   UNL     1       1.403  11.773  18.924  0.00  0.00    +0.000 A 
ATOM     10  O   UNL     1       2.243  12.439  18.328  0.00  0.00    +0.000 OA
ENDROOT
BRANCH   8  11
ATOM     11  C   UNL     1      -3.032  12.572  20.138  0.00  0.00    +0.000 A 
ATOM     12  C   UNL     1      -3.438  12.029  18.907  0.00  0.00    +0.000 A 
ATOM     13  C   UNL     1      -4.788  11.762  18.668  0.00  0.00    +0.000 A 
ATOM     14  C   UNL     1      -5.739  12.047  19.647  0.00  0.00    +0.000 A 
ATOM     15 CL   UNL     1      -7.385  11.621  19.398  0.00  0.00    +0.000 Cl
ATOM     16  C   UNL     1      -5.354  12.646  20.845  0.00  0.00    +0.000 A 
ATOM     17  C   UNL     1      -4.005  12.917  21.088  0.00  0.00    +0.000 A 
ENDBRANCH   8  11
BRANCH   1  18
ATOM     18  C   UNL     1       2.151   9.668  17.934  0.00  0.00    +0.000 C 
BRANCH  18  21
ATOM     19  N   UNL     1       2.416   6.072  18.492  0.00  0.00    +0.000 N 
ATOM     20  C   UNL     1       2.269   7.109  17.599  0.00  0.00    +0.000 A 
ATOM     21  C   UNL     1       2.223   8.252  18.363  0.00  0.00    +0.000 A 
ATOM     22  N   UNL     1       2.282   7.910  19.679  0.00  0.00    +0.000 NA
ATOM     23  N   UNL     1       2.383   6.594  19.762  0.00  0.00    +0.000 NA
BRANCH  19  29
ATOM     24  C   UNL     1       3.775   4.093  17.807  0.00  0.00    +0.000 A 
ATOM     25  C   UNL     1       3.845   2.699  17.664  0.00  0.00    +0.000 A 
ATOM     26  C   UNL     1       2.745   1.886  17.958  0.00  0.00    +0.000 A 
ATOM     27  C   UNL     1       1.564   2.458  18.406  0.00  0.00    +0.000 A 
ATOM     28  C   UNL     1       1.481   3.838  18.571  0.00  0.00    +0.000 A 
ATOM     29  C   UNL     1       2.584   4.673  18.282  0.00  0.00    +0.000 A 
BRANCH  24  31
ATOM     30  C   UNL     1       5.938   4.812  18.497  0.00  0.00    +0.000 C 
ATOM     31  O   UNL     1       4.861   4.889  17.562  0.00  0.00    +0.000 OA
ENDBRANCH  24  31
ENDBRANCH  19  29
ENDBRANCH  18  21
ENDBRANCH   1  18
TORSDOF 5
ENDMDL
MODEL 9
REMARK VINA RESULT:      -7.6      3.670      5.167
REMARK  Name = 
REMARK  6 active torsions:
REMARK  status: ('A' for Active; 'I' for Inactive)
REMARK    1  A    between atoms: C_1  and  O_2
REMARK    2  A    between atoms: O_2  and  C_3
REMARK    3  A    between atoms: C_8  and  N_9
REMARK    4  A    between atoms: C_11  and  C_12
REMARK    5  A    between atoms: C_12  and  N_13
REMARK    6  A    between atoms: N_20  and  C_21
REMARK                            x       y       z     vdW  Elec       q    Type
REMARK                         _______ _______ _______ _____ _____    ______ ____
ROOT
ATOM      1  N   UNL     1       0.698  10.950  19.661  0.00  0.00    +0.000 N 
ATOM      2  C   UNL     1      -0.087  10.118  20.452  0.00  0.00    +0.000 A 
ATOM      3  N   UNL     1      -0.804  10.492  21.469  0.00  0.00    +0.000 NA
ATOM      4  C   UNL     1      -0.639  11.806  21.778  0.00  0.00    +0.000 A 
ATOM      5  C   UNL     1       0.235  12.684  21.183  0.00  0.00    +0.000 A 
ATOM      6  C   UNL     1       0.246  13.809  22.009  0.00  0.00    +0.000 A 
ATOM      7  N   UNL     1      -0.699  13.733  22.956  0.00  0.00    +0.000 NA
ATOM      8  N   UNL     1      -1.417  12.618  22.601  0.00  0.00    +0.000 N 
ATOM      9  C   UNL     1       0.883  12.301  19.965  0.00  0.00    +0.000 A 
ATOM     10  O   UNL     1       1.454  13.110  19.243  0.00  0.00    +0.000 OA
ENDROOT
BRANCH   8  11
ATOM     11  C   UNL     1      -2.833  12.588  22.773  0.00  0.00    +0.000 A 
ATOM     12  C   UNL     1      -3.363  12.449  24.067  0.00  0.00    +0.000 A 
ATOM     13  C   UNL     1      -4.717  12.700  24.303  0.00  0.00    +0.000 A 
ATOM     14  C   UNL     1      -5.549  13.075  23.250  0.00  0.00    +0.000 A 
ATOM     15 CL   UNL     1      -7.190  13.488  23.554  0.00  0.00    +0.000 Cl
ATOM     16  C   UNL     1      -5.048  13.151  21.951  0.00  0.00    +0.000 A 
ATOM     17  C   UNL     1      -3.694  12.900  21.710  0.00  0.00    +0.000 A 
ENDBRANCH   8  11
BRANCH   1  18
ATOM     18  C   UNL     1       1.239  10.443  18.417  0.00  0.00    +0.000 C 
BRANCH  18  21
ATOM     19  N   UNL     1       2.433   6.995  18.373  0.00  0.00    +0.000 N 
ATOM     20  C   UNL     1       1.997   8.091  17.663  0.00  0.00    +0.000 A 
ATOM     21  C   UNL     1       1.684   9.044  18.606  0.00  0.00    +0.000 A 
ATOM     22  N   UNL     1       1.870   8.518  19.848  0.00  0.00    +0.000 NA
ATOM     23  N   UNL     1       2.308   7.277  19.712  0.00  0.00    +0.000 NA
BRANCH  19  29
ATOM     24  C   UNL     1       4.297   5.523  17.605  0.00  0.00    +0.000 A 
ATOM     25  C   UNL     1       4.704   4.240  17.214  0.00  0.00    +0.000 A 
ATOM     26  C   UNL     1       3.788   3.187  17.119  0.00  0.00    +0.000 A 
ATOM     27  C   UNL     1       2.453   3.405  17.424  0.00  0.00    +0.000 A 
ATOM     28  C   UNL     1       2.032   4.669  17.832  0.00  0.00    +0.000 A 
ATOM     29  C   UNL     1       2.946   5.741  17.935  0.00  0.00    +0.000 A 
BRANCH  24  31
ATOM     30  C   UNL     1       6.529   6.294  17.289  0.00  0.00    +0.000 C 
ATOM     31  O   UNL     1       5.197   6.546  17.741  0.00  0.00    +0.000 OA
ENDBRANCH  24  31
ENDBRANCH  19  29
ENDBRANCH  18  21
ENDBRANCH   1  18
TORSDOF 5
ENDMDL
