MODEL 1
REMARK VINA RESULT:      -8.0      0.000      0.000
REMARK  Name = 
REMARK  10 active torsions:
REMARK  status: ('A' for Active; 'I' for Inactive)
REMARK    1  A    between atoms: C_1  and  C_2
REMARK    2  A    between atoms: C_2  and  C_3
REMARK    3  A    between atoms: C_3  and  C_4
REMARK    4  A    between atoms: C_4  and  C_5
REMARK    5  A    between atoms: C_5  and  C_6
REMARK    6  A    between atoms: C_6  and  C_7
REMARK    7  A    between atoms: C_7  and  C_8
REMARK    8  A    between atoms: C_8  and  O_9
REMARK    9  A    between atoms: C_8  and  C_10
REMARK   10  A    between atoms: C_8  and  C_18
REMARK                            x       y       z     vdW  Elec       q    Type
REMARK                         _______ _______ _______ _____ _____    ______ ____
ROOT
ATOM      1  C   UNL     1       5.578   4.854  16.614  0.00  0.00    +0.000 C 
ENDROOT
BRANCH   1   2
ATOM      2  C   UNL     1       6.567   5.701  17.436  0.00  0.00    +0.000 A 
ATOM      3  C   UNL     1       6.848   7.048  17.144  0.00  0.00    +0.000 A 
ATOM      4  C   UNL     1       7.786   7.766  17.886  0.00  0.00    +0.000 A 
ATOM      5  F   UNL     1       8.075   9.025  17.541  0.00  0.00    +0.000 F 
ATOM      6  C   UNL     1       8.426   7.201  18.982  0.00  0.00    +0.000 A 
ATOM      7  C   UNL     1       8.125   5.892  19.308  0.00  0.00    +0.000 A 
ATOM      8  F   UNL     1       8.691   5.340  20.390  0.00  0.00    +0.000 F 
ATOM      9  C   UNL     1       7.232   5.135  18.545  0.00  0.00    +0.000 A 
ENDBRANCH   1   2
BRANCH   1  10
ATOM     10  C   UNL     1       4.180   4.726  17.262  0.00  0.00    +0.000 A 
ATOM     11  C   UNL     1       3.328   3.631  17.021  0.00  0.00    +0.000 A 
ATOM     12  C   UNL     1       2.078   3.535  17.650  0.00  0.00    +0.000 A 
ATOM     13  C   UNL     1       1.673   4.503  18.565  0.00  0.00    +0.000 A 
ATOM     14  C   UNL     1       2.514   5.572  18.843  0.00  0.00    +0.000 A 
ATOM     15 CL   UNL     1       2.045   6.748  20.010  0.00  0.00    +0.000 Cl
ATOM     16  C   UNL     1       3.745   5.692  18.194  0.00  0.00    +0.000 A 
ENDBRANCH   1  10
BRANCH   1  17
ATOM     17  O   UNL     1       6.116   3.519  16.537  0.00  0.00    +0.000 OA
ATOM     18  H   UNL     1       5.408   2.904  16.775  0.00  0.00    +0.000 HD
ENDBRANCH   1  17
BRANCH   1  19
ATOM     19  C   UNL     1       5.380   5.325  15.148  0.00  0.00    +0.000 C 
BRANCH  19  20
ATOM     20  C   UNL     1       6.233   4.593  14.100  0.00  0.00    +0.000 C 
BRANCH  20  21
ATOM     21  C   UNL     1       5.415   3.487  13.429  0.00  0.00    +0.000 C 
BRANCH  21  22
ATOM     22  C   UNL     1       5.852   3.292  11.980  0.00  0.00    +0.000 C 
BRANCH  22  23
ATOM     23  C   UNL     1       4.728   2.682  11.148  0.00  0.00    +0.000 C 
BRANCH  23  25
ATOM     24  C   UNL     1       3.127   3.862   9.615  0.00  0.00    +0.000 C 
ATOM     25  C   UNL     1       3.537   3.634  11.059  0.00  0.00    +0.000 C 
ENDBRANCH  23  25
ENDBRANCH  22  23
ENDBRANCH  21  22
ENDBRANCH  20  21
ENDBRANCH  19  20
ENDBRANCH   1  19
TORSDOF 9
ENDMDL
MODEL 2
REMARK VINA RESULT:      -7.8      2.821      5.449
REMARK  Name = 
REMARK  10 active torsions:
REMARK  status: ('A' for Active; 'I' for Inactive)
REMARK    1  A    between atoms: C_1  and  C_2
REMARK    2  A    between atoms: C_2  and  C_3
REMARK    3  A    between atoms: C_3  and  C_4
REMARK    4  A    between atoms: C_4  and  C_5
REMARK    5  A    between atoms: C_5  and  C_6
REMARK    6  A    between atoms: C_6  and  C_7
REMARK    7  A    between atoms: C_7  and  C_8
REMARK    8  A    between atoms: C_8  and  O_9
REMARK    9  A    between atoms: C_8  and  C_10
REMARK   10  A    between atoms: C_8  and  C_18
REMARK                            x       y       z     vdW  Elec       q    Type
REMARK                         _______ _______ _______ _____ _____    ______ ____
ROOT
ATOM      1  C   UNL     1       3.540   5.384  18.232  0.00  0.00    +0.000 C 
ENDROOT
BRANCH   1   2
ATOM      2  C   UNL     1       4.877   5.526  17.482  0.00  0.00    +0.000 A 
ATOM      3  C   UNL     1       5.051   5.129  16.144  0.00  0.00    +0.000 A 
ATOM      4  C   UNL     1       6.293   5.233  15.517  0.00  0.00    +0.000 A 
ATOM      5  F   UNL     1       6.438   4.787  14.264  0.00  0.00    +0.000 F 
ATOM      6  C   UNL     1       7.386   5.794  16.166  0.00  0.00    +0.000 A 
ATOM      7  C   UNL     1       7.216   6.230  17.467  0.00  0.00    +0.000 A 
ATOM      8  F   UNL     1       8.241   6.820  18.099  0.00  0.00    +0.000 F 
ATOM      9  C   UNL     1       5.998   6.084  18.135  0.00  0.00    +0.000 A 
ENDBRANCH   1   2
BRANCH   1  10
ATOM     10  C   UNL     1       2.840   6.732  18.518  0.00  0.00    +0.000 A 
ATOM     11  C   UNL     1       2.664   7.722  17.533  0.00  0.00    +0.000 A 
ATOM     12  C   UNL     1       1.998   8.922  17.823  0.00  0.00    +0.000 A 
ATOM     13  C   UNL     1       1.454   9.138  19.087  0.00  0.00    +0.000 A 
ATOM     14  C   UNL     1       1.587   8.160  20.063  0.00  0.00    +0.000 A 
ATOM     15 CL   UNL     1       0.876   8.396  21.613  0.00  0.00    +0.000 Cl
ATOM     16  C   UNL     1       2.280   6.977  19.790  0.00  0.00    +0.000 A 
ENDBRANCH   1  10
BRANCH   1  17
ATOM     17  O   UNL     1       3.826   4.791  19.514  0.00  0.00    +0.000 OA
ATOM     18  H   UNL     1       4.558   4.172  19.393  0.00  0.00    +0.000 HD
ENDBRANCH   1  17
BRANCH   1  19
ATOM     19  C   UNL     1       2.505   4.450  17.546  0.00  0.00    +0.000 C 
BRANCH  19  20
ATOM     20  C   UNL     1       2.853   2.954  17.569  0.00  0.00    +0.000 C 
BRANCH  20  21
ATOM     21  C   UNL     1       1.792   2.174  18.351  0.00  0.00    +0.000 C 
BRANCH  21  22
ATOM     22  C   UNL     1       0.600   3.067  18.685  0.00  0.00    +0.000 C 
BRANCH  22  23
ATOM     23  C   UNL     1       0.629   3.492  20.149  0.00  0.00    +0.000 C 
BRANCH  23  25
ATOM     24  C   UNL     1       2.288   3.256  22.019  0.00  0.00    +0.000 C 
ATOM     25  C   UNL     1       1.458   2.518  20.984  0.00  0.00    +0.000 C 
ENDBRANCH  23  25
ENDBRANCH  22  23
ENDBRANCH  21  22
ENDBRANCH  20  21
ENDBRANCH  19  20
ENDBRANCH   1  19
TORSDOF 9
ENDMDL
MODEL 3
REMARK VINA RESULT:      -7.7      2.797      4.673
REMARK  Name = 
REMARK  10 active torsions:
REMARK  status: ('A' for Active; 'I' for Inactive)
REMARK    1  A    between atoms: C_1  and  C_2
REMARK    2  A    between atoms: C_2  and  C_3
REMARK    3  A    between atoms: C_3  and  C_4
REMARK    4  A    between atoms: C_4  and  C_5
REMARK    5  A    between atoms: C_5  and  C_6
REMARK    6  A    between atoms: C_6  and  C_7
REMARK    7  A    between atoms: C_7  and  C_8
REMARK    8  A    between atoms: C_8  and  O_9
REMARK    9  A    between atoms: C_8  and  C_10
REMARK   10  A    between atoms: C_8  and  C_18
REMARK                            x       y       z     vdW  Elec       q    Type
REMARK                         _______ _______ _______ _____ _____    ______ ____
ROOT
ATOM      1  C   UNL     1       5.648   5.512  16.343  0.00  0.00    +0.000 C 
ENDROOT
BRANCH   1   2
ATOM      2  C   UNL     1       4.459   4.804  17.017  0.00  0.00    +0.000 A 
ATOM      3  C   UNL     1       3.333   5.493  17.503  0.00  0.00    +0.000 A 
ATOM      4  C   UNL     1       2.297   4.817  18.148  0.00  0.00    +0.000 A 
ATOM      5  F   UNL     1       1.272   5.511  18.655  0.00  0.00    +0.000 F 
ATOM      6  C   UNL     1       2.306   3.433  18.275  0.00  0.00    +0.000 A 
ATOM      7  C   UNL     1       3.386   2.740  17.761  0.00  0.00    +0.000 A 
ATOM      8  F   UNL     1       3.394   1.401  17.826  0.00  0.00    +0.000 F 
ATOM      9  C   UNL     1       4.461   3.400  17.161  0.00  0.00    +0.000 A 
ENDBRANCH   1   2
BRANCH   1  10
ATOM     10  C   UNL     1       6.659   6.120  17.342  0.00  0.00    +0.000 A 
ATOM     11  C   UNL     1       7.273   5.363  18.357  0.00  0.00    +0.000 A 
ATOM     12  C   UNL     1       8.208   5.942  19.228  0.00  0.00    +0.000 A 
ATOM     13  C   UNL     1       8.582   7.275  19.074  0.00  0.00    +0.000 A 
ATOM     14  C   UNL     1       8.014   8.030  18.057  0.00  0.00    +0.000 A 
ATOM     15 CL   UNL     1       8.506   9.663  17.827  0.00  0.00    +0.000 Cl
ATOM     16  C   UNL     1       7.056   7.468  17.209  0.00  0.00    +0.000 A 
ENDBRANCH   1  10
BRANCH   1  17
ATOM     17  O   UNL     1       5.117   6.613  15.579  0.00  0.00    +0.000 OA
ATOM     18  H   UNL     1       4.155   6.595  15.671  0.00  0.00    +0.000 HD
ENDBRANCH   1  17
BRANCH   1  19
ATOM     19  C   UNL     1       6.444   4.635  15.338  0.00  0.00    +0.000 C 
BRANCH  19  20
ATOM     20  C   UNL     1       5.595   3.896  14.293  0.00  0.00    +0.000 C 
BRANCH  20  21
ATOM     21  C   UNL     1       6.405   3.672  13.014  0.00  0.00    +0.000 C 
BRANCH  21  22
ATOM     22  C   UNL     1       5.560   2.974  11.951  0.00  0.00    +0.000 C 
BRANCH  22  23
ATOM     23  C   UNL     1       4.445   3.889  11.454  0.00  0.00    +0.000 C 
BRANCH  23  25
ATOM     24  C   UNL     1       2.787   4.042   9.575  0.00  0.00    +0.000 C 
ATOM     25  C   UNL     1       3.459   3.121  10.577  0.00  0.00    +0.000 C 
ENDBRANCH  23  25
ENDBRANCH  22  23
ENDBRANCH  21  22
ENDBRANCH  20  21
ENDBRANCH  19  20
ENDBRANCH   1  19
TORSDOF 9
ENDMDL
MODEL 4
REMARK VINA RESULT:      -7.7      3.102      5.491
REMARK  Name = 
REMARK  10 active torsions:
REMARK  status: ('A' for Active; 'I' for Inactive)
REMARK    1  A    between atoms: C_1  and  C_2
REMARK    2  A    between atoms: C_2  and  C_3
REMARK    3  A    between atoms: C_3  and  C_4
REMARK    4  A    between atoms: C_4  and  C_5
REMARK    5  A    between atoms: C_5  and  C_6
REMARK    6  A    between atoms: C_6  and  C_7
REMARK    7  A    between atoms: C_7  and  C_8
REMARK    8  A    between atoms: C_8  and  O_9
REMARK    9  A    between atoms: C_8  and  C_10
REMARK   10  A    between atoms: C_8  and  C_18
REMARK                            x       y       z     vdW  Elec       q    Type
REMARK                         _______ _______ _______ _____ _____    ______ ____
ROOT
ATOM      1  C   UNL     1       2.958   5.892  19.033  0.00  0.00    +0.000 C 
ENDROOT
BRANCH   1   2
ATOM      2  C   UNL     1       4.259   5.688  18.236  0.00  0.00    +0.000 A 
ATOM      3  C   UNL     1       5.532   5.970  18.763  0.00  0.00    +0.000 A 
ATOM      4  C   UNL     1       6.683   5.814  17.990  0.00  0.00    +0.000 A 
ATOM      5  F   UNL     1       7.872   6.152  18.502  0.00  0.00    +0.000 F 
ATOM      6  C   UNL     1       6.622   5.312  16.696  0.00  0.00    +0.000 A 
ATOM      7  C   UNL     1       5.380   4.988  16.182  0.00  0.00    +0.000 A 
ATOM      8  F   UNL     1       5.299   4.455  14.954  0.00  0.00    +0.000 F 
ATOM      9  C   UNL     1       4.209   5.189  16.917  0.00  0.00    +0.000 A 
ENDBRANCH   1   2
BRANCH   1  10
ATOM     10  C   UNL     1       2.419   7.341  18.986  0.00  0.00    +0.000 A 
ATOM     11  C   UNL     1       2.505   8.147  17.835  0.00  0.00    +0.000 A 
ATOM     12  C   UNL     1       1.978   9.446  17.820  0.00  0.00    +0.000 A 
ATOM     13  C   UNL     1       1.315   9.951  18.936  0.00  0.00    +0.000 A 
ATOM     14  C   UNL     1       1.188   9.159  20.070  0.00  0.00    +0.000 A 
ATOM     15 CL   UNL     1       0.328   9.753  21.436  0.00  0.00    +0.000 Cl
ATOM     16  C   UNL     1       1.742   7.876  20.102  0.00  0.00    +0.000 A 
ENDBRANCH   1  10
BRANCH   1  17
ATOM     17  O   UNL     1       3.252   5.611  20.416  0.00  0.00    +0.000 OA
ATOM     18  H   UNL     1       3.122   6.430  20.914  0.00  0.00    +0.000 HD
ENDBRANCH   1  17
BRANCH   1  19
ATOM     19  C   UNL     1       1.796   4.941  18.637  0.00  0.00    +0.000 C 
BRANCH  19  20
ATOM     20  C   UNL     1       1.154   4.167  19.798  0.00  0.00    +0.000 C 
BRANCH  20  21
ATOM     21  C   UNL     1       0.638   2.810  19.311  0.00  0.00    +0.000 C 
BRANCH  21  22
ATOM     22  C   UNL     1       1.762   1.777  19.294  0.00  0.00    +0.000 C 
BRANCH  22  23
ATOM     23  C   UNL     1       2.604   1.907  18.029  0.00  0.00    +0.000 C 
BRANCH  23  25
ATOM     24  C   UNL     1       4.366   2.284  19.778  0.00  0.00    +0.000 C 
ATOM     25  C   UNL     1       4.094   1.829  18.356  0.00  0.00    +0.000 C 
ENDBRANCH  23  25
ENDBRANCH  22  23
ENDBRANCH  21  22
ENDBRANCH  20  21
ENDBRANCH  19  20
ENDBRANCH   1  19
TORSDOF 9
ENDMDL
MODEL 5
REMARK VINA RESULT:      -7.6      3.684      6.646
REMARK  Name = 
REMARK  10 active torsions:
REMARK  status: ('A' for Active; 'I' for Inactive)
REMARK    1  A    between atoms: C_1  and  C_2
REMARK    2  A    between atoms: C_2  and  C_3
REMARK    3  A    between atoms: C_3  and  C_4
REMARK    4  A    between atoms: C_4  and  C_5
REMARK    5  A    between atoms: C_5  and  C_6
REMARK    6  A    between atoms: C_6  and  C_7
REMARK    7  A    between atoms: C_7  and  C_8
REMARK    8  A    between atoms: C_8  and  O_9
REMARK    9  A    between atoms: C_8  and  C_10
REMARK   10  A    between atoms: C_8  and  C_18
REMARK                            x       y       z     vdW  Elec       q    Type
REMARK                         _______ _______ _______ _____ _____    ______ ____
ROOT
ATOM      1  C   UNL     1       3.794   5.087  18.400  0.00  0.00    +0.000 C 
ENDROOT
BRANCH   1   2
ATOM      2  C   UNL     1       3.020   6.371  18.752  0.00  0.00    +0.000 A 
ATOM      3  C   UNL     1       2.443   6.596  20.015  0.00  0.00    +0.000 A 
ATOM      4  C   UNL     1       1.710   7.754  20.277  0.00  0.00    +0.000 A 
ATOM      5  F   UNL     1       1.122   7.906  21.468  0.00  0.00    +0.000 F 
ATOM      6  C   UNL     1       1.581   8.758  19.325  0.00  0.00    +0.000 A 
ATOM      7  C   UNL     1       2.182   8.569  18.094  0.00  0.00    +0.000 A 
ATOM      8  F   UNL     1       2.114   9.544  17.177  0.00  0.00    +0.000 F 
ATOM      9  C   UNL     1       2.872   7.393  17.790  0.00  0.00    +0.000 A 
ENDBRANCH   1   2
BRANCH   1  10
ATOM     10  C   UNL     1       4.971   5.316  17.425  0.00  0.00    +0.000 A 
ATOM     11  C   UNL     1       6.108   6.070  17.770  0.00  0.00    +0.000 A 
ATOM     12  C   UNL     1       7.170   6.233  16.868  0.00  0.00    +0.000 A 
ATOM     13  C   UNL     1       7.139   5.609  15.624  0.00  0.00    +0.000 A 
ATOM     14  C   UNL     1       6.042   4.832  15.277  0.00  0.00    +0.000 A 
ATOM     15 CL   UNL     1       6.015   4.016  13.762  0.00  0.00    +0.000 Cl
ATOM     16  C   UNL     1       4.965   4.695  16.157  0.00  0.00    +0.000 A 
ENDBRANCH   1  10
BRANCH   1  17
ATOM     17  O   UNL     1       2.875   4.201  17.730  0.00  0.00    +0.000 OA
ATOM     18  H   UNL     1       2.686   4.579  16.861  0.00  0.00    +0.000 HD
ENDBRANCH   1  17
BRANCH   1  19
ATOM     19  C   UNL     1       4.338   4.300  19.623  0.00  0.00    +0.000 C 
BRANCH  19  20
ATOM     20  C   UNL     1       4.298   2.770  19.493  0.00  0.00    +0.000 C 
BRANCH  20  21
ATOM     21  C   UNL     1       3.658   2.148  20.737  0.00  0.00    +0.000 C 
BRANCH  21  22
ATOM     22  C   UNL     1       2.742   3.149  21.435  0.00  0.00    +0.000 C 
BRANCH  22  23
ATOM     23  C   UNL     1       1.283   2.714  21.336  0.00  0.00    +0.000 C 
BRANCH  23  25
ATOM     24  C   UNL     1       0.547   2.413  18.954  0.00  0.00    +0.000 C 
ATOM     25  C   UNL     1       0.599   3.366  20.135  0.00  0.00    +0.000 C 
ENDBRANCH  23  25
ENDBRANCH  22  23
ENDBRANCH  21  22
ENDBRANCH  20  21
ENDBRANCH  19  20
ENDBRANCH   1  19
TORSDOF 9
ENDMDL
MODEL 6
REMARK VINA RESULT:      -7.6      3.302      5.365
REMARK  Name = 
REMARK  10 active torsions:
REMARK  status: ('A' for Active; 'I' for Inactive)
REMARK    1  A    between atoms: C_1  and  C_2
REMARK    2  A    between atoms: C_2  and  C_3
REMARK    3  A    between atoms: C_3  and  C_4
REMARK    4  A    between atoms: C_4  and  C_5
REMARK    5  A    between atoms: C_5  and  C_6
REMARK    6  A    between atoms: C_6  and  C_7
REMARK    7  A    between atoms: C_7  and  C_8
REMARK    8  A    between atoms: C_8  and  O_9
REMARK    9  A    between atoms: C_8  and  C_10
REMARK   10  A    between atoms: C_8  and  C_18
REMARK                            x       y       z     vdW  Elec       q    Type
REMARK                         _______ _______ _______ _____ _____    ______ ____
ROOT
ATOM      1  C   UNL     1       2.971   5.956  19.131  0.00  0.00    +0.000 C 
ENDROOT
BRANCH   1   2
ATOM      2  C   UNL     1       4.276   5.825  18.325  0.00  0.00    +0.000 A 
ATOM      3  C   UNL     1       4.331   5.971  16.927  0.00  0.00    +0.000 A 
ATOM      4  C   UNL     1       5.527   5.799  16.230  0.00  0.00    +0.000 A 
ATOM      5  F   UNL     1       5.530   5.882  14.895  0.00  0.00    +0.000 F 
ATOM      6  C   UNL     1       6.720   5.545  16.895  0.00  0.00    +0.000 A 
ATOM      7  C   UNL     1       6.688   5.444  18.273  0.00  0.00    +0.000 A 
ATOM      8  F   UNL     1       7.834   5.249  18.942  0.00  0.00    +0.000 F 
ATOM      9  C   UNL     1       5.493   5.556  18.988  0.00  0.00    +0.000 A 
ENDBRANCH   1   2
BRANCH   1  10
ATOM     10  C   UNL     1       2.340   7.366  19.071  0.00  0.00    +0.000 A 
ATOM     11  C   UNL     1       2.281   8.123  17.885  0.00  0.00    +0.000 A 
ATOM     12  C   UNL     1       1.675   9.387  17.862  0.00  0.00    +0.000 A 
ATOM     13  C   UNL     1       1.075   9.902  19.008  0.00  0.00    +0.000 A 
ATOM     14  C   UNL     1       1.091   9.156  20.180  0.00  0.00    +0.000 A 
ATOM     15 CL   UNL     1       0.310   9.761  21.589  0.00  0.00    +0.000 Cl
ATOM     16  C   UNL     1       1.725   7.911  20.218  0.00  0.00    +0.000 A 
ENDBRANCH   1  10
BRANCH   1  17
ATOM     17  O   UNL     1       3.293   5.712  20.515  0.00  0.00    +0.000 OA
ATOM     18  H   UNL     1       3.248   4.757  20.661  0.00  0.00    +0.000 HD
ENDBRANCH   1  17
BRANCH   1  19
ATOM     19  C   UNL     1       1.869   4.928  18.757  0.00  0.00    +0.000 C 
BRANCH  19  20
ATOM     20  C   UNL     1       1.156   4.264  19.945  0.00  0.00    +0.000 C 
BRANCH  20  21
ATOM     21  C   UNL     1       1.525   2.780  20.023  0.00  0.00    +0.000 C 
BRANCH  21  22
ATOM     22  C   UNL     1       2.806   2.580  20.828  0.00  0.00    +0.000 C 
BRANCH  22  23
ATOM     23  C   UNL     1       3.976   2.229  19.915  0.00  0.00    +0.000 C 
BRANCH  23  25
ATOM     24  C   UNL     1       3.924   2.354  17.407  0.00  0.00    +0.000 C 
ATOM     25  C   UNL     1       3.484   1.567  18.629  0.00  0.00    +0.000 C 
ENDBRANCH  23  25
ENDBRANCH  22  23
ENDBRANCH  21  22
ENDBRANCH  20  21
ENDBRANCH  19  20
ENDBRANCH   1  19
TORSDOF 9
ENDMDL
MODEL 7
REMARK VINA RESULT:      -7.6      4.072      6.134
REMARK  Name = 
REMARK  10 active torsions:
REMARK  status: ('A' for Active; 'I' for Inactive)
REMARK    1  A    between atoms: C_1  and  C_2
REMARK    2  A    between atoms: C_2  and  C_3
REMARK    3  A    between atoms: C_3  and  C_4
REMARK    4  A    between atoms: C_4  and  C_5
REMARK    5  A    between atoms: C_5  and  C_6
REMARK    6  A    between atoms: C_6  and  C_7
REMARK    7  A    between atoms: C_7  and  C_8
REMARK    8  A    between atoms: C_8  and  O_9
REMARK    9  A    between atoms: C_8  and  C_10
REMARK   10  A    between atoms: C_8  and  C_18
REMARK                            x       y       z     vdW  Elec       q    Type
REMARK                         _______ _______ _______ _____ _____    ______ ____
ROOT
ATOM      1  C   UNL     1       3.276   5.881  18.858  0.00  0.00    +0.000 C 
ENDROOT
BRANCH   1   2
ATOM      2  C   UNL     1       2.535   7.214  19.070  0.00  0.00    +0.000 A 
ATOM      3  C   UNL     1       1.881   7.545  20.271  0.00  0.00    +0.000 A 
ATOM      4  C   UNL     1       1.183   8.745  20.405  0.00  0.00    +0.000 A 
ATOM      5  F   UNL     1       0.520   8.998  21.539  0.00  0.00    +0.000 F 
ATOM      6  C   UNL     1       1.162   9.687  19.385  0.00  0.00    +0.000 A 
ATOM      7  C   UNL     1       1.839   9.394  18.215  0.00  0.00    +0.000 A 
ATOM      8  F   UNL     1       1.876  10.307  17.234  0.00  0.00    +0.000 F 
ATOM      9  C   UNL     1       2.498   8.175  18.037  0.00  0.00    +0.000 A 
ENDBRANCH   1   2
BRANCH   1  10
ATOM     10  C   UNL     1       2.386   4.634  19.068  0.00  0.00    +0.000 A 
ATOM     11  C   UNL     1       1.754   3.963  18.004  0.00  0.00    +0.000 A 
ATOM     12  C   UNL     1       0.978   2.817  18.229  0.00  0.00    +0.000 A 
ATOM     13  C   UNL     1       0.855   2.291  19.513  0.00  0.00    +0.000 A 
ATOM     14  C   UNL     1       1.499   2.918  20.571  0.00  0.00    +0.000 A 
ATOM     15 CL   UNL     1       1.395   2.248  22.154  0.00  0.00    +0.000 Cl
ATOM     16  C   UNL     1       2.245   4.080  20.358  0.00  0.00    +0.000 A 
ENDBRANCH   1  10
BRANCH   1  17
ATOM     17  O   UNL     1       4.321   5.808  19.847  0.00  0.00    +0.000 OA
ATOM     18  H   UNL     1       4.321   6.643  20.335  0.00  0.00    +0.000 HD
ENDBRANCH   1  17
BRANCH   1  19
ATOM     19  C   UNL     1       3.975   5.738  17.479  0.00  0.00    +0.000 C 
BRANCH  19  20
ATOM     20  C   UNL     1       5.291   4.945  17.487  0.00  0.00    +0.000 C 
BRANCH  20  21
ATOM     21  C   UNL     1       6.389   5.731  16.766  0.00  0.00    +0.000 C 
BRANCH  21  22
ATOM     22  C   UNL     1       6.409   7.185  17.229  0.00  0.00    +0.000 C 
BRANCH  22  23
ATOM     23  C   UNL     1       7.758   7.543  17.843  0.00  0.00    +0.000 C 
BRANCH  23  25
ATOM     24  C   UNL     1       8.910   9.524  18.870  0.00  0.00    +0.000 C 
ATOM     25  C   UNL     1       8.028   9.042  17.732  0.00  0.00    +0.000 C 
ENDBRANCH  23  25
ENDBRANCH  22  23
ENDBRANCH  21  22
ENDBRANCH  20  21
ENDBRANCH  19  20
ENDBRANCH   1  19
TORSDOF 9
ENDMDL
MODEL 8
REMARK VINA RESULT:      -7.6      2.922      4.974
REMARK  Name = 
REMARK  10 active torsions:
REMARK  status: ('A' for Active; 'I' for Inactive)
REMARK    1  A    between atoms: C_1  and  C_2
REMARK    2  A    between atoms: C_2  and  C_3
REMARK    3  A    between atoms: C_3  and  C_4
REMARK    4  A    between atoms: C_4  and  C_5
REMARK    5  A    between atoms: C_5  and  C_6
REMARK    6  A    between atoms: C_6  and  C_7
REMARK    7  A    between atoms: C_7  and  C_8
REMARK    8  A    between atoms: C_8  and  O_9
REMARK    9  A    between atoms: C_8  and  C_10
REMARK   10  A    between atoms: C_8  and  C_18
REMARK                            x       y       z     vdW  Elec       q    Type
REMARK                         _______ _______ _______ _____ _____    ______ ____
ROOT
ATOM      1  C   UNL     1       4.594   5.321  17.099  0.00  0.00    +0.000 C 
ENDROOT
BRANCH   1   2
ATOM      2  C   UNL     1       3.427   4.997  18.049  0.00  0.00    +0.000 A 
ATOM      3  C   UNL     1       3.085   5.807  19.146  0.00  0.00    +0.000 A 
ATOM      4  C   UNL     1       2.047   5.452  20.009  0.00  0.00    +0.000 A 
ATOM      5  F   UNL     1       1.791   6.213  21.079  0.00  0.00    +0.000 F 
ATOM      6  C   UNL     1       1.271   4.323  19.779  0.00  0.00    +0.000 A 
ATOM      7  C   UNL     1       1.568   3.542  18.678  0.00  0.00    +0.000 A 
ATOM      8  F   UNL     1       0.802   2.476  18.406  0.00  0.00    +0.000 F 
ATOM      9  C   UNL     1       2.637   3.847  17.832  0.00  0.00    +0.000 A 
ENDBRANCH   1   2
BRANCH   1  10
ATOM     10  C   UNL     1       5.872   5.802  17.824  0.00  0.00    +0.000 A 
ATOM     11  C   UNL     1       6.560   5.007  18.760  0.00  0.00    +0.000 A 
ATOM     12  C   UNL     1       7.733   5.466  19.377  0.00  0.00    +0.000 A 
ATOM     13  C   UNL     1       8.268   6.706  19.038  0.00  0.00    +0.000 A 
ATOM     14  C   UNL     1       7.624   7.491  18.091  0.00  0.00    +0.000 A 
ATOM     15 CL   UNL     1       8.304   9.003  17.628  0.00  0.00    +0.000 Cl
ATOM     16  C   UNL     1       6.436   7.054  17.499  0.00  0.00    +0.000 A 
ENDBRANCH   1  10
BRANCH   1  17
ATOM     17  O   UNL     1       4.171   6.409  16.252  0.00  0.00    +0.000 OA
ATOM     18  H   UNL     1       3.584   6.973  16.774  0.00  0.00    +0.000 HD
ENDBRANCH   1  17
BRANCH   1  19
ATOM     19  C   UNL     1       4.998   4.164  16.145  0.00  0.00    +0.000 C 
BRANCH  19  20
ATOM     20  C   UNL     1       6.474   4.146  15.719  0.00  0.00    +0.000 C 
BRANCH  20  21
ATOM     21  C   UNL     1       6.618   4.665  14.285  0.00  0.00    +0.000 C 
BRANCH  21  22
ATOM     22  C   UNL     1       5.639   3.958  13.351  0.00  0.00    +0.000 C 
BRANCH  22  23
ATOM     23  C   UNL     1       6.368   3.347  12.158  0.00  0.00    +0.000 C 
BRANCH  23  25
ATOM     24  C   UNL     1       6.576   1.156  10.950  0.00  0.00    +0.000 C 
ATOM     25  C   UNL     1       5.624   2.121  11.634  0.00  0.00    +0.000 C 
ENDBRANCH  23  25
ENDBRANCH  22  23
ENDBRANCH  21  22
ENDBRANCH  20  21
ENDBRANCH  19  20
ENDBRANCH   1  19
TORSDOF 9
ENDMDL
MODEL 9
REMARK VINA RESULT:      -7.6      2.797      6.194
REMARK  Name = 
REMARK  10 active torsions:
REMARK  status: ('A' for Active; 'I' for Inactive)
REMARK    1  A    between atoms: C_1  and  C_2
REMARK    2  A    between atoms: C_2  and  C_3
REMARK    3  A    between atoms: C_3  and  C_4
REMARK    4  A    between atoms: C_4  and  C_5
REMARK    5  A    between atoms: C_5  and  C_6
REMARK    6  A    between atoms: C_6  and  C_7
REMARK    7  A    between atoms: C_7  and  C_8
REMARK    8  A    between atoms: C_8  and  O_9
REMARK    9  A    between atoms: C_8  and  C_10
REMARK   10  A    between atoms: C_8  and  C_18
REMARK                            x       y       z     vdW  Elec       q    Type
REMARK                         _______ _______ _______ _____ _____    ______ ____
ROOT
ATOM      1  C   UNL     1       5.581   4.597  16.339  0.00  0.00    +0.000 C 
ENDROOT
BRANCH   1   2
ATOM      2  C   UNL     1       6.119   4.485  14.900  0.00  0.00    +0.000 A 
ATOM      3  C   UNL     1       7.263   5.170  14.454  0.00  0.00    +0.000 A 
ATOM      4  C   UNL     1       7.690   5.075  13.129  0.00  0.00    +0.000 A 
ATOM      5  F   UNL     1       8.745   5.791  12.724  0.00  0.00    +0.000 F 
ATOM      6  C   UNL     1       7.042   4.249  12.219  0.00  0.00    +0.000 A 
ATOM      7  C   UNL     1       5.942   3.535  12.656  0.00  0.00    +0.000 A 
ATOM      8  F   UNL     1       5.330   2.694  11.811  0.00  0.00    +0.000 F 
ATOM      9  C   UNL     1       5.463   3.657  13.963  0.00  0.00    +0.000 A 
ENDBRANCH   1   2
BRANCH   1  10
ATOM     10  C   UNL     1       6.516   5.376  17.293  0.00  0.00    +0.000 A 
ATOM     11  C   UNL     1       7.236   4.751  18.329  0.00  0.00    +0.000 A 
ATOM     12  C   UNL     1       8.098   5.485  19.157  0.00  0.00    +0.000 A 
ATOM     13  C   UNL     1       8.293   6.847  18.940  0.00  0.00    +0.000 A 
ATOM     14  C   UNL     1       7.619   7.475  17.901  0.00  0.00    +0.000 A 
ATOM     15 CL   UNL     1       7.890   9.147  17.592  0.00  0.00    +0.000 Cl
ATOM     16  C   UNL     1       6.732   6.756  17.095  0.00  0.00    +0.000 A 
ENDBRANCH   1  10
BRANCH   1  17
ATOM     17  O   UNL     1       5.481   3.260  16.866  0.00  0.00    +0.000 OA
ATOM     18  H   UNL     1       5.675   2.646  16.145  0.00  0.00    +0.000 HD
ENDBRANCH   1  17
BRANCH   1  19
ATOM     19  C   UNL     1       4.162   5.216  16.456  0.00  0.00    +0.000 C 
BRANCH  19  20
ATOM     20  C   UNL     1       3.855   5.912  17.791  0.00  0.00    +0.000 C 
BRANCH  20  21
ATOM     21  C   UNL     1       2.993   5.008  18.675  0.00  0.00    +0.000 C 
BRANCH  21  22
ATOM     22  C   UNL     1       1.997   4.215  17.833  0.00  0.00    +0.000 C 
BRANCH  22  23
ATOM     23  C   UNL     1       1.265   3.182  18.684  0.00  0.00    +0.000 C 
BRANCH  23  25
ATOM     24  C   UNL     1       1.361   2.830  21.168  0.00  0.00    +0.000 C 
ATOM     25  C   UNL     1       0.909   3.756  20.053  0.00  0.00    +0.000 C 
ENDBRANCH  23  25
ENDBRANCH  22  23
ENDBRANCH  21  22
ENDBRANCH  20  21
ENDBRANCH  19  20
ENDBRANCH   1  19
TORSDOF 9
ENDMDL
