MODEL 1
REMARK VINA RESULT:      -7.3      0.000      0.000
REMARK  Name = 
REMARK  18 active torsions:
REMARK  status: ('A' for Active; 'I' for Inactive)
REMARK    1  A    between atoms: C_1  and  C_2
REMARK    2  A    between atoms: C_2  and  O_4
REMARK    3  A    between atoms: O_4  and  C_5
REMARK    4  A    between atoms: C_8  and  C_9
REMARK    5  A    between atoms: C_10  and  C_11
REMARK    6  A    between atoms: C_11  and  O_13
REMARK    7  A    between atoms: O_13  and  C_14
REMARK    8  A    between atoms: C_14  and  C_15
REMARK    9  A    between atoms: C_15  and  C_16
REMARK   10  A    between atoms: C_16  and  C_17
REMARK   11  A    between atoms: C_17  and  C_18
REMARK   12  A    between atoms: N_22  and  C_23
REMARK   13  A    between atoms: C_23  and  C_24
REMARK   14  A    between atoms: C_24  and  C_25
REMARK   15  A    between atoms: C_25  and  O_26
REMARK   16  A    between atoms: C_28  and  O_29
REMARK   17  A    between atoms: O_29  and  C_30
REMARK   18  A    between atoms: C_30  and  C_31
REMARK                            x       y       z     vdW  Elec       q    Type
REMARK                         _______ _______ _______ _____ _____    ______ ____
ROOT
ATOM      1  C   UNL     1       2.281   3.571  21.143  0.00  0.00    +0.000 C 
ATOM      2  O   UNL     1       2.277   2.900  22.161  0.00  0.00    +0.000 OA
ENDROOT
BRANCH   1   4
ATOM      3  C   UNL     1       2.356   5.871  20.324  0.00  0.00    +0.000 C 
ATOM      4  C   UNL     1       1.689   4.918  20.993  0.00  0.00    +0.000 C 
BRANCH   3   8
ATOM      5  C   UNL     1       0.998   9.842  19.384  0.00  0.00    +0.000 A 
ATOM      6  C   UNL     1       1.842   9.128  18.521  0.00  0.00    +0.000 A 
ATOM      7  C   UNL     1       2.262   7.835  18.839  0.00  0.00    +0.000 A 
ATOM      8  C   UNL     1       1.827   7.208  20.010  0.00  0.00    +0.000 A 
ATOM      9  C   UNL     1       0.948   7.906  20.846  0.00  0.00    +0.000 A 
ATOM     10  C   UNL     1       0.529   9.214  20.534  0.00  0.00    +0.000 A 
BRANCH  10  11
ATOM     11  O   UNL     1      -0.392   9.722  21.495  0.00  0.00    +0.000 OA
BRANCH  11  12
ATOM     12  C   UNL     1      -0.278  10.191  22.807  0.00  0.00    +0.000 C 
ATOM     13  C   UNL     1      -1.032  11.491  22.917  0.00  0.00    +0.000 C 
ATOM     14  O   UNL     1       0.324   9.662  23.726  0.00  0.00    +0.000 OA
ENDBRANCH  11  12
ENDBRANCH  10  11
BRANCH   5  15
ATOM     15  O   UNL     1       0.554  11.108  18.984  0.00  0.00    +0.000 OA
BRANCH  15  17
ATOM     16  C   UNL     1       1.598  12.666  20.426  0.00  0.00    +0.000 C 
ATOM     17  C   UNL     1       1.478  12.152  19.018  0.00  0.00    +0.000 C 
ATOM     18  O   UNL     1       2.041  12.670  18.060  0.00  0.00    +0.000 OA
ENDBRANCH  15  17
ENDBRANCH   5  15
ENDBRANCH   3   8
ENDBRANCH   1   4
BRANCH   1  19
ATOM     19  O   UNL     1       2.949   3.295  19.993  0.00  0.00    +0.000 OA
BRANCH  19  20
ATOM     20  C   UNL     1       2.311   2.333  19.142  0.00  0.00    +0.000 C 
BRANCH  20  21
ATOM     21  C   UNL     1       2.380   2.685  17.662  0.00  0.00    +0.000 C 
BRANCH  21  22
ATOM     22  C   UNL     1       3.037   4.040  17.377  0.00  0.00    +0.000 C 
BRANCH  22  23
ATOM     23  C   UNL     1       4.359   3.852  16.622  0.00  0.00    +0.000 C 
BRANCH  23  24
ATOM     24  C   UNL     1       5.247   5.043  16.712  0.00  0.00    +0.000 A 
ATOM     25  C   UNL     1       5.162   6.166  17.511  0.00  0.00    +0.000 A 
ATOM     26  N   UNL     1       6.228   6.983  17.281  0.00  0.00    +0.000 NA
ATOM     27  N   UNL     1       6.991   6.410  16.365  0.00  0.00    +0.000 NA
ATOM     28  N   UNL     1       6.408   5.249  16.011  0.00  0.00    +0.000 N 
BRANCH  28  29
ATOM     29  C   UNL     1       7.083   4.403  15.051  0.00  0.00    +0.000 C 
BRANCH  29  30
ATOM     30  C   UNL     1       6.725   4.694  13.599  0.00  0.00    +0.000 C 
BRANCH  30  31
ATOM     31  C   UNL     1       5.984   3.558  12.901  0.00  0.00    +0.000 C 
BRANCH  31  32
ATOM     32  O   UNL     1       6.883   2.892  12.020  0.00  0.00    +0.000 OA
ATOM     33  H   UNL     1       7.634   2.568  12.546  0.00  0.00    +0.000 HD
ENDBRANCH  31  32
ENDBRANCH  30  31
ENDBRANCH  29  30
ENDBRANCH  28  29
ENDBRANCH  23  24
ENDBRANCH  22  23
ENDBRANCH  21  22
ENDBRANCH  20  21
ENDBRANCH  19  20
ENDBRANCH   1  19
TORSDOF 16
ENDMDL
MODEL 2
REMARK VINA RESULT:      -6.9      5.801      8.030
REMARK  Name = 
REMARK  18 active torsions:
REMARK  status: ('A' for Active; 'I' for Inactive)
REMARK    1  A    between atoms: C_1  and  C_2
REMARK    2  A    between atoms: C_2  and  O_4
REMARK    3  A    between atoms: O_4  and  C_5
REMARK    4  A    between atoms: C_8  and  C_9
REMARK    5  A    between atoms: C_10  and  C_11
REMARK    6  A    between atoms: C_11  and  O_13
REMARK    7  A    between atoms: O_13  and  C_14
REMARK    8  A    between atoms: C_14  and  C_15
REMARK    9  A    between atoms: C_15  and  C_16
REMARK   10  A    between atoms: C_16  and  C_17
REMARK   11  A    between atoms: C_17  and  C_18
REMARK   12  A    between atoms: N_22  and  C_23
REMARK   13  A    between atoms: C_23  and  C_24
REMARK   14  A    between atoms: C_24  and  C_25
REMARK   15  A    between atoms: C_25  and  O_26
REMARK   16  A    between atoms: C_28  and  O_29
REMARK   17  A    between atoms: O_29  and  C_30
REMARK   18  A    between atoms: C_30  and  C_31
REMARK                            x       y       z     vdW  Elec       q    Type
REMARK                         _______ _______ _______ _____ _____    ______ ____
ROOT
ATOM      1  C   UNL     1       7.884   7.535  17.891  0.00  0.00    +0.000 C 
ATOM      2  O   UNL     1       8.182   6.769  18.791  0.00  0.00    +0.000 OA
ENDROOT
BRANCH   1   4
ATOM      3  C   UNL     1       9.045   9.630  18.372  0.00  0.00    +0.000 C 
ATOM      4  C   UNL     1       7.927   9.012  17.961  0.00  0.00    +0.000 C 
BRANCH   3   8
ATOM      5  C   UNL     1       9.690  13.876  18.577  0.00  0.00    +0.000 A 
ATOM      6  C   UNL     1      10.678  12.961  18.969  0.00  0.00    +0.000 A 
ATOM      7  C   UNL     1      10.454  11.586  18.884  0.00  0.00    +0.000 A 
ATOM      8  C   UNL     1       9.251  11.087  18.376  0.00  0.00    +0.000 A 
ATOM      9  C   UNL     1       8.285  12.003  17.942  0.00  0.00    +0.000 A 
ATOM     10  C   UNL     1       8.504  13.391  18.035  0.00  0.00    +0.000 A 
BRANCH  10  11
ATOM     11  O   UNL     1       7.414  14.139  17.503  0.00  0.00    +0.000 OA
BRANCH  11  12
ATOM     12  C   UNL     1       6.274  14.733  18.053  0.00  0.00    +0.000 C 
ATOM     13  C   UNL     1       6.563  15.083  19.490  0.00  0.00    +0.000 C 
ATOM     14  O   UNL     1       5.212  14.943  17.492  0.00  0.00    +0.000 OA
ENDBRANCH  11  12
ENDBRANCH  10  11
BRANCH   5  15
ATOM     15  O   UNL     1       9.993  15.243  18.620  0.00  0.00    +0.000 OA
BRANCH  15  17
ATOM     16  C   UNL     1      11.716  16.836  18.320  0.00  0.00    +0.000 C 
ATOM     17  C   UNL     1      10.919  15.724  17.695  0.00  0.00    +0.000 C 
ATOM     18  O   UNL     1      11.023  15.397  16.518  0.00  0.00    +0.000 OA
ENDBRANCH  15  17
ENDBRANCH   5  15
ENDBRANCH   3   8
ENDBRANCH   1   4
BRANCH   1  19
ATOM     19  O   UNL     1       7.598   7.201  16.605  0.00  0.00    +0.000 OA
BRANCH  19  20
ATOM     20  C   UNL     1       6.749   6.056  16.455  0.00  0.00    +0.000 C 
BRANCH  20  21
ATOM     21  C   UNL     1       5.274   6.404  16.293  0.00  0.00    +0.000 C 
BRANCH  21  22
ATOM     22  C   UNL     1       4.478   6.345  17.601  0.00  0.00    +0.000 C 
BRANCH  22  23
ATOM     23  C   UNL     1       3.479   5.181  17.573  0.00  0.00    +0.000 C 
BRANCH  23  24
ATOM     24  C   UNL     1       3.894   4.046  18.441  0.00  0.00    +0.000 A 
ATOM     25  C   UNL     1       5.002   3.896  19.251  0.00  0.00    +0.000 A 
ATOM     26  N   UNL     1       4.947   2.698  19.899  0.00  0.00    +0.000 NA
ATOM     27  N   UNL     1       3.834   2.086  19.530  0.00  0.00    +0.000 NA
ATOM     28  N   UNL     1       3.198   2.882  18.649  0.00  0.00    +0.000 N 
BRANCH  28  29
ATOM     29  C   UNL     1       1.916   2.455  18.134  0.00  0.00    +0.000 C 
BRANCH  29  30
ATOM     30  C   UNL     1       0.790   2.476  19.160  0.00  0.00    +0.000 C 
BRANCH  30  31
ATOM     31  C   UNL     1       0.794   3.704  20.063  0.00  0.00    +0.000 C 
BRANCH  31  32
ATOM     32  O   UNL     1       1.483   3.389  21.269  0.00  0.00    +0.000 OA
ATOM     33  H   UNL     1       2.396   3.714  21.187  0.00  0.00    +0.000 HD
ENDBRANCH  31  32
ENDBRANCH  30  31
ENDBRANCH  29  30
ENDBRANCH  28  29
ENDBRANCH  23  24
ENDBRANCH  22  23
ENDBRANCH  21  22
ENDBRANCH  20  21
ENDBRANCH  19  20
ENDBRANCH   1  19
TORSDOF 16
ENDMDL
MODEL 3
REMARK VINA RESULT:      -6.8      2.083      2.869
REMARK  Name = 
REMARK  18 active torsions:
REMARK  status: ('A' for Active; 'I' for Inactive)
REMARK    1  A    between atoms: C_1  and  C_2
REMARK    2  A    between atoms: C_2  and  O_4
REMARK    3  A    between atoms: O_4  and  C_5
REMARK    4  A    between atoms: C_8  and  C_9
REMARK    5  A    between atoms: C_10  and  C_11
REMARK    6  A    between atoms: C_11  and  O_13
REMARK    7  A    between atoms: O_13  and  C_14
REMARK    8  A    between atoms: C_14  and  C_15
REMARK    9  A    between atoms: C_15  and  C_16
REMARK   10  A    between atoms: C_16  and  C_17
REMARK   11  A    between atoms: C_17  and  C_18
REMARK   12  A    between atoms: N_22  and  C_23
REMARK   13  A    between atoms: C_23  and  C_24
REMARK   14  A    between atoms: C_24  and  C_25
REMARK   15  A    between atoms: C_25  and  O_26
REMARK   16  A    between atoms: C_28  and  O_29
REMARK   17  A    between atoms: O_29  and  C_30
REMARK   18  A    between atoms: C_30  and  C_31
REMARK                            x       y       z     vdW  Elec       q    Type
REMARK                         _______ _______ _______ _____ _____    ______ ____
ROOT
ATOM      1  C   UNL     1       3.213   3.919  20.012  0.00  0.00    +0.000 C 
ATOM      2  O   UNL     1       4.415   3.774  20.142  0.00  0.00    +0.000 OA
ENDROOT
BRANCH   1   4
ATOM      3  C   UNL     1       2.920   6.277  19.441  0.00  0.00    +0.000 C 
ATOM      4  C   UNL     1       2.480   5.201  20.111  0.00  0.00    +0.000 C 
BRANCH   3   8
ATOM      5  C   UNL     1       1.029  10.125  19.120  0.00  0.00    +0.000 A 
ATOM      6  C   UNL     1       1.456   9.417  17.988  0.00  0.00    +0.000 A 
ATOM      7  C   UNL     1       2.057   8.164  18.112  0.00  0.00    +0.000 A 
ATOM      8  C   UNL     1       2.220   7.569  19.366  0.00  0.00    +0.000 A 
ATOM      9  C   UNL     1       1.751   8.257  20.491  0.00  0.00    +0.000 A 
ATOM     10  C   UNL     1       1.152   9.527  20.371  0.00  0.00    +0.000 A 
BRANCH  10  11
ATOM     11  O   UNL     1       0.713  10.030  21.629  0.00  0.00    +0.000 OA
BRANCH  11  12
ATOM     12  C   UNL     1      -0.430   9.843  22.413  0.00  0.00    +0.000 C 
ATOM     13  C   UNL     1      -1.025  11.193  22.719  0.00  0.00    +0.000 C 
ATOM     14  O   UNL     1      -0.890   8.782  22.800  0.00  0.00    +0.000 OA
ENDBRANCH  11  12
ENDBRANCH  10  11
BRANCH   5  15
ATOM     15  O   UNL     1       0.372  11.348  18.933  0.00  0.00    +0.000 OA
BRANCH  15  17
ATOM     16  C   UNL     1      -1.551  12.661  19.348  0.00  0.00    +0.000 C 
ATOM     17  C   UNL     1      -1.022  11.327  18.898  0.00  0.00    +0.000 C 
ATOM     18  O   UNL     1      -1.739  10.364  18.652  0.00  0.00    +0.000 OA
ENDBRANCH  15  17
ENDBRANCH   5  15
ENDBRANCH   3   8
ENDBRANCH   1   4
BRANCH   1  19
ATOM     19  O   UNL     1       2.322   2.977  19.608  0.00  0.00    +0.000 OA
BRANCH  19  20
ATOM     20  C   UNL     1       1.713   3.230  18.335  0.00  0.00    +0.000 C 
BRANCH  20  21
ATOM     21  C   UNL     1       2.562   2.786  17.151  0.00  0.00    +0.000 C 
BRANCH  21  22
ATOM     22  C   UNL     1       3.644   3.795  16.753  0.00  0.00    +0.000 C 
BRANCH  22  23
ATOM     23  C   UNL     1       4.964   3.076  16.442  0.00  0.00    +0.000 C 
BRANCH  23  24
ATOM     24  C   UNL     1       5.912   3.924  15.671  0.00  0.00    +0.000 A 
ATOM     25  C   UNL     1       5.891   4.317  14.348  0.00  0.00    +0.000 A 
ATOM     26  N   UNL     1       6.950   5.134  14.085  0.00  0.00    +0.000 NA
ATOM     27  N   UNL     1       7.640   5.276  15.205  0.00  0.00    +0.000 NA
ATOM     28  N   UNL     1       7.031   4.549  16.161  0.00  0.00    +0.000 N 
BRANCH  28  29
ATOM     29  C   UNL     1       7.570   4.584  17.502  0.00  0.00    +0.000 C 
BRANCH  29  30
ATOM     30  C   UNL     1       7.010   5.701  18.374  0.00  0.00    +0.000 C 
BRANCH  30  31
ATOM     31  C   UNL     1       8.003   6.254  19.390  0.00  0.00    +0.000 C 
BRANCH  31  32
ATOM     32  O   UNL     1       8.074   5.364  20.500  0.00  0.00    +0.000 OA
ATOM     33  H   UNL     1       7.445   4.639  20.343  0.00  0.00    +0.000 HD
ENDBRANCH  31  32
ENDBRANCH  30  31
ENDBRANCH  29  30
ENDBRANCH  28  29
ENDBRANCH  23  24
ENDBRANCH  22  23
ENDBRANCH  21  22
ENDBRANCH  20  21
ENDBRANCH  19  20
ENDBRANCH   1  19
TORSDOF 16
ENDMDL
MODEL 4
REMARK VINA RESULT:      -6.8      1.039      1.266
REMARK  Name = 
REMARK  18 active torsions:
REMARK  status: ('A' for Active; 'I' for Inactive)
REMARK    1  A    between atoms: C_1  and  C_2
REMARK    2  A    between atoms: C_2  and  O_4
REMARK    3  A    between atoms: O_4  and  C_5
REMARK    4  A    between atoms: C_8  and  C_9
REMARK    5  A    between atoms: C_10  and  C_11
REMARK    6  A    between atoms: C_11  and  O_13
REMARK    7  A    between atoms: O_13  and  C_14
REMARK    8  A    between atoms: C_14  and  C_15
REMARK    9  A    between atoms: C_15  and  C_16
REMARK   10  A    between atoms: C_16  and  C_17
REMARK   11  A    between atoms: C_17  and  C_18
REMARK   12  A    between atoms: N_22  and  C_23
REMARK   13  A    between atoms: C_23  and  C_24
REMARK   14  A    between atoms: C_24  and  C_25
REMARK   15  A    between atoms: C_25  and  O_26
REMARK   16  A    between atoms: C_28  and  O_29
REMARK   17  A    between atoms: O_29  and  C_30
REMARK   18  A    between atoms: C_30  and  C_31
REMARK                            x       y       z     vdW  Elec       q    Type
REMARK                         _______ _______ _______ _____ _____    ______ ____
ROOT
ATOM      1  C   UNL     1       1.697   3.406  20.818  0.00  0.00    +0.000 C 
ATOM      2  O   UNL     1       2.245   3.127  21.870  0.00  0.00    +0.000 OA
ENDROOT
BRANCH   1   4
ATOM      3  C   UNL     1       1.989   5.831  20.769  0.00  0.00    +0.000 C 
ATOM      4  C   UNL     1       1.276   4.759  20.393  0.00  0.00    +0.000 C 
BRANCH   3   8
ATOM      5  C   UNL     1       1.448   9.865  19.382  0.00  0.00    +0.000 A 
ATOM      6  C   UNL     1       1.827   8.832  18.513  0.00  0.00    +0.000 A 
ATOM      7  C   UNL     1       1.986   7.526  18.981  0.00  0.00    +0.000 A 
ATOM      8  C   UNL     1       1.741   7.210  20.320  0.00  0.00    +0.000 A 
ATOM      9  C   UNL     1       1.318   8.235  21.175  0.00  0.00    +0.000 A 
ATOM     10  C   UNL     1       1.165   9.555  20.709  0.00  0.00    +0.000 A 
BRANCH  10  11
ATOM     11  O   UNL     1       0.691  10.429  21.730  0.00  0.00    +0.000 OA
BRANCH  11  12
ATOM     12  C   UNL     1      -0.026  10.249  22.916  0.00  0.00    +0.000 C 
ATOM     13  C   UNL     1      -1.330  10.996  22.805  0.00  0.00    +0.000 C 
ATOM     14  O   UNL     1       0.319   9.605  23.893  0.00  0.00    +0.000 OA
ENDBRANCH  11  12
ENDBRANCH  10  11
BRANCH   5  15
ATOM     15  O   UNL     1       1.238  11.142  18.847  0.00  0.00    +0.000 OA
BRANCH  15  17
ATOM     16  C   UNL     1      -0.150  12.998  18.375  0.00  0.00    +0.000 C 
ATOM     17  C   UNL     1      -0.076  11.507  18.558  0.00  0.00    +0.000 C 
ATOM     18  O   UNL     1      -1.061  10.777  18.554  0.00  0.00    +0.000 OA
ENDBRANCH  15  17
ENDBRANCH   5  15
ENDBRANCH   3   8
ENDBRANCH   1   4
BRANCH   1  19
ATOM     19  O   UNL     1       1.495   2.573  19.764  0.00  0.00    +0.000 OA
BRANCH  19  20
ATOM     20  C   UNL     1       2.161   2.958  18.554  0.00  0.00    +0.000 C 
BRANCH  20  21
ATOM     21  C   UNL     1       3.656   2.666  18.559  0.00  0.00    +0.000 C 
BRANCH  21  22
ATOM     22  C   UNL     1       4.532   3.921  18.629  0.00  0.00    +0.000 C 
BRANCH  22  23
ATOM     23  C   UNL     1       4.216   4.866  17.462  0.00  0.00    +0.000 C 
BRANCH  23  24
ATOM     24  C   UNL     1       5.331   5.806  17.165  0.00  0.00    +0.000 A 
ATOM     25  C   UNL     1       5.463   7.154  17.432  0.00  0.00    +0.000 A 
ATOM     26  N   UNL     1       6.682   7.596  17.015  0.00  0.00    +0.000 NA
ATOM     27  N   UNL     1       7.333   6.567  16.497  0.00  0.00    +0.000 NA
ATOM     28  N   UNL     1       6.529   5.490  16.575  0.00  0.00    +0.000 N 
BRANCH  28  29
ATOM     29  C   UNL     1       7.037   4.215  16.118  0.00  0.00    +0.000 C 
BRANCH  29  30
ATOM     30  C   UNL     1       6.308   3.648  14.907  0.00  0.00    +0.000 C 
BRANCH  30  31
ATOM     31  C   UNL     1       6.485   4.468  13.633  0.00  0.00    +0.000 C 
BRANCH  31  32
ATOM     32  O   UNL     1       6.103   3.674  12.514  0.00  0.00    +0.000 OA
ATOM     33  H   UNL     1       5.169   3.426  12.627  0.00  0.00    +0.000 HD
ENDBRANCH  31  32
ENDBRANCH  30  31
ENDBRANCH  29  30
ENDBRANCH  28  29
ENDBRANCH  23  24
ENDBRANCH  22  23
ENDBRANCH  21  22
ENDBRANCH  20  21
ENDBRANCH  19  20
ENDBRANCH   1  19
TORSDOF 16
ENDMDL
MODEL 5
REMARK VINA RESULT:      -6.4      4.725     10.183
REMARK  Name = 
REMARK  18 active torsions:
REMARK  status: ('A' for Active; 'I' for Inactive)
REMARK    1  A    between atoms: C_1  and  C_2
REMARK    2  A    between atoms: C_2  and  O_4
REMARK    3  A    between atoms: O_4  and  C_5
REMARK    4  A    between atoms: C_8  and  C_9
REMARK    5  A    between atoms: C_10  and  C_11
REMARK    6  A    between atoms: C_11  and  O_13
REMARK    7  A    between atoms: O_13  and  C_14
REMARK    8  A    between atoms: C_14  and  C_15
REMARK    9  A    between atoms: C_15  and  C_16
REMARK   10  A    between atoms: C_16  and  C_17
REMARK   11  A    between atoms: C_17  and  C_18
REMARK   12  A    between atoms: N_22  and  C_23
REMARK   13  A    between atoms: C_23  and  C_24
REMARK   14  A    between atoms: C_24  and  C_25
REMARK   15  A    between atoms: C_25  and  O_26
REMARK   16  A    between atoms: C_28  and  O_29
REMARK   17  A    between atoms: O_29  and  C_30
REMARK   18  A    between atoms: C_30  and  C_31
REMARK                            x       y       z     vdW  Elec       q    Type
REMARK                         _______ _______ _______ _____ _____    ______ ____
ROOT
ATOM      1  C   UNL     1       0.684  10.133  18.294  0.00  0.00    +0.000 C 
ATOM      2  O   UNL     1       1.092  11.205  18.706  0.00  0.00    +0.000 OA
ENDROOT
BRANCH   1   4
ATOM      3  C   UNL     1       2.189   8.222  18.522  0.00  0.00    +0.000 C 
ATOM      4  C   UNL     1       1.515   9.056  17.714  0.00  0.00    +0.000 C 
BRANCH   3   8
ATOM      5  C   UNL     1       4.476   4.892  17.047  0.00  0.00    +0.000 A 
ATOM      6  C   UNL     1       5.050   6.159  17.225  0.00  0.00    +0.000 A 
ATOM      7  C   UNL     1       4.294   7.225  17.717  0.00  0.00    +0.000 A 
ATOM      8  C   UNL     1       2.954   7.048  18.073  0.00  0.00    +0.000 A 
ATOM      9  C   UNL     1       2.396   5.771  17.938  0.00  0.00    +0.000 A 
ATOM     10  C   UNL     1       3.153   4.695  17.434  0.00  0.00    +0.000 A 
BRANCH  10  11
ATOM     11  O   UNL     1       2.407   3.482  17.415  0.00  0.00    +0.000 OA
BRANCH  11  12
ATOM     12  C   UNL     1       2.385   2.334  18.214  0.00  0.00    +0.000 C 
ATOM     13  C   UNL     1       1.020   2.215  18.841  0.00  0.00    +0.000 C 
ATOM     14  O   UNL     1       3.298   1.547  18.394  0.00  0.00    +0.000 OA
ENDBRANCH  11  12
ENDBRANCH  10  11
BRANCH   5  15
ATOM     15  O   UNL     1       5.297   3.843  16.616  0.00  0.00    +0.000 OA
BRANCH  15  17
ATOM     16  C   UNL     1       6.111   4.034  14.403  0.00  0.00    +0.000 C 
ATOM     17  C   UNL     1       6.424   4.178  15.867  0.00  0.00    +0.000 C 
ATOM     18  O   UNL     1       7.541   4.445  16.296  0.00  0.00    +0.000 OA
ENDBRANCH  15  17
ENDBRANCH   5  15
ENDBRANCH   3   8
ENDBRANCH   1   4
BRANCH   1  19
ATOM     19  O   UNL     1      -0.578   9.646  18.415  0.00  0.00    +0.000 OA
BRANCH  19  20
ATOM     20  C   UNL     1      -1.437   9.913  17.298  0.00  0.00    +0.000 C 
BRANCH  20  21
ATOM     21  C   UNL     1      -1.993  11.331  17.278  0.00  0.00    +0.000 C 
BRANCH  21  22
ATOM     22  C   UNL     1      -3.127  11.565  18.281  0.00  0.00    +0.000 C 
BRANCH  22  23
ATOM     23  C   UNL     1      -2.573  12.096  19.610  0.00  0.00    +0.000 C 
BRANCH  23  24
ATOM     24  C   UNL     1      -3.623  12.707  20.468  0.00  0.00    +0.000 A 
ATOM     25  C   UNL     1      -4.955  12.964  20.210  0.00  0.00    +0.000 A 
ATOM     26  N   UNL     1      -5.550  13.500  21.312  0.00  0.00    +0.000 NA
ATOM     27  N   UNL     1      -4.637  13.584  22.266  0.00  0.00    +0.000 NA
ATOM     28  N   UNL     1      -3.476  13.119  21.768  0.00  0.00    +0.000 N 
BRANCH  28  29
ATOM     29  C   UNL     1      -2.326  13.058  22.643  0.00  0.00    +0.000 C 
BRANCH  29  30
ATOM     30  C   UNL     1      -2.134  11.712  23.333  0.00  0.00    +0.000 C 
BRANCH  30  31
ATOM     31  C   UNL     1      -0.885  10.958  22.890  0.00  0.00    +0.000 C 
BRANCH  31  32
ATOM     32  O   UNL     1      -0.941   9.630  23.402  0.00  0.00    +0.000 OA
ATOM     33  H   UNL     1      -1.616   9.143  22.899  0.00  0.00    +0.000 HD
ENDBRANCH  31  32
ENDBRANCH  30  31
ENDBRANCH  29  30
ENDBRANCH  28  29
ENDBRANCH  23  24
ENDBRANCH  22  23
ENDBRANCH  21  22
ENDBRANCH  20  21
ENDBRANCH  19  20
ENDBRANCH   1  19
TORSDOF 16
ENDMDL
MODEL 6
REMARK VINA RESULT:      -6.4      4.435      9.577
REMARK  Name = 
REMARK  18 active torsions:
REMARK  status: ('A' for Active; 'I' for Inactive)
REMARK    1  A    between atoms: C_1  and  C_2
REMARK    2  A    between atoms: C_2  and  O_4
REMARK    3  A    between atoms: O_4  and  C_5
REMARK    4  A    between atoms: C_8  and  C_9
REMARK    5  A    between atoms: C_10  and  C_11
REMARK    6  A    between atoms: C_11  and  O_13
REMARK    7  A    between atoms: O_13  and  C_14
REMARK    8  A    between atoms: C_14  and  C_15
REMARK    9  A    between atoms: C_15  and  C_16
REMARK   10  A    between atoms: C_16  and  C_17
REMARK   11  A    between atoms: C_17  and  C_18
REMARK   12  A    between atoms: N_22  and  C_23
REMARK   13  A    between atoms: C_23  and  C_24
REMARK   14  A    between atoms: C_24  and  C_25
REMARK   15  A    between atoms: C_25  and  O_26
REMARK   16  A    between atoms: C_28  and  O_29
REMARK   17  A    between atoms: O_29  and  C_30
REMARK   18  A    between atoms: C_30  and  C_31
REMARK                            x       y       z     vdW  Elec       q    Type
REMARK                         _______ _______ _______ _____ _____    ______ ____
ROOT
ATOM      1  C   UNL     1       0.430   9.181  21.895  0.00  0.00    +0.000 C 
ATOM      2  O   UNL     1      -0.588   8.680  22.338  0.00  0.00    +0.000 OA
ENDROOT
BRANCH   1   4
ATOM      3  C   UNL     1       1.415   7.242  20.782  0.00  0.00    +0.000 C 
ATOM      4  C   UNL     1       1.322   8.577  20.881  0.00  0.00    +0.000 C 
BRANCH   3   8
ATOM      5  C   UNL     1       3.543   5.258  17.616  0.00  0.00    +0.000 A 
ATOM      6  C   UNL     1       3.595   6.650  17.779  0.00  0.00    +0.000 A 
ATOM      7  C   UNL     1       2.907   7.274  18.821  0.00  0.00    +0.000 A 
ATOM      8  C   UNL     1       2.174   6.525  19.746  0.00  0.00    +0.000 A 
ATOM      9  C   UNL     1       2.162   5.132  19.607  0.00  0.00    +0.000 A 
ATOM     10  C   UNL     1       2.848   4.499  18.552  0.00  0.00    +0.000 A 
BRANCH  10  11
ATOM     11  O   UNL     1       2.737   3.080  18.620  0.00  0.00    +0.000 OA
BRANCH  11  12
ATOM     12  C   UNL     1       3.610   2.046  18.972  0.00  0.00    +0.000 C 
ATOM     13  C   UNL     1       4.389   2.472  20.190  0.00  0.00    +0.000 C 
ATOM     14  O   UNL     1       3.742   0.972  18.409  0.00  0.00    +0.000 OA
ENDBRANCH  11  12
ENDBRANCH  10  11
BRANCH   5  15
ATOM     15  O   UNL     1       4.306   4.678  16.595  0.00  0.00    +0.000 OA
BRANCH  15  17
ATOM     16  C   UNL     1       6.353   4.078  15.573  0.00  0.00    +0.000 C 
ATOM     17  C   UNL     1       5.659   4.458  16.852  0.00  0.00    +0.000 C 
ATOM     18  O   UNL     1       6.211   4.456  17.947  0.00  0.00    +0.000 OA
ENDBRANCH  15  17
ENDBRANCH   5  15
ENDBRANCH   3   8
ENDBRANCH   1   4
BRANCH   1  19
ATOM     19  O   UNL     1       0.877  10.444  22.122  0.00  0.00    +0.000 OA
BRANCH  19  20
ATOM     20  C   UNL     1       0.924  11.284  20.962  0.00  0.00    +0.000 C 
BRANCH  20  21
ATOM     21  C   UNL     1      -0.450  11.664  20.425  0.00  0.00    +0.000 C 
BRANCH  21  22
ATOM     22  C   UNL     1      -0.635  11.371  18.932  0.00  0.00    +0.000 C 
BRANCH  22  23
ATOM     23  C   UNL     1      -1.697  10.284  18.723  0.00  0.00    +0.000 C 
BRANCH  23  24
ATOM     24  C   UNL     1      -2.586  10.566  17.563  0.00  0.00    +0.000 A 
ATOM     25  C   UNL     1      -2.536  10.107  16.262  0.00  0.00    +0.000 A 
ATOM     26  N   UNL     1      -3.589  10.599  15.551  0.00  0.00    +0.000 NA
ATOM     27  N   UNL     1      -4.312  11.352  16.364  0.00  0.00    +0.000 NA
ATOM     28  N   UNL     1      -3.715  11.345  17.571  0.00  0.00    +0.000 N 
BRANCH  28  29
ATOM     29  C   UNL     1      -4.349  12.061  18.657  0.00  0.00    +0.000 C 
BRANCH  29  30
ATOM     30  C   UNL     1      -5.565  11.357  19.246  0.00  0.00    +0.000 C 
BRANCH  30  31
ATOM     31  C   UNL     1      -6.073  11.974  20.545  0.00  0.00    +0.000 C 
BRANCH  31  32
ATOM     32  O   UNL     1      -7.058  11.115  21.111  0.00  0.00    +0.000 OA
ATOM     33  H   UNL     1      -6.597  10.394  21.573  0.00  0.00    +0.000 HD
ENDBRANCH  31  32
ENDBRANCH  30  31
ENDBRANCH  29  30
ENDBRANCH  28  29
ENDBRANCH  23  24
ENDBRANCH  22  23
ENDBRANCH  21  22
ENDBRANCH  20  21
ENDBRANCH  19  20
ENDBRANCH   1  19
TORSDOF 16
ENDMDL
MODEL 7
REMARK VINA RESULT:      -6.4      1.838      3.453
REMARK  Name = 
REMARK  18 active torsions:
REMARK  status: ('A' for Active; 'I' for Inactive)
REMARK    1  A    between atoms: C_1  and  C_2
REMARK    2  A    between atoms: C_2  and  O_4
REMARK    3  A    between atoms: O_4  and  C_5
REMARK    4  A    between atoms: C_8  and  C_9
REMARK    5  A    between atoms: C_10  and  C_11
REMARK    6  A    between atoms: C_11  and  O_13
REMARK    7  A    between atoms: O_13  and  C_14
REMARK    8  A    between atoms: C_14  and  C_15
REMARK    9  A    between atoms: C_15  and  C_16
REMARK   10  A    between atoms: C_16  and  C_17
REMARK   11  A    between atoms: C_17  and  C_18
REMARK   12  A    between atoms: N_22  and  C_23
REMARK   13  A    between atoms: C_23  and  C_24
REMARK   14  A    between atoms: C_24  and  C_25
REMARK   15  A    between atoms: C_25  and  O_26
REMARK   16  A    between atoms: C_28  and  O_29
REMARK   17  A    between atoms: O_29  and  C_30
REMARK   18  A    between atoms: C_30  and  C_31
REMARK                            x       y       z     vdW  Elec       q    Type
REMARK                         _______ _______ _______ _____ _____    ______ ____
ROOT
ATOM      1  C   UNL     1       1.686   4.317  20.268  0.00  0.00    +0.000 C 
ATOM      2  O   UNL     1       0.889   3.437  19.989  0.00  0.00    +0.000 OA
ENDROOT
BRANCH   1   4
ATOM      3  C   UNL     1       1.861   6.750  20.140  0.00  0.00    +0.000 C 
ATOM      4  C   UNL     1       1.344   5.673  20.750  0.00  0.00    +0.000 C 
BRANCH   3   8
ATOM      5  C   UNL     1       0.668  10.760  21.135  0.00  0.00    +0.000 A 
ATOM      6  C   UNL     1       0.800   9.766  22.115  0.00  0.00    +0.000 A 
ATOM      7  C   UNL     1       1.200   8.473  21.773  0.00  0.00    +0.000 A 
ATOM      8  C   UNL     1       1.509   8.145  20.450  0.00  0.00    +0.000 A 
ATOM      9  C   UNL     1       1.422   9.152  19.481  0.00  0.00    +0.000 A 
ATOM     10  C   UNL     1       1.009  10.455  19.820  0.00  0.00    +0.000 A 
BRANCH  10  11
ATOM     11  O   UNL     1       1.027  11.329  18.696  0.00  0.00    +0.000 OA
BRANCH  11  12
ATOM     12  C   UNL     1       0.992  12.717  18.534  0.00  0.00    +0.000 C 
ATOM     13  C   UNL     1       2.409  13.223  18.443  0.00  0.00    +0.000 C 
ATOM     14  O   UNL     1       0.001  13.426  18.475  0.00  0.00    +0.000 OA
ENDBRANCH  11  12
ENDBRANCH  10  11
BRANCH   5  15
ATOM     15  O   UNL     1       0.329  12.056  21.542  0.00  0.00    +0.000 OA
BRANCH  15  17
ATOM     16  C   UNL     1      -1.266  12.900  23.072  0.00  0.00    +0.000 C 
ATOM     17  C   UNL     1      -1.027  12.346  21.694  0.00  0.00    +0.000 C 
ATOM     18  O   UNL     1      -1.927  12.101  20.899  0.00  0.00    +0.000 OA
ENDBRANCH  15  17
ENDBRANCH   5  15
ENDBRANCH   3   8
ENDBRANCH   1   4
BRANCH   1  19
ATOM     19  O   UNL     1       3.037   4.194  20.338  0.00  0.00    +0.000 OA
BRANCH  19  20
ATOM     20  C   UNL     1       3.554   2.945  19.859  0.00  0.00    +0.000 C 
BRANCH  20  21
ATOM     21  C   UNL     1       4.538   3.092  18.706  0.00  0.00    +0.000 C 
BRANCH  21  22
ATOM     22  C   UNL     1       3.867   3.276  17.340  0.00  0.00    +0.000 C 
BRANCH  22  23
ATOM     23  C   UNL     1       4.061   4.711  16.833  0.00  0.00    +0.000 C 
BRANCH  23  24
ATOM     24  C   UNL     1       5.297   4.871  16.020  0.00  0.00    +0.000 A 
ATOM     25  C   UNL     1       5.663   4.295  14.820  0.00  0.00    +0.000 A 
ATOM     26  N   UNL     1       6.876   4.770  14.423  0.00  0.00    +0.000 NA
ATOM     27  N   UNL     1       7.290   5.638  15.333  0.00  0.00    +0.000 NA
ATOM     28  N   UNL     1       6.354   5.700  16.299  0.00  0.00    +0.000 N 
BRANCH  28  29
ATOM     29  C   UNL     1       6.552   6.627  17.391  0.00  0.00    +0.000 C 
BRANCH  29  30
ATOM     30  C   UNL     1       6.755   5.963  18.748  0.00  0.00    +0.000 C 
BRANCH  30  31
ATOM     31  C   UNL     1       8.092   5.245  18.894  0.00  0.00    +0.000 C 
BRANCH  31  32
ATOM     32  O   UNL     1       8.095   4.097  18.051  0.00  0.00    +0.000 OA
ATOM     33  H   UNL     1       7.287   4.119  17.511  0.00  0.00    +0.000 HD
ENDBRANCH  31  32
ENDBRANCH  30  31
ENDBRANCH  29  30
ENDBRANCH  28  29
ENDBRANCH  23  24
ENDBRANCH  22  23
ENDBRANCH  21  22
ENDBRANCH  20  21
ENDBRANCH  19  20
ENDBRANCH   1  19
TORSDOF 16
ENDMDL
MODEL 8
REMARK VINA RESULT:      -6.4      6.268      8.206
REMARK  Name = 
REMARK  18 active torsions:
REMARK  status: ('A' for Active; 'I' for Inactive)
REMARK    1  A    between atoms: C_1  and  C_2
REMARK    2  A    between atoms: C_2  and  O_4
REMARK    3  A    between atoms: O_4  and  C_5
REMARK    4  A    between atoms: C_8  and  C_9
REMARK    5  A    between atoms: C_10  and  C_11
REMARK    6  A    between atoms: C_11  and  O_13
REMARK    7  A    between atoms: O_13  and  C_14
REMARK    8  A    between atoms: C_14  and  C_15
REMARK    9  A    between atoms: C_15  and  C_16
REMARK   10  A    between atoms: C_16  and  C_17
REMARK   11  A    between atoms: C_17  and  C_18
REMARK   12  A    between atoms: N_22  and  C_23
REMARK   13  A    between atoms: C_23  and  C_24
REMARK   14  A    between atoms: C_24  and  C_25
REMARK   15  A    between atoms: C_25  and  O_26
REMARK   16  A    between atoms: C_28  and  O_29
REMARK   17  A    between atoms: O_29  and  C_30
REMARK   18  A    between atoms: C_30  and  C_31
REMARK                            x       y       z     vdW  Elec       q    Type
REMARK                         _______ _______ _______ _____ _____    ______ ____
ROOT
ATOM      1  C   UNL     1       7.850   7.777  17.634  0.00  0.00    +0.000 C 
ATOM      2  O   UNL     1       7.266   7.354  16.652  0.00  0.00    +0.000 OA
ENDROOT
BRANCH   1   4
ATOM      3  C   UNL     1       9.075   9.508  18.847  0.00  0.00    +0.000 C 
ATOM      4  C   UNL     1       8.171   9.195  17.906  0.00  0.00    +0.000 C 
BRANCH   3   8
ATOM      5  C   UNL     1      10.678  13.424  19.607  0.00  0.00    +0.000 A 
ATOM      6  C   UNL     1      10.751  12.832  18.339  0.00  0.00    +0.000 A 
ATOM      7  C   UNL     1      10.214  11.564  18.109  0.00  0.00    +0.000 A 
ATOM      8  C   UNL     1       9.562  10.867  19.130  0.00  0.00    +0.000 A 
ATOM      9  C   UNL     1       9.450  11.480  20.383  0.00  0.00    +0.000 A 
ATOM     10  C   UNL     1       9.999  12.755  20.622  0.00  0.00    +0.000 A 
BRANCH  10  11
ATOM     11  O   UNL     1       9.739  13.208  21.947  0.00  0.00    +0.000 OA
BRANCH  11  12
ATOM     12  C   UNL     1       9.044  14.291  22.493  0.00  0.00    +0.000 C 
ATOM     13  C   UNL     1       7.637  14.276  21.953  0.00  0.00    +0.000 C 
ATOM     14  O   UNL     1       9.475  15.123  23.273  0.00  0.00    +0.000 OA
ENDBRANCH  11  12
ENDBRANCH  10  11
BRANCH   5  15
ATOM     15  O   UNL     1      11.174  14.725  19.765  0.00  0.00    +0.000 OA
BRANCH  15  17
ATOM     16  C   UNL     1      10.769  16.988  20.318  0.00  0.00    +0.000 C 
ATOM     17  C   UNL     1      10.282  15.778  19.570  0.00  0.00    +0.000 C 
ATOM     18  O   UNL     1       9.206  15.735  18.983  0.00  0.00    +0.000 OA
ENDBRANCH  15  17
ENDBRANCH   5  15
ENDBRANCH   3   8
ENDBRANCH   1   4
BRANCH   1  19
ATOM     19  O   UNL     1       8.192   7.067  18.741  0.00  0.00    +0.000 OA
BRANCH  19  20
ATOM     20  C   UNL     1       7.835   5.680  18.701  0.00  0.00    +0.000 C 
BRANCH  20  21
ATOM     21  C   UNL     1       6.402   5.403  19.137  0.00  0.00    +0.000 C 
BRANCH  21  22
ATOM     22  C   UNL     1       5.699   4.324  18.307  0.00  0.00    +0.000 C 
BRANCH  22  23
ATOM     23  C   UNL     1       4.761   3.489  19.188  0.00  0.00    +0.000 C 
BRANCH  23  24
ATOM     24  C   UNL     1       3.442   3.237  18.546  0.00  0.00    +0.000 A 
ATOM     25  C   UNL     1       2.822   2.051  18.207  0.00  0.00    +0.000 A 
ATOM     26  N   UNL     1       1.593   2.302  17.674  0.00  0.00    +0.000 NA
ATOM     27  N   UNL     1       1.412   3.612  17.671  0.00  0.00    +0.000 NA
ATOM     28  N   UNL     1       2.517   4.184  18.184  0.00  0.00    +0.000 N 
BRANCH  28  29
ATOM     29  C   UNL     1       2.544   5.621  18.336  0.00  0.00    +0.000 C 
BRANCH  29  30
ATOM     30  C   UNL     1       2.755   6.096  19.769  0.00  0.00    +0.000 C 
BRANCH  30  31
ATOM     31  C   UNL     1       1.499   6.046  20.632  0.00  0.00    +0.000 C 
BRANCH  31  32
ATOM     32  O   UNL     1       1.048   4.697  20.714  0.00  0.00    +0.000 OA
ATOM     33  H   UNL     1       0.228   4.622  20.196  0.00  0.00    +0.000 HD
ENDBRANCH  31  32
ENDBRANCH  30  31
ENDBRANCH  29  30
ENDBRANCH  28  29
ENDBRANCH  23  24
ENDBRANCH  22  23
ENDBRANCH  21  22
ENDBRANCH  20  21
ENDBRANCH  19  20
ENDBRANCH   1  19
TORSDOF 16
ENDMDL
MODEL 9
REMARK VINA RESULT:      -6.3      3.847      9.481
REMARK  Name = 
REMARK  18 active torsions:
REMARK  status: ('A' for Active; 'I' for Inactive)
REMARK    1  A    between atoms: C_1  and  C_2
REMARK    2  A    between atoms: C_2  and  O_4
REMARK    3  A    between atoms: O_4  and  C_5
REMARK    4  A    between atoms: C_8  and  C_9
REMARK    5  A    between atoms: C_10  and  C_11
REMARK    6  A    between atoms: C_11  and  O_13
REMARK    7  A    between atoms: O_13  and  C_14
REMARK    8  A    between atoms: C_14  and  C_15
REMARK    9  A    between atoms: C_15  and  C_16
REMARK   10  A    between atoms: C_16  and  C_17
REMARK   11  A    between atoms: C_17  and  C_18
REMARK   12  A    between atoms: N_22  and  C_23
REMARK   13  A    between atoms: C_23  and  C_24
REMARK   14  A    between atoms: C_24  and  C_25
REMARK   15  A    between atoms: C_25  and  O_26
REMARK   16  A    between atoms: C_28  and  O_29
REMARK   17  A    between atoms: O_29  and  C_30
REMARK   18  A    between atoms: C_30  and  C_31
REMARK                            x       y       z     vdW  Elec       q    Type
REMARK                         _______ _______ _______ _____ _____    ______ ____
ROOT
ATOM      1  C   UNL     1       0.904  10.075  18.450  0.00  0.00    +0.000 C 
ATOM      2  O   UNL     1       1.292  11.135  18.910  0.00  0.00    +0.000 OA
ENDROOT
BRANCH   1   4
ATOM      3  C   UNL     1       2.269   8.052  18.567  0.00  0.00    +0.000 C 
ATOM      4  C   UNL     1       1.755   9.042  17.821  0.00  0.00    +0.000 C 
BRANCH   3   8
ATOM      5  C   UNL     1       4.510   4.805  16.857  0.00  0.00    +0.000 A 
ATOM      6  C   UNL     1       5.005   6.116  16.869  0.00  0.00    +0.000 A 
ATOM      7  C   UNL     1       4.268   7.155  17.439  0.00  0.00    +0.000 A 
ATOM      8  C   UNL     1       3.031   6.908  18.041  0.00  0.00    +0.000 A 
ATOM      9  C   UNL     1       2.560   5.590  18.069  0.00  0.00    +0.000 A 
ATOM     10  C   UNL     1       3.297   4.541  17.486  0.00  0.00    +0.000 A 
BRANCH  10  11
ATOM     11  O   UNL     1       2.657   3.280  17.660  0.00  0.00    +0.000 OA
BRANCH  11  12
ATOM     12  C   UNL     1       1.737   2.768  18.580  0.00  0.00    +0.000 C 
ATOM     13  C   UNL     1       2.463   2.468  19.866  0.00  0.00    +0.000 C 
ATOM     14  O   UNL     1       0.545   2.583  18.401  0.00  0.00    +0.000 OA
ENDBRANCH  11  12
ENDBRANCH  10  11
BRANCH   5  15
ATOM     15  O   UNL     1       5.320   3.791  16.332  0.00  0.00    +0.000 OA
BRANCH  15  17
ATOM     16  C   UNL     1       6.052   3.969  14.090  0.00  0.00    +0.000 C 
ATOM     17  C   UNL     1       6.399   4.179  15.538  0.00  0.00    +0.000 C 
ATOM     18  O   UNL     1       7.508   4.533  15.922  0.00  0.00    +0.000 OA
ENDBRANCH  15  17
ENDBRANCH   5  15
ENDBRANCH   3   8
ENDBRANCH   1   4
BRANCH   1  19
ATOM     19  O   UNL     1      -0.348   9.558  18.551  0.00  0.00    +0.000 OA
BRANCH  19  20
ATOM     20  C   UNL     1      -1.222   9.879  17.461  0.00  0.00    +0.000 C 
BRANCH  20  21
ATOM     21  C   UNL     1      -2.475  10.635  17.884  0.00  0.00    +0.000 C 
BRANCH  21  22
ATOM     22  C   UNL     1      -2.194  12.028  18.459  0.00  0.00    +0.000 C 
BRANCH  22  23
ATOM     23  C   UNL     1      -2.755  12.148  19.881  0.00  0.00    +0.000 C 
BRANCH  23  24
ATOM     24  C   UNL     1      -1.688  12.254  20.913  0.00  0.00    +0.000 A 
ATOM     25  C   UNL     1      -1.012  11.271  21.608  0.00  0.00    +0.000 A 
ATOM     26  N   UNL     1      -0.082  11.835  22.428  0.00  0.00    +0.000 NA
ATOM     27  N   UNL     1      -0.141  13.147  22.269  0.00  0.00    +0.000 NA
ATOM     28  N   UNL     1      -1.107  13.410  21.369  0.00  0.00    +0.000 N 
BRANCH  28  29
ATOM     29  C   UNL     1      -1.333  14.785  20.982  0.00  0.00    +0.000 C 
BRANCH  29  30
ATOM     30  C   UNL     1      -0.157  15.435  20.262  0.00  0.00    +0.000 C 
BRANCH  30  31
ATOM     31  C   UNL     1      -0.090  15.121  18.771  0.00  0.00    +0.000 C 
BRANCH  31  32
ATOM     32  O   UNL     1       0.778  14.009  18.571  0.00  0.00    +0.000 OA
ATOM     33  H   UNL     1       1.440  14.262  17.905  0.00  0.00    +0.000 HD
ENDBRANCH  31  32
ENDBRANCH  30  31
ENDBRANCH  29  30
ENDBRANCH  28  29
ENDBRANCH  23  24
ENDBRANCH  22  23
ENDBRANCH  21  22
ENDBRANCH  20  21
ENDBRANCH  19  20
ENDBRANCH   1  19
TORSDOF 16
ENDMDL
