MODEL 1
REMARK VINA RESULT:      -6.6      0.000      0.000
REMARK  Name = 
REMARK  4 active torsions:
REMARK  status: ('A' for Active; 'I' for Inactive)
REMARK    1  A    between atoms: C_1  and  O_2
REMARK    2  A    between atoms: O_2  and  C_3
REMARK    3  A    between atoms: C_6  and  N_7
REMARK    4  A    between atoms: C_10  and  C_11
REMARK                            x       y       z     vdW  Elec       q    Type
REMARK                         _______ _______ _______ _____ _____    ______ ____
ROOT
ATOM      1  N   UNL     1       4.270   3.640  17.882  0.00  0.00    +0.000 N 
ATOM      2  C   UNL     1       3.456   4.470  18.583  0.00  0.00    +0.000 A 
ATOM      3  N   UNL     1       3.052   5.664  18.219  0.00  0.00    +0.000 NA
ATOM      4  C   UNL     1       2.396   6.310  19.243  0.00  0.00    +0.000 A 
ATOM      5  C   UNL     1       2.223   5.557  20.382  0.00  0.00    +0.000 A 
ATOM      6  S   UNL     1       2.899   3.996  20.151  0.00  0.00    +0.000 S 
ATOM      7  H   UNL     1       4.542   2.791  18.363  0.00  0.00    +0.000 HD
ENDROOT
BRANCH   1  11
ATOM      8  C   UNL     1       7.044   4.976  14.964  0.00  0.00    +0.000 A 
ATOM      9  C   UNL     1       7.282   5.156  16.325  0.00  0.00    +0.000 A 
ATOM     10  C   UNL     1       6.373   4.678  17.276  0.00  0.00    +0.000 A 
ATOM     11  C   UNL     1       5.187   4.038  16.888  0.00  0.00    +0.000 A 
ATOM     12  C   UNL     1       4.976   3.853  15.513  0.00  0.00    +0.000 A 
ATOM     13  C   UNL     1       5.884   4.326  14.559  0.00  0.00    +0.000 A 
BRANCH   8  15
ATOM     14  C   UNL     1       7.777   5.263  12.741  0.00  0.00    +0.000 C 
ATOM     15  O   UNL     1       7.988   5.501  14.128  0.00  0.00    +0.000 OA
ENDBRANCH   8  15
ENDBRANCH   1  11
BRANCH   4  16
ATOM     16  C   UNL     1       1.974   7.736  19.071  0.00  0.00    +0.000 A 
ATOM     17  C   UNL     1       2.139   8.421  17.884  0.00  0.00    +0.000 A 
ATOM     18  C   UNL     1       1.714   9.779  17.980  0.00  0.00    +0.000 A 
ATOM     19  C   UNL     1       1.238  10.077  19.238  0.00  0.00    +0.000 A 
ATOM     20  S   UNL     1       1.279   8.719  20.279  0.00  0.00    +0.000 S 
ENDBRANCH   4  16
TORSDOF 3
ENDMDL
MODEL 2
REMARK VINA RESULT:      -6.6      0.820      1.084
REMARK  Name = 
REMARK  4 active torsions:
REMARK  status: ('A' for Active; 'I' for Inactive)
REMARK    1  A    between atoms: C_1  and  O_2
REMARK    2  A    between atoms: O_2  and  C_3
REMARK    3  A    between atoms: C_6  and  N_7
REMARK    4  A    between atoms: C_10  and  C_11
REMARK                            x       y       z     vdW  Elec       q    Type
REMARK                         _______ _______ _______ _____ _____    ______ ____
ROOT
ATOM      1  N   UNL     1       4.450   3.323  17.815  0.00  0.00    +0.000 N 
ATOM      2  C   UNL     1       3.645   4.063  18.620  0.00  0.00    +0.000 A 
ATOM      3  N   UNL     1       3.201   5.274  18.385  0.00  0.00    +0.000 NA
ATOM      4  C   UNL     1       2.570   5.805  19.489  0.00  0.00    +0.000 A 
ATOM      5  C   UNL     1       2.458   4.944  20.557  0.00  0.00    +0.000 A 
ATOM      6  S   UNL     1       3.161   3.430  20.156  0.00  0.00    +0.000 S 
ATOM      7  H   UNL     1       4.759   2.441  18.204  0.00  0.00    +0.000 HD
ENDROOT
BRANCH   1  11
ATOM      8  C   UNL     1       7.081   4.997  14.938  0.00  0.00    +0.000 A 
ATOM      9  C   UNL     1       7.377   5.034  16.299  0.00  0.00    +0.000 A 
ATOM     10  C   UNL     1       6.515   4.447  17.232  0.00  0.00    +0.000 A 
ATOM     11  C   UNL     1       5.319   3.837  16.830  0.00  0.00    +0.000 A 
ATOM     12  C   UNL     1       5.048   3.796  15.454  0.00  0.00    +0.000 A 
ATOM     13  C   UNL     1       5.909   4.379  14.517  0.00  0.00    +0.000 A 
BRANCH   8  15
ATOM     14  C   UNL     1       7.926   5.245  12.751  0.00  0.00    +0.000 C 
ATOM     15  O   UNL     1       7.982   5.620  14.123  0.00  0.00    +0.000 OA
ENDBRANCH   8  15
ENDBRANCH   1  11
BRANCH   4  16
ATOM     16  C   UNL     1       2.110   7.229  19.468  0.00  0.00    +0.000 A 
ATOM     17  C   UNL     1       1.531   7.838  20.562  0.00  0.00    +0.000 A 
ATOM     18  C   UNL     1       1.125   9.177  20.284  0.00  0.00    +0.000 A 
ATOM     19  C   UNL     1       1.412   9.538  18.987  0.00  0.00    +0.000 A 
ATOM     20  S   UNL     1       2.192   8.280  18.126  0.00  0.00    +0.000 S 
ENDBRANCH   4  16
TORSDOF 3
ENDMDL
MODEL 3
REMARK VINA RESULT:      -6.6      0.886      1.603
REMARK  Name = 
REMARK  4 active torsions:
REMARK  status: ('A' for Active; 'I' for Inactive)
REMARK    1  A    between atoms: C_1  and  O_2
REMARK    2  A    between atoms: O_2  and  C_3
REMARK    3  A    between atoms: C_6  and  N_7
REMARK    4  A    between atoms: C_10  and  C_11
REMARK                            x       y       z     vdW  Elec       q    Type
REMARK                         _______ _______ _______ _____ _____    ______ ____
ROOT
ATOM      1  N   UNL     1       4.168   3.564  18.201  0.00  0.00    +0.000 N 
ATOM      2  C   UNL     1       3.325   4.297  18.973  0.00  0.00    +0.000 A 
ATOM      3  N   UNL     1       2.936   5.531  18.755  0.00  0.00    +0.000 NA
ATOM      4  C   UNL     1       2.238   6.038  19.829  0.00  0.00    +0.000 A 
ATOM      5  C   UNL     1       2.019   5.140  20.849  0.00  0.00    +0.000 A 
ATOM      6  S   UNL     1       2.705   3.620  20.440  0.00  0.00    +0.000 S 
ATOM      7  H   UNL     1       4.420   2.658  18.574  0.00  0.00    +0.000 HD
ENDROOT
BRANCH   1  11
ATOM      8  C   UNL     1       7.020   5.017  15.416  0.00  0.00    +0.000 A 
ATOM      9  C   UNL     1       5.775   4.548  15.001  0.00  0.00    +0.000 A 
ATOM     10  C   UNL     1       4.833   4.105  15.936  0.00  0.00    +0.000 A 
ATOM     11  C   UNL     1       5.125   4.088  17.307  0.00  0.00    +0.000 A 
ATOM     12  C   UNL     1       6.377   4.580  17.704  0.00  0.00    +0.000 A 
ATOM     13  C   UNL     1       7.321   5.028  16.774  0.00  0.00    +0.000 A 
BRANCH   8  15
ATOM     14  C   UNL     1       7.493   4.990  13.106  0.00  0.00    +0.000 C 
ATOM     15  O   UNL     1       7.866   5.404  14.416  0.00  0.00    +0.000 OA
ENDBRANCH   8  15
ENDBRANCH   1  11
BRANCH   4  16
ATOM     16  C   UNL     1       1.823   7.476  19.833  0.00  0.00    +0.000 A 
ATOM     17  C   UNL     1       1.264   8.084  20.938  0.00  0.00    +0.000 A 
ATOM     18  C   UNL     1       0.900   9.440  20.683  0.00  0.00    +0.000 A 
ATOM     19  C   UNL     1       1.199   9.813  19.392  0.00  0.00    +0.000 A 
ATOM     20  S   UNL     1       1.938   8.546  18.510  0.00  0.00    +0.000 S 
ENDBRANCH   4  16
TORSDOF 3
ENDMDL
MODEL 4
REMARK VINA RESULT:      -6.5      2.903      6.739
REMARK  Name = 
REMARK  4 active torsions:
REMARK  status: ('A' for Active; 'I' for Inactive)
REMARK    1  A    between atoms: C_1  and  O_2
REMARK    2  A    between atoms: O_2  and  C_3
REMARK    3  A    between atoms: C_6  and  N_7
REMARK    4  A    between atoms: C_10  and  C_11
REMARK                            x       y       z     vdW  Elec       q    Type
REMARK                         _______ _______ _______ _____ _____    ______ ____
ROOT
ATOM      1  N   UNL     1       2.440   6.094  20.453  0.00  0.00    +0.000 N 
ATOM      2  C   UNL     1       3.223   5.203  19.794  0.00  0.00    +0.000 A 
ATOM      3  N   UNL     1       4.072   5.467  18.829  0.00  0.00    +0.000 NA
ATOM      4  C   UNL     1       4.557   4.315  18.252  0.00  0.00    +0.000 A 
ATOM      5  C   UNL     1       4.134   3.149  18.849  0.00  0.00    +0.000 A 
ATOM      6  S   UNL     1       3.103   3.519  20.172  0.00  0.00    +0.000 S 
ATOM      7  H   UNL     1       1.784   5.692  21.111  0.00  0.00    +0.000 HD
ENDROOT
BRANCH   1  11
ATOM      8  C   UNL     1       1.095   9.862  19.040  0.00  0.00    +0.000 A 
ATOM      9  C   UNL     1       0.864   9.456  20.353  0.00  0.00    +0.000 A 
ATOM     10  C   UNL     1       1.345   8.225  20.812  0.00  0.00    +0.000 A 
ATOM     11  C   UNL     1       2.039   7.354  19.961  0.00  0.00    +0.000 A 
ATOM     12  C   UNL     1       2.275   7.789  18.648  0.00  0.00    +0.000 A 
ATOM     13  C   UNL     1       1.800   9.021  18.185  0.00  0.00    +0.000 A 
BRANCH   8  15
ATOM     14  C   UNL     1       0.998  12.176  19.480  0.00  0.00    +0.000 C 
ATOM     15  O   UNL     1       0.562  11.072  18.696  0.00  0.00    +0.000 OA
ENDBRANCH   8  15
ENDBRANCH   1  11
BRANCH   4  16
ATOM     16  C   UNL     1       5.438   4.403  17.044  0.00  0.00    +0.000 A 
ATOM     17  C   UNL     1       5.010   4.030  15.787  0.00  0.00    +0.000 A 
ATOM     18  C   UNL     1       6.041   4.150  14.807  0.00  0.00    +0.000 A 
ATOM     19  C   UNL     1       7.215   4.613  15.358  0.00  0.00    +0.000 A 
ATOM     20  S   UNL     1       7.061   4.926  17.034  0.00  0.00    +0.000 S 
ENDBRANCH   4  16
TORSDOF 3
ENDMDL
MODEL 5
REMARK VINA RESULT:      -6.4      0.852      1.371
REMARK  Name = 
REMARK  4 active torsions:
REMARK  status: ('A' for Active; 'I' for Inactive)
REMARK    1  A    between atoms: C_1  and  O_2
REMARK    2  A    between atoms: O_2  and  C_3
REMARK    3  A    between atoms: C_6  and  N_7
REMARK    4  A    between atoms: C_10  and  C_11
REMARK                            x       y       z     vdW  Elec       q    Type
REMARK                         _______ _______ _______ _____ _____    ______ ____
ROOT
ATOM      1  N   UNL     1       3.904   4.104  18.623  0.00  0.00    +0.000 N 
ATOM      2  C   UNL     1       3.057   4.997  19.197  0.00  0.00    +0.000 A 
ATOM      3  N   UNL     1       2.739   6.183  18.737  0.00  0.00    +0.000 NA
ATOM      4  C   UNL     1       2.011   6.904  19.657  0.00  0.00    +0.000 A 
ATOM      5  C   UNL     1       1.696   6.217  20.808  0.00  0.00    +0.000 A 
ATOM      6  S   UNL     1       2.330   4.624  20.722  0.00  0.00    +0.000 S 
ATOM      7  H   UNL     1       4.092   3.272  19.169  0.00  0.00    +0.000 HD
ENDROOT
BRANCH   1  11
ATOM      8  C   UNL     1       6.933   4.941  15.774  0.00  0.00    +0.000 A 
ATOM      9  C   UNL     1       5.601   4.792  15.393  0.00  0.00    +0.000 A 
ATOM     10  C   UNL     1       4.609   4.550  16.350  0.00  0.00    +0.000 A 
ATOM     11  C   UNL     1       4.930   4.419  17.708  0.00  0.00    +0.000 A 
ATOM     12  C   UNL     1       6.274   4.589  18.072  0.00  0.00    +0.000 A 
ATOM     13  C   UNL     1       7.269   4.834  17.119  0.00  0.00    +0.000 A 
BRANCH   8  15
ATOM     14  C   UNL     1       7.319   4.878  13.448  0.00  0.00    +0.000 C 
ATOM     15  O   UNL     1       7.816   5.153  14.753  0.00  0.00    +0.000 OA
ENDBRANCH   8  15
ENDBRANCH   1  11
BRANCH   4  16
ATOM     16  C   UNL     1       1.665   8.333  19.375  0.00  0.00    +0.000 A 
ATOM     17  C   UNL     1       2.047   8.974  18.215  0.00  0.00    +0.000 A 
ATOM     18  C   UNL     1       1.650  10.344  18.198  0.00  0.00    +0.000 A 
ATOM     19  C   UNL     1       0.978  10.694  19.347  0.00  0.00    +0.000 A 
ATOM     20  S   UNL     1       0.804   9.371  20.419  0.00  0.00    +0.000 S 
ENDBRANCH   4  16
TORSDOF 3
ENDMDL
MODEL 6
REMARK VINA RESULT:      -6.3      2.857      6.623
REMARK  Name = 
REMARK  4 active torsions:
REMARK  status: ('A' for Active; 'I' for Inactive)
REMARK    1  A    between atoms: C_1  and  O_2
REMARK    2  A    between atoms: O_2  and  C_3
REMARK    3  A    between atoms: C_6  and  N_7
REMARK    4  A    between atoms: C_10  and  C_11
REMARK                            x       y       z     vdW  Elec       q    Type
REMARK                         _______ _______ _______ _____ _____    ______ ____
ROOT
ATOM      1  N   UNL     1       2.348   5.994  20.641  0.00  0.00    +0.000 N 
ATOM      2  C   UNL     1       3.160   5.133  19.976  0.00  0.00    +0.000 A 
ATOM      3  N   UNL     1       4.004   5.433  19.018  0.00  0.00    +0.000 NA
ATOM      4  C   UNL     1       4.526   4.301  18.431  0.00  0.00    +0.000 A 
ATOM      5  C   UNL     1       4.135   3.118  19.015  0.00  0.00    +0.000 A 
ATOM      6  S   UNL     1       3.089   3.442  20.337  0.00  0.00    +0.000 S 
ATOM      7  H   UNL     1       1.702   5.566  21.293  0.00  0.00    +0.000 HD
ENDROOT
BRANCH   1  11
ATOM      8  C   UNL     1       1.175   9.780  19.127  0.00  0.00    +0.000 A 
ATOM      9  C   UNL     1       1.838   8.852  18.325  0.00  0.00    +0.000 A 
ATOM     10  C   UNL     1       2.187   7.595  18.831  0.00  0.00    +0.000 A 
ATOM     11  C   UNL     1       1.911   7.246  20.160  0.00  0.00    +0.000 A 
ATOM     12  C   UNL     1       1.229   8.188  20.944  0.00  0.00    +0.000 A 
ATOM     13  C   UNL     1       0.874   9.445  20.443  0.00  0.00    +0.000 A 
BRANCH   8  15
ATOM     14  C   UNL     1       1.961  11.932  18.570  0.00  0.00    +0.000 C 
ATOM     15  O   UNL     1       0.903  10.980  18.534  0.00  0.00    +0.000 OA
ENDBRANCH   8  15
ENDBRANCH   1  11
BRANCH   4  16
ATOM     16  C   UNL     1       5.407   4.428  17.228  0.00  0.00    +0.000 A 
ATOM     17  C   UNL     1       4.940   4.239  15.944  0.00  0.00    +0.000 A 
ATOM     18  C   UNL     1       5.976   4.357  14.969  0.00  0.00    +0.000 A 
ATOM     19  C   UNL     1       7.193   4.635  15.550  0.00  0.00    +0.000 A 
ATOM     20  S   UNL     1       7.076   4.780  17.252  0.00  0.00    +0.000 S 
ENDBRANCH   4  16
TORSDOF 3
ENDMDL
MODEL 7
REMARK VINA RESULT:      -6.2      3.001      6.842
REMARK  Name = 
REMARK  4 active torsions:
REMARK  status: ('A' for Active; 'I' for Inactive)
REMARK    1  A    between atoms: C_1  and  O_2
REMARK    2  A    between atoms: O_2  and  C_3
REMARK    3  A    between atoms: C_6  and  N_7
REMARK    4  A    between atoms: C_10  and  C_11
REMARK                            x       y       z     vdW  Elec       q    Type
REMARK                         _______ _______ _______ _____ _____    ______ ____
ROOT
ATOM      1  N   UNL     1       2.075   6.099  20.750  0.00  0.00    +0.000 N 
ATOM      2  C   UNL     1       2.910   5.189  20.185  0.00  0.00    +0.000 A 
ATOM      3  N   UNL     1       3.893   5.438  19.353  0.00  0.00    +0.000 NA
ATOM      4  C   UNL     1       4.412   4.277  18.823  0.00  0.00    +0.000 A 
ATOM      5  C   UNL     1       3.868   3.119  19.329  0.00  0.00    +0.000 A 
ATOM      6  S   UNL     1       2.678   3.504  20.505  0.00  0.00    +0.000 S 
ATOM      7  H   UNL     1       1.321   5.711  21.302  0.00  0.00    +0.000 HD
ENDROOT
BRANCH   1  11
ATOM      8  C   UNL     1       1.082   9.948  19.270  0.00  0.00    +0.000 A 
ATOM      9  C   UNL     1       0.793   9.580  20.582  0.00  0.00    +0.000 A 
ATOM     10  C   UNL     1       1.158   8.318  21.065  0.00  0.00    +0.000 A 
ATOM     11  C   UNL     1       1.793   7.382  20.237  0.00  0.00    +0.000 A 
ATOM     12  C   UNL     1       2.089   7.779  18.925  0.00  0.00    +0.000 A 
ATOM     13  C   UNL     1       1.729   9.041  18.438  0.00  0.00    +0.000 A 
BRANCH   8  15
ATOM     14  C   UNL     1      -0.746  11.406  18.964  0.00  0.00    +0.000 C 
ATOM     15  O   UNL     1       0.660  11.195  18.902  0.00  0.00    +0.000 OA
ENDBRANCH   8  15
ENDBRANCH   1  11
BRANCH   4  16
ATOM     16  C   UNL     1       5.454   4.352  17.750  0.00  0.00    +0.000 A 
ATOM     17  C   UNL     1       6.774   4.649  18.018  0.00  0.00    +0.000 A 
ATOM     18  C   UNL     1       7.564   4.718  16.831  0.00  0.00    +0.000 A 
ATOM     19  C   UNL     1       6.813   4.468  15.704  0.00  0.00    +0.000 A 
ATOM     20  S   UNL     1       5.179   4.125  16.082  0.00  0.00    +0.000 S 
ENDBRANCH   4  16
TORSDOF 3
ENDMDL
MODEL 8
REMARK VINA RESULT:      -6.0      3.209      4.588
REMARK  Name = 
REMARK  4 active torsions:
REMARK  status: ('A' for Active; 'I' for Inactive)
REMARK    1  A    between atoms: C_1  and  O_2
REMARK    2  A    between atoms: O_2  and  C_3
REMARK    3  A    between atoms: C_6  and  N_7
REMARK    4  A    between atoms: C_10  and  C_11
REMARK                            x       y       z     vdW  Elec       q    Type
REMARK                         _______ _______ _______ _____ _____    ______ ____
ROOT
ATOM      1  N   UNL     1       7.461   5.167  15.666  0.00  0.00    +0.000 N 
ATOM      2  C   UNL     1       6.900   5.174  16.902  0.00  0.00    +0.000 A 
ATOM      3  N   UNL     1       5.960   4.371  17.341  0.00  0.00    +0.000 NA
ATOM      4  C   UNL     1       5.485   4.773  18.570  0.00  0.00    +0.000 A 
ATOM      5  C   UNL     1       6.138   5.856  19.114  0.00  0.00    +0.000 A 
ATOM      6  S   UNL     1       7.383   6.374  18.051  0.00  0.00    +0.000 S 
ATOM      7  H   UNL     1       8.113   5.919  15.481  0.00  0.00    +0.000 HD
ENDROOT
BRANCH   1  11
ATOM      8  C   UNL     1       5.623   3.460  12.244  0.00  0.00    +0.000 A 
ATOM      9  C   UNL     1       4.948   3.552  13.459  0.00  0.00    +0.000 A 
ATOM     10  C   UNL     1       5.556   4.149  14.569  0.00  0.00    +0.000 A 
ATOM     11  C   UNL     1       6.868   4.639  14.500  0.00  0.00    +0.000 A 
ATOM     12  C   UNL     1       7.523   4.551  13.263  0.00  0.00    +0.000 A 
ATOM     13  C   UNL     1       6.918   3.959  12.149  0.00  0.00    +0.000 A 
BRANCH   8  15
ATOM     14  C   UNL     1       3.656   3.381  10.946  0.00  0.00    +0.000 C 
ATOM     15  O   UNL     1       4.940   2.840  11.237  0.00  0.00    +0.000 OA
ENDBRANCH   8  15
ENDBRANCH   1  11
BRANCH   4  16
ATOM     16  C   UNL     1       4.316   4.065  19.182  0.00  0.00    +0.000 A 
ATOM     17  C   UNL     1       3.102   4.685  19.395  0.00  0.00    +0.000 A 
ATOM     18  C   UNL     1       2.163   3.826  20.040  0.00  0.00    +0.000 A 
ATOM     19  C   UNL     1       2.698   2.583  20.291  0.00  0.00    +0.000 A 
ATOM     20  S   UNL     1       4.309   2.449  19.727  0.00  0.00    +0.000 S 
ENDBRANCH   4  16
TORSDOF 3
ENDMDL
MODEL 9
REMARK VINA RESULT:      -5.9      3.783      5.975
REMARK  Name = 
REMARK  4 active torsions:
REMARK  status: ('A' for Active; 'I' for Inactive)
REMARK    1  A    between atoms: C_1  and  O_2
REMARK    2  A    between atoms: O_2  and  C_3
REMARK    3  A    between atoms: C_6  and  N_7
REMARK    4  A    between atoms: C_10  and  C_11
REMARK                            x       y       z     vdW  Elec       q    Type
REMARK                         _______ _______ _______ _____ _____    ______ ____
ROOT
ATOM      1  N   UNL     1       1.525   8.837  20.712  0.00  0.00    +0.000 N 
ATOM      2  C   UNL     1       0.599   9.745  20.308  0.00  0.00    +0.000 A 
ATOM      3  N   UNL     1      -0.404   9.531  19.491  0.00  0.00    +0.000 NA
ATOM      4  C   UNL     1      -1.031  10.707  19.142  0.00  0.00    +0.000 A 
ATOM      5  C   UNL     1      -0.546  11.828  19.775  0.00  0.00    +0.000 A 
ATOM      6  S   UNL     1       0.726  11.387  20.839  0.00  0.00    +0.000 S 
ATOM      7  H   UNL     1       2.277   9.207  21.279  0.00  0.00    +0.000 HD
ENDROOT
BRANCH   1  11
ATOM      8  C   UNL     1       2.637   5.237  18.763  0.00  0.00    +0.000 A 
ATOM      9  C   UNL     1       2.061   5.226  20.032  0.00  0.00    +0.000 A 
ATOM     10  C   UNL     1       1.668   6.420  20.646  0.00  0.00    +0.000 A 
ATOM     11  C   UNL     1       1.872   7.658  20.020  0.00  0.00    +0.000 A 
ATOM     12  C   UNL     1       2.438   7.645  18.736  0.00  0.00    +0.000 A 
ATOM     13  C   UNL     1       2.829   6.453  18.116  0.00  0.00    +0.000 A 
BRANCH   8  15
ATOM     14  C   UNL     1       4.132   4.015  17.409  0.00  0.00    +0.000 C 
ATOM     15  O   UNL     1       2.999   4.015  18.271  0.00  0.00    +0.000 OA
ENDBRANCH   8  15
ENDBRANCH   1  11
BRANCH   4  16
ATOM     16  C   UNL     1      -2.118  10.691  18.112  0.00  0.00    +0.000 A 
ATOM     17  C   UNL     1      -2.014   9.980  16.935  0.00  0.00    +0.000 A 
ATOM     18  C   UNL     1      -3.149  10.164  16.090  0.00  0.00    +0.000 A 
ATOM     19  C   UNL     1      -4.076  11.008  16.659  0.00  0.00    +0.000 A 
ATOM     20  S   UNL     1      -3.591  11.546  18.210  0.00  0.00    +0.000 S 
ENDBRANCH   4  16
TORSDOF 3
ENDMDL
