MODEL 1
REMARK VINA RESULT:      -5.7      0.000      0.000
REMARK  Name = 
REMARK  3 active torsions:
REMARK  status: ('A' for Active; 'I' for Inactive)
REMARK    1  A    between atoms: C_1  and  N_2
REMARK    2  A    between atoms: N_2  and  C_3
REMARK    3  A    between atoms: N_2  and  C_4
REMARK                            x       y       z     vdW  Elec       q    Type
REMARK                         _______ _______ _______ _____ _____    ______ ____
ROOT
ATOM      1  C   UNL     1       4.422   3.803  18.233  0.00  0.00    +0.000 C 
ATOM      2  C   UNL     1       3.217   3.578  17.270  0.00  0.00    +0.000 C 
ATOM      3  C   UNL     1       1.826   3.824  17.879  0.00  0.00    +0.000 C 
ATOM      4  C   UNL     1       1.765   3.370  19.293  0.00  0.00    +0.000 A 
ATOM      5  N   UNL     1       0.650   3.401  20.026  0.00  0.00    +0.000 NA
ATOM      6  N   UNL     1       1.061   2.993  21.242  0.00  0.00    +0.000 N 
ATOM      7  C   UNL     1       2.393   2.696  21.298  0.00  0.00    +0.000 A 
ATOM      8  C   UNL     1       2.888   2.950  20.044  0.00  0.00    +0.000 A 
ATOM      9  C   UNL     1       4.269   2.895  19.495  0.00  0.00    +0.000 C 
ATOM     10  H   UNL     1       0.381   2.961  21.992  0.00  0.00    +0.000 HD
ENDROOT
BRANCH   1  12
ATOM     11  C   UNL     1       6.102   5.312  19.200  0.00  0.00    +0.000 C 
ATOM     12  N   UNL     1       4.798   5.204  18.551  0.00  0.00    +0.000 NA
ATOM     13  C   UNL     1       4.679   6.180  17.473  0.00  0.00    +0.000 C 
ENDBRANCH   1  12
TORSDOF 1
ENDMDL
MODEL 2
REMARK VINA RESULT:      -5.5      2.504      5.318
REMARK  Name = 
REMARK  3 active torsions:
REMARK  status: ('A' for Active; 'I' for Inactive)
REMARK    1  A    between atoms: C_1  and  N_2
REMARK    2  A    between atoms: N_2  and  C_3
REMARK    3  A    between atoms: N_2  and  C_4
REMARK                            x       y       z     vdW  Elec       q    Type
REMARK                         _______ _______ _______ _____ _____    ______ ____
ROOT
ATOM      1  C   UNL     1       4.289   4.347  18.278  0.00  0.00    +0.000 C 
ATOM      2  C   UNL     1       5.510   4.877  19.090  0.00  0.00    +0.000 C 
ATOM      3  C   UNL     1       6.467   5.803  18.320  0.00  0.00    +0.000 C 
ATOM      4  C   UNL     1       6.623   5.368  16.907  0.00  0.00    +0.000 A 
ATOM      5  N   UNL     1       7.457   5.956  16.046  0.00  0.00    +0.000 NA
ATOM      6  N   UNL     1       7.217   5.315  14.887  0.00  0.00    +0.000 N 
ATOM      7  C   UNL     1       6.269   4.336  14.990  0.00  0.00    +0.000 A 
ATOM      8  C   UNL     1       5.846   4.357  16.294  0.00  0.00    +0.000 A 
ATOM      9  C   UNL     1       4.787   3.592  17.005  0.00  0.00    +0.000 C 
ATOM     10  H   UNL     1       7.723   5.611  14.061  0.00  0.00    +0.000 HD
ENDROOT
BRANCH   1  12
ATOM     11  C   UNL     1       1.904   4.620  17.760  0.00  0.00    +0.000 C 
ATOM     12  N   UNL     1       3.176   5.292  18.012  0.00  0.00    +0.000 NA
ATOM     13  C   UNL     1       2.999   6.387  18.960  0.00  0.00    +0.000 C 
ENDBRANCH   1  12
TORSDOF 1
ENDMDL
MODEL 3
REMARK VINA RESULT:      -5.5      2.216      4.889
REMARK  Name = 
REMARK  3 active torsions:
REMARK  status: ('A' for Active; 'I' for Inactive)
REMARK    1  A    between atoms: C_1  and  N_2
REMARK    2  A    between atoms: N_2  and  C_3
REMARK    3  A    between atoms: N_2  and  C_4
REMARK                            x       y       z     vdW  Elec       q    Type
REMARK                         _______ _______ _______ _____ _____    ______ ____
ROOT
ATOM      1  C   UNL     1       3.802   4.516  18.839  0.00  0.00    +0.000 C 
ATOM      2  C   UNL     1       3.552   6.052  18.734  0.00  0.00    +0.000 C 
ATOM      3  C   UNL     1       4.172   6.743  17.507  0.00  0.00    +0.000 C 
ATOM      4  C   UNL     1       5.498   6.163  17.171  0.00  0.00    +0.000 A 
ATOM      5  N   UNL     1       6.280   6.634  16.196  0.00  0.00    +0.000 NA
ATOM      6  N   UNL     1       7.318   5.776  16.182  0.00  0.00    +0.000 N 
ATOM      7  C   UNL     1       7.224   4.788  17.120  0.00  0.00    +0.000 A 
ATOM      8  C   UNL     1       6.036   5.000  17.772  0.00  0.00    +0.000 A 
ATOM      9  C   UNL     1       5.337   4.228  18.834  0.00  0.00    +0.000 C 
ATOM     10  H   UNL     1       8.045   5.915  15.491  0.00  0.00    +0.000 HD
ENDROOT
BRANCH   1  12
ATOM     11  C   UNL     1       3.386   2.220  18.074  0.00  0.00    +0.000 C 
ATOM     12  N   UNL     1       3.027   3.629  17.936  0.00  0.00    +0.000 NA
ATOM     13  C   UNL     1       1.577   3.792  17.935  0.00  0.00    +0.000 C 
ENDBRANCH   1  12
TORSDOF 1
ENDMDL
MODEL 4
REMARK VINA RESULT:      -5.5      1.989      4.972
REMARK  Name = 
REMARK  3 active torsions:
REMARK  status: ('A' for Active; 'I' for Inactive)
REMARK    1  A    between atoms: C_1  and  N_2
REMARK    2  A    between atoms: N_2  and  C_3
REMARK    3  A    between atoms: N_2  and  C_4
REMARK                            x       y       z     vdW  Elec       q    Type
REMARK                         _______ _______ _______ _____ _____    ______ ____
ROOT
ATOM      1  C   UNL     1       3.904   5.481  18.602  0.00  0.00    +0.000 C 
ATOM      2  C   UNL     1       3.918   6.689  17.616  0.00  0.00    +0.000 C 
ATOM      3  C   UNL     1       4.798   6.514  16.366  0.00  0.00    +0.000 C 
ATOM      4  C   UNL     1       6.047   5.774  16.681  0.00  0.00    +0.000 A 
ATOM      5  N   UNL     1       7.016   5.556  15.789  0.00  0.00    +0.000 NA
ATOM      6  N   UNL     1       7.897   4.790  16.461  0.00  0.00    +0.000 N 
ATOM      7  C   UNL     1       7.523   4.527  17.748  0.00  0.00    +0.000 A 
ATOM      8  C   UNL     1       6.307   5.140  17.919  0.00  0.00    +0.000 A 
ATOM      9  C   UNL     1       5.360   5.158  19.065  0.00  0.00    +0.000 C 
ATOM     10  H   UNL     1       8.722   4.466  15.971  0.00  0.00    +0.000 HD
ENDROOT
BRANCH   1  12
ATOM     11  C   UNL     1       3.324   3.150  19.113  0.00  0.00    +0.000 C 
ATOM     12  N   UNL     1       3.125   4.280  18.210  0.00  0.00    +0.000 NA
ATOM     13  C   UNL     1       1.704   4.475  17.938  0.00  0.00    +0.000 C 
ENDBRANCH   1  12
TORSDOF 1
ENDMDL
MODEL 5
REMARK VINA RESULT:      -5.4      2.085      4.760
REMARK  Name = 
REMARK  3 active torsions:
REMARK  status: ('A' for Active; 'I' for Inactive)
REMARK    1  A    between atoms: C_1  and  N_2
REMARK    2  A    between atoms: N_2  and  C_3
REMARK    3  A    between atoms: N_2  and  C_4
REMARK                            x       y       z     vdW  Elec       q    Type
REMARK                         _______ _______ _______ _____ _____    ______ ____
ROOT
ATOM      1  C   UNL     1       3.872   4.179  18.889  0.00  0.00    +0.000 C 
ATOM      2  C   UNL     1       3.415   4.496  17.432  0.00  0.00    +0.000 C 
ATOM      3  C   UNL     1       4.427   4.145  16.328  0.00  0.00    +0.000 C 
ATOM      4  C   UNL     1       5.822   4.417  16.765  0.00  0.00    +0.000 A 
ATOM      5  N   UNL     1       6.882   4.270  15.967  0.00  0.00    +0.000 NA
ATOM      6  N   UNL     1       7.925   4.531  16.779  0.00  0.00    +0.000 N 
ATOM      7  C   UNL     1       7.559   4.849  18.055  0.00  0.00    +0.000 A 
ATOM      8  C   UNL     1       6.190   4.765  18.086  0.00  0.00    +0.000 A 
ATOM      9  C   UNL     1       5.212   4.919  19.196  0.00  0.00    +0.000 C 
ATOM     10  H   UNL     1       8.860   4.454  16.397  0.00  0.00    +0.000 HD
ENDROOT
BRANCH   1  12
ATOM     11  C   UNL     1       3.454   2.586  20.711  0.00  0.00    +0.000 C 
ATOM     12  N   UNL     1       3.864   2.759  19.320  0.00  0.00    +0.000 NA
ATOM     13  C   UNL     1       3.165   1.811  18.458  0.00  0.00    +0.000 C 
ENDBRANCH   1  12
TORSDOF 1
ENDMDL
MODEL 6
REMARK VINA RESULT:      -5.3      1.521      2.140
REMARK  Name = 
REMARK  3 active torsions:
REMARK  status: ('A' for Active; 'I' for Inactive)
REMARK    1  A    between atoms: C_1  and  N_2
REMARK    2  A    between atoms: N_2  and  C_3
REMARK    3  A    between atoms: N_2  and  C_4
REMARK                            x       y       z     vdW  Elec       q    Type
REMARK                         _______ _______ _______ _____ _____    ______ ____
ROOT
ATOM      1  C   UNL     1       3.662   5.055  17.505  0.00  0.00    +0.000 C 
ATOM      2  C   UNL     1       3.066   6.284  18.259  0.00  0.00    +0.000 C 
ATOM      3  C   UNL     1       2.430   5.978  19.626  0.00  0.00    +0.000 C 
ATOM      4  C   UNL     1       1.718   4.674  19.614  0.00  0.00    +0.000 A 
ATOM      5  N   UNL     1       1.017   4.211  20.651  0.00  0.00    +0.000 NA
ATOM      6  N   UNL     1       0.627   2.987  20.246  0.00  0.00    +0.000 N 
ATOM      7  C   UNL     1       1.047   2.668  18.987  0.00  0.00    +0.000 A 
ATOM      8  C   UNL     1       1.780   3.742  18.551  0.00  0.00    +0.000 A 
ATOM      9  C   UNL     1       2.557   3.970  17.303  0.00  0.00    +0.000 C 
ATOM     10  H   UNL     1       0.092   2.417  20.891  0.00  0.00    +0.000 HD
ENDROOT
BRANCH   1  12
ATOM     11  C   UNL     1       5.907   4.251  16.918  0.00  0.00    +0.000 C 
ATOM     12  N   UNL     1       4.951   4.506  17.993  0.00  0.00    +0.000 NA
ATOM     13  C   UNL     1       5.596   5.215  19.094  0.00  0.00    +0.000 C 
ENDBRANCH   1  12
TORSDOF 1
ENDMDL
MODEL 7
REMARK VINA RESULT:      -5.3      1.979      4.698
REMARK  Name = 
REMARK  3 active torsions:
REMARK  status: ('A' for Active; 'I' for Inactive)
REMARK    1  A    between atoms: C_1  and  N_2
REMARK    2  A    between atoms: N_2  and  C_3
REMARK    3  A    between atoms: N_2  and  C_4
REMARK                            x       y       z     vdW  Elec       q    Type
REMARK                         _______ _______ _______ _____ _____    ______ ____
ROOT
ATOM      1  C   UNL     1       3.668   4.385  18.006  0.00  0.00    +0.000 C 
ATOM      2  C   UNL     1       4.218   4.420  16.547  0.00  0.00    +0.000 C 
ATOM      3  C   UNL     1       5.711   4.081  16.392  0.00  0.00    +0.000 C 
ATOM      4  C   UNL     1       6.510   4.627  17.521  0.00  0.00    +0.000 A 
ATOM      5  N   UNL     1       7.840   4.538  17.588  0.00  0.00    +0.000 NA
ATOM      6  N   UNL     1       8.131   5.071  18.790  0.00  0.00    +0.000 N 
ATOM      7  C   UNL     1       7.033   5.502  19.477  0.00  0.00    +0.000 A 
ATOM      8  C   UNL     1       5.953   5.209  18.684  0.00  0.00    +0.000 A 
ATOM      9  C   UNL     1       4.490   5.361  18.905  0.00  0.00    +0.000 C 
ATOM     10  H   UNL     1       9.100   5.089  19.084  0.00  0.00    +0.000 HD
ENDROOT
BRANCH   1  12
ATOM     11  C   UNL     1       3.036   3.139  20.026  0.00  0.00    +0.000 C 
ATOM     12  N   UNL     1       3.441   3.055  18.625  0.00  0.00    +0.000 NA
ATOM     13  C   UNL     1       2.581   2.127  17.897  0.00  0.00    +0.000 C 
ENDBRANCH   1  12
TORSDOF 1
ENDMDL
MODEL 8
REMARK VINA RESULT:      -5.3      1.508      4.321
REMARK  Name = 
REMARK  3 active torsions:
REMARK  status: ('A' for Active; 'I' for Inactive)
REMARK    1  A    between atoms: C_1  and  N_2
REMARK    2  A    between atoms: N_2  and  C_3
REMARK    3  A    between atoms: N_2  and  C_4
REMARK                            x       y       z     vdW  Elec       q    Type
REMARK                         _______ _______ _______ _____ _____    ______ ____
ROOT
ATOM      1  C   UNL     1       1.633   3.656  18.879  0.00  0.00    +0.000 C 
ATOM      2  C   UNL     1       2.096   2.385  18.104  0.00  0.00    +0.000 C 
ATOM      3  C   UNL     1       3.592   2.334  17.748  0.00  0.00    +0.000 C 
ATOM      4  C   UNL     1       4.109   3.679  17.384  0.00  0.00    +0.000 A 
ATOM      5  N   UNL     1       5.357   3.895  16.961  0.00  0.00    +0.000 NA
ATOM      6  N   UNL     1       5.418   5.235  16.834  0.00  0.00    +0.000 N 
ATOM      7  C   UNL     1       4.251   5.868  17.151  0.00  0.00    +0.000 A 
ATOM      8  C   UNL     1       3.378   4.881  17.533  0.00  0.00    +0.000 A 
ATOM      9  C   UNL     1       1.988   4.936  18.059  0.00  0.00    +0.000 C 
ATOM     10  H   UNL     1       6.297   5.649  16.545  0.00  0.00    +0.000 HD
ENDROOT
BRANCH   1  12
ATOM     11  C   UNL     1       1.874   5.111  20.843  0.00  0.00    +0.000 C 
ATOM     12  N   UNL     1       1.988   3.754  20.317  0.00  0.00    +0.000 NA
ATOM     13  C   UNL     1       1.353   2.799  21.220  0.00  0.00    +0.000 C 
ENDBRANCH   1  12
TORSDOF 1
ENDMDL
MODEL 9
REMARK VINA RESULT:      -5.3      2.083      5.097
REMARK  Name = 
REMARK  3 active torsions:
REMARK  status: ('A' for Active; 'I' for Inactive)
REMARK    1  A    between atoms: C_1  and  N_2
REMARK    2  A    between atoms: N_2  and  C_3
REMARK    3  A    between atoms: N_2  and  C_4
REMARK                            x       y       z     vdW  Elec       q    Type
REMARK                         _______ _______ _______ _____ _____    ______ ____
ROOT
ATOM      1  C   UNL     1       3.556   4.815  17.875  0.00  0.00    +0.000 C 
ATOM      2  C   UNL     1       3.951   3.911  16.667  0.00  0.00    +0.000 C 
ATOM      3  C   UNL     1       5.454   3.848  16.349  0.00  0.00    +0.000 C 
ATOM      4  C   UNL     1       6.109   5.166  16.560  0.00  0.00    +0.000 A 
ATOM      5  N   UNL     1       7.394   5.400  16.282  0.00  0.00    +0.000 NA
ATOM      6  N   UNL     1       7.581   6.667  16.700  0.00  0.00    +0.000 N 
ATOM      7  C   UNL     1       6.457   7.243  17.220  0.00  0.00    +0.000 A 
ATOM      8  C   UNL     1       5.480   6.282  17.161  0.00  0.00    +0.000 A 
ATOM      9  C   UNL     1       4.071   6.270  17.639  0.00  0.00    +0.000 C 
ATOM     10  H   UNL     1       8.508   7.067  16.617  0.00  0.00    +0.000 HD
ENDROOT
BRANCH   1  12
ATOM     11  C   UNL     1       2.927   4.842  20.249  0.00  0.00    +0.000 C 
ATOM     12  N   UNL     1       3.833   4.301  19.240  0.00  0.00    +0.000 NA
ATOM     13  C   UNL     1       3.960   2.854  19.387  0.00  0.00    +0.000 C 
ENDBRANCH   1  12
TORSDOF 1
ENDMDL
