MODEL 1
REMARK VINA RESULT:      -8.1      0.000      0.000
REMARK  Name = 
REMARK  5 active torsions:
REMARK  status: ('A' for Active; 'I' for Inactive)
REMARK    1  A    between atoms: C_1  and  C_2
REMARK    2  A    between atoms: C_2  and  O_3
REMARK    3  A    between atoms: O_3  and  C_4
REMARK    4  A    between atoms: C_4  and  C_6
REMARK    5  A    between atoms: C_7  and  C_8
REMARK                            x       y       z     vdW  Elec       q    Type
REMARK                         _______ _______ _______ _____ _____    ______ ____
ROOT
ATOM      1  C   UNL     1       3.620   4.768  18.910  0.00  0.00    +0.000 A 
ATOM      2  C   UNL     1       2.845   5.464  19.787  0.00  0.00    +0.000 A 
ATOM      3  C   UNL     1       2.389   4.870  21.104  0.00  0.00    +0.000 C 
ATOM      4  N   UNL     1       2.457   6.772  19.509  0.00  0.00    +0.000 N 
ATOM      5  C   UNL     1       1.563   7.661  20.145  0.00  0.00    +0.000 A 
ATOM      6  C   UNL     1       0.787   7.532  21.291  0.00  0.00    +0.000 A 
ATOM      7  C   UNL     1      -0.017   8.609  21.706  0.00  0.00    +0.000 A 
ATOM      8  C   UNL     1      -0.074   9.800  20.970  0.00  0.00    +0.000 A 
ATOM      9  C   UNL     1       0.682   9.943  19.813  0.00  0.00    +0.000 A 
ATOM     10  C   UNL     1       1.481   8.868  19.445  0.00  0.00    +0.000 A 
ATOM     11  C   UNL     1       2.343   8.735  18.273  0.00  0.00    +0.000 A 
ATOM     12  O   UNL     1       2.464   9.623  17.446  0.00  0.00    +0.000 OA
ATOM     13  N   UNL     1       2.889   7.460  18.347  0.00  0.00    +0.000 N 
ATOM     14  C   UNL     1       3.752   6.806  17.439  0.00  0.00    +0.000 A 
ATOM     15  C   UNL     1       4.230   7.486  16.292  0.00  0.00    +0.000 A 
ATOM     16  C   UNL     1       5.077   6.866  15.377  0.00  0.00    +0.000 A 
ATOM     17  C   UNL     1       5.414   5.558  15.621  0.00  0.00    +0.000 A 
ATOM     18  C   UNL     1       4.944   4.866  16.720  0.00  0.00    +0.000 A 
ATOM     19  C   UNL     1       4.122   5.457  17.684  0.00  0.00    +0.000 A 
ATOM     20  O   UNL     1       5.383   3.575  16.688  0.00  0.00    +0.000 OA
ATOM     21  C   UNL     1       6.272   3.582  15.559  0.00  0.00    +0.000 C 
ATOM     22  O   UNL     1       6.224   4.813  14.820  0.00  0.00    +0.000 OA
ENDROOT
BRANCH   1  23
ATOM     23  C   UNL     1       3.890   3.322  19.183  0.00  0.00    +0.000 C 
ATOM     24  O   UNL     1       4.797   2.863  19.857  0.00  0.00    +0.000 OA
BRANCH  23  25
ATOM     25  O   UNL     1       2.961   2.606  18.500  0.00  0.00    +0.000 OA
BRANCH  25  27
ATOM     26  C   UNL     1       0.664   2.470  18.810  0.00  0.00    +0.000 C 
ATOM     27  C   UNL     1       1.985   1.869  19.240  0.00  0.00    +0.000 C 
ENDBRANCH  25  27
ENDBRANCH  23  25
ENDBRANCH   1  23
TORSDOF 3
ENDMDL
MODEL 2
REMARK VINA RESULT:      -6.8      1.666      4.447
REMARK  Name = 
REMARK  5 active torsions:
REMARK  status: ('A' for Active; 'I' for Inactive)
REMARK    1  A    between atoms: C_1  and  C_2
REMARK    2  A    between atoms: C_2  and  O_3
REMARK    3  A    between atoms: O_3  and  C_4
REMARK    4  A    between atoms: C_4  and  C_6
REMARK    5  A    between atoms: C_7  and  C_8
REMARK                            x       y       z     vdW  Elec       q    Type
REMARK                         _______ _______ _______ _____ _____    ______ ____
ROOT
ATOM      1  C   UNL     1       3.902   5.774  18.121  0.00  0.00    +0.000 A 
ATOM      2  C   UNL     1       3.450   7.030  17.854  0.00  0.00    +0.000 A 
ATOM      3  C   UNL     1       3.887   7.796  16.622  0.00  0.00    +0.000 C 
ATOM      4  N   UNL     1       2.542   7.655  18.704  0.00  0.00    +0.000 N 
ATOM      5  C   UNL     1       2.027   8.969  18.757  0.00  0.00    +0.000 A 
ATOM      6  C   UNL     1       2.236  10.078  17.947  0.00  0.00    +0.000 A 
ATOM      7  C   UNL     1       1.565  11.281  18.235  0.00  0.00    +0.000 A 
ATOM      8  C   UNL     1       0.710  11.390  19.340  0.00  0.00    +0.000 A 
ATOM      9  C   UNL     1       0.499  10.296  20.171  0.00  0.00    +0.000 A 
ATOM     10  C   UNL     1       1.161   9.119  19.844  0.00  0.00    +0.000 A 
ATOM     11  C   UNL     1       1.147   7.842  20.552  0.00  0.00    +0.000 A 
ATOM     12  O   UNL     1       0.498   7.664  21.569  0.00  0.00    +0.000 OA
ATOM     13  N   UNL     1       2.001   7.006  19.843  0.00  0.00    +0.000 N 
ATOM     14  C   UNL     1       2.384   5.676  20.126  0.00  0.00    +0.000 A 
ATOM     15  C   UNL     1       1.826   4.992  21.235  0.00  0.00    +0.000 A 
ATOM     16  C   UNL     1       2.188   3.683  21.541  0.00  0.00    +0.000 A 
ATOM     17  C   UNL     1       3.126   3.086  20.736  0.00  0.00    +0.000 A 
ATOM     18  C   UNL     1       3.700   3.739  19.663  0.00  0.00    +0.000 A 
ATOM     19  C   UNL     1       3.343   5.039  19.295  0.00  0.00    +0.000 A 
ATOM     20  O   UNL     1       4.638   2.942  19.073  0.00  0.00    +0.000 OA
ATOM     21  C   UNL     1       4.481   1.705  19.787  0.00  0.00    +0.000 C 
ATOM     22  O   UNL     1       3.588   1.818  20.907  0.00  0.00    +0.000 OA
ENDROOT
BRANCH   1  23
ATOM     23  C   UNL     1       4.983   5.203  17.260  0.00  0.00    +0.000 C 
ATOM     24  O   UNL     1       4.836   4.519  16.260  0.00  0.00    +0.000 OA
BRANCH  23  25
ATOM     25  O   UNL     1       6.168   5.548  17.825  0.00  0.00    +0.000 OA
BRANCH  25  27
ATOM     26  C   UNL     1       7.524   7.418  17.594  0.00  0.00    +0.000 C 
ATOM     27  C   UNL     1       7.200   6.071  16.985  0.00  0.00    +0.000 C 
ENDBRANCH  25  27
ENDBRANCH  23  25
ENDBRANCH   1  23
TORSDOF 3
ENDMDL
MODEL 3
REMARK VINA RESULT:      -6.7      1.609      4.291
REMARK  Name = 
REMARK  5 active torsions:
REMARK  status: ('A' for Active; 'I' for Inactive)
REMARK    1  A    between atoms: C_1  and  C_2
REMARK    2  A    between atoms: C_2  and  O_3
REMARK    3  A    between atoms: O_3  and  C_4
REMARK    4  A    between atoms: C_4  and  C_6
REMARK    5  A    between atoms: C_7  and  C_8
REMARK                            x       y       z     vdW  Elec       q    Type
REMARK                         _______ _______ _______ _____ _____    ______ ____
ROOT
ATOM      1  C   UNL     1       4.263   5.445  18.347  0.00  0.00    +0.000 A 
ATOM      2  C   UNL     1       3.806   6.667  17.958  0.00  0.00    +0.000 A 
ATOM      3  C   UNL     1       4.335   7.367  16.723  0.00  0.00    +0.000 C 
ATOM      4  N   UNL     1       2.808   7.316  18.681  0.00  0.00    +0.000 N 
ATOM      5  C   UNL     1       2.257   8.614  18.600  0.00  0.00    +0.000 A 
ATOM      6  C   UNL     1       2.512   9.676  17.741  0.00  0.00    +0.000 A 
ATOM      7  C   UNL     1       1.787  10.873  17.887  0.00  0.00    +0.000 A 
ATOM      8  C   UNL     1       0.832  11.025  18.901  0.00  0.00    +0.000 A 
ATOM      9  C   UNL     1       0.573   9.980  19.780  0.00  0.00    +0.000 A 
ATOM     10  C   UNL     1       1.292   8.806  19.593  0.00  0.00    +0.000 A 
ATOM     11  C   UNL     1       1.245   7.576  20.379  0.00  0.00    +0.000 A 
ATOM     12  O   UNL     1       0.509   7.443  21.342  0.00  0.00    +0.000 OA
ATOM     13  N   UNL     1       2.181   6.724  19.806  0.00  0.00    +0.000 N 
ATOM     14  C   UNL     1       2.569   5.426  20.210  0.00  0.00    +0.000 A 
ATOM     15  C   UNL     1       1.929   4.797  21.306  0.00  0.00    +0.000 A 
ATOM     16  C   UNL     1       2.295   3.522  21.729  0.00  0.00    +0.000 A 
ATOM     17  C   UNL     1       3.317   2.905  21.053  0.00  0.00    +0.000 A 
ATOM     18  C   UNL     1       3.971   3.506  19.995  0.00  0.00    +0.000 A 
ATOM     19  C   UNL     1       3.617   4.769  19.511  0.00  0.00    +0.000 A 
ATOM     20  O   UNL     1       4.979   2.703  19.546  0.00  0.00    +0.000 OA
ATOM     21  C   UNL     1       4.788   1.509  20.323  0.00  0.00    +0.000 C 
ATOM     22  O   UNL     1       3.794   1.665  21.348  0.00  0.00    +0.000 OA
ENDROOT
BRANCH   1  23
ATOM     23  C   UNL     1       5.433   4.854  17.626  0.00  0.00    +0.000 C 
ATOM     24  O   UNL     1       6.613   5.027  17.885  0.00  0.00    +0.000 OA
BRANCH  23  25
ATOM     25  O   UNL     1       4.940   4.125  16.594  0.00  0.00    +0.000 OA
BRANCH  25  27
ATOM     26  C   UNL     1       5.697   4.653  14.464  0.00  0.00    +0.000 C 
ATOM     27  C   UNL     1       5.846   3.655  15.592  0.00  0.00    +0.000 C 
ENDBRANCH  25  27
ENDBRANCH  23  25
ENDBRANCH   1  23
TORSDOF 3
ENDMDL
MODEL 4
REMARK VINA RESULT:      -6.6      0.761      1.316
REMARK  Name = 
REMARK  5 active torsions:
REMARK  status: ('A' for Active; 'I' for Inactive)
REMARK    1  A    between atoms: C_1  and  C_2
REMARK    2  A    between atoms: C_2  and  O_3
REMARK    3  A    between atoms: O_3  and  C_4
REMARK    4  A    between atoms: C_4  and  C_6
REMARK    5  A    between atoms: C_7  and  C_8
REMARK                            x       y       z     vdW  Elec       q    Type
REMARK                         _______ _______ _______ _____ _____    ______ ____
ROOT
ATOM      1  C   UNL     1       3.269   4.711  18.820  0.00  0.00    +0.000 A 
ATOM      2  C   UNL     1       2.515   5.428  19.698  0.00  0.00    +0.000 A 
ATOM      3  C   UNL     1       1.936   4.807  20.953  0.00  0.00    +0.000 C 
ATOM      4  N   UNL     1       2.263   6.779  19.480  0.00  0.00    +0.000 N 
ATOM      5  C   UNL     1       1.421   7.712  20.124  0.00  0.00    +0.000 A 
ATOM      6  C   UNL     1       0.576   7.595  21.221  0.00  0.00    +0.000 A 
ATOM      7  C   UNL     1      -0.148   8.718  21.660  0.00  0.00    +0.000 A 
ATOM      8  C   UNL     1      -0.056   9.948  20.994  0.00  0.00    +0.000 A 
ATOM      9  C   UNL     1       0.772  10.082  19.886  0.00  0.00    +0.000 A 
ATOM     10  C   UNL     1       1.488   8.959  19.494  0.00  0.00    +0.000 A 
ATOM     11  C   UNL     1       2.396   8.810  18.360  0.00  0.00    +0.000 A 
ATOM     12  O   UNL     1       2.642   9.726  17.593  0.00  0.00    +0.000 OA
ATOM     13  N   UNL     1       2.818   7.486  18.384  0.00  0.00    +0.000 N 
ATOM     14  C   UNL     1       3.665   6.805  17.481  0.00  0.00    +0.000 A 
ATOM     15  C   UNL     1       4.265   7.499  16.401  0.00  0.00    +0.000 A 
ATOM     16  C   UNL     1       5.099   6.852  15.493  0.00  0.00    +0.000 A 
ATOM     17  C   UNL     1       5.302   5.507  15.674  0.00  0.00    +0.000 A 
ATOM     18  C   UNL     1       4.712   4.804  16.706  0.00  0.00    +0.000 A 
ATOM     19  C   UNL     1       3.896   5.415  17.663  0.00  0.00    +0.000 A 
ATOM     20  O   UNL     1       5.032   3.481  16.619  0.00  0.00    +0.000 OA
ATOM     21  C   UNL     1       5.978   3.465  15.537  0.00  0.00    +0.000 C 
ATOM     22  O   UNL     1       6.083   4.734  14.871  0.00  0.00    +0.000 OA
ENDROOT
BRANCH   1  23
ATOM     23  C   UNL     1       3.390   3.233  19.019  0.00  0.00    +0.000 C 
ATOM     24  O   UNL     1       2.622   2.376  18.613  0.00  0.00    +0.000 OA
BRANCH  23  25
ATOM     25  O   UNL     1       4.493   3.022  19.781  0.00  0.00    +0.000 OA
BRANCH  25  27
ATOM     26  C   UNL     1       5.199   0.947  20.546  0.00  0.00    +0.000 C 
ATOM     27  C   UNL     1       4.384   2.165  20.921  0.00  0.00    +0.000 C 
ENDBRANCH  25  27
ENDBRANCH  23  25
ENDBRANCH   1  23
TORSDOF 3
ENDMDL
MODEL 5
REMARK VINA RESULT:      -6.6      7.320     10.504
REMARK  Name = 
REMARK  5 active torsions:
REMARK  status: ('A' for Active; 'I' for Inactive)
REMARK    1  A    between atoms: C_1  and  C_2
REMARK    2  A    between atoms: C_2  and  O_3
REMARK    3  A    between atoms: O_3  and  C_4
REMARK    4  A    between atoms: C_4  and  C_6
REMARK    5  A    between atoms: C_7  and  C_8
REMARK                            x       y       z     vdW  Elec       q    Type
REMARK                         _______ _______ _______ _____ _____    ______ ____
ROOT
ATOM      1  C   UNL     1      -1.559  12.248  21.201  0.00  0.00    +0.000 A 
ATOM      2  C   UNL     1      -1.542  11.548  20.034  0.00  0.00    +0.000 A 
ATOM      3  C   UNL     1      -0.367  10.679  19.634  0.00  0.00    +0.000 C 
ATOM      4  N   UNL     1      -2.628  11.592  19.164  0.00  0.00    +0.000 N 
ATOM      5  C   UNL     1      -2.826  11.101  17.854  0.00  0.00    +0.000 A 
ATOM      6  C   UNL     1      -2.003  10.375  17.003  0.00  0.00    +0.000 A 
ATOM      7  C   UNL     1      -2.478  10.002  15.732  0.00  0.00    +0.000 A 
ATOM      8  C   UNL     1      -3.757  10.372  15.298  0.00  0.00    +0.000 A 
ATOM      9  C   UNL     1      -4.591  11.111  16.128  0.00  0.00    +0.000 A 
ATOM     10  C   UNL     1      -4.098  11.443  17.383  0.00  0.00    +0.000 A 
ATOM     11  C   UNL     1      -4.739  12.230  18.433  0.00  0.00    +0.000 A 
ATOM     12  O   UNL     1      -5.858  12.700  18.309  0.00  0.00    +0.000 OA
ATOM     13  N   UNL     1      -3.815  12.306  19.468  0.00  0.00    +0.000 N 
ATOM     14  C   UNL     1      -3.911  12.992  20.700  0.00  0.00    +0.000 A 
ATOM     15  C   UNL     1      -5.101  13.678  21.045  0.00  0.00    +0.000 A 
ATOM     16  C   UNL     1      -5.222  14.367  22.249  0.00  0.00    +0.000 A 
ATOM     17  C   UNL     1      -4.131  14.372  23.082  0.00  0.00    +0.000 A 
ATOM     18  C   UNL     1      -2.952  13.729  22.758  0.00  0.00    +0.000 A 
ATOM     19  C   UNL     1      -2.795  12.995  21.579  0.00  0.00    +0.000 A 
ATOM     20  O   UNL     1      -2.018  13.942  23.729  0.00  0.00    +0.000 OA
ATOM     21  C   UNL     1      -2.771  14.644  24.732  0.00  0.00    +0.000 C 
ATOM     22  O   UNL     1      -4.089  15.003  24.287  0.00  0.00    +0.000 OA
ENDROOT
BRANCH   1  23
ATOM     23  C   UNL     1      -0.315  12.286  22.032  0.00  0.00    +0.000 C 
ATOM     24  O   UNL     1       0.742  12.821  21.740  0.00  0.00    +0.000 OA
BRANCH  23  25
ATOM     25  O   UNL     1      -0.564  11.570  23.158  0.00  0.00    +0.000 OA
BRANCH  25  27
ATOM     26  C   UNL     1       0.508   9.518  23.003  0.00  0.00    +0.000 C 
ATOM     27  C   UNL     1      -0.854  10.176  23.032  0.00  0.00    +0.000 C 
ENDBRANCH  25  27
ENDBRANCH  23  25
ENDBRANCH   1  23
TORSDOF 3
ENDMDL
MODEL 6
REMARK VINA RESULT:      -6.5      7.419     10.252
REMARK  Name = 
REMARK  5 active torsions:
REMARK  status: ('A' for Active; 'I' for Inactive)
REMARK    1  A    between atoms: C_1  and  C_2
REMARK    2  A    between atoms: C_2  and  O_3
REMARK    3  A    between atoms: O_3  and  C_4
REMARK    4  A    between atoms: C_4  and  C_6
REMARK    5  A    between atoms: C_7  and  C_8
REMARK                            x       y       z     vdW  Elec       q    Type
REMARK                         _______ _______ _______ _____ _____    ______ ____
ROOT
ATOM      1  C   UNL     1      -4.971  12.207  18.754  0.00  0.00    +0.000 A 
ATOM      2  C   UNL     1      -5.002  12.756  19.999  0.00  0.00    +0.000 A 
ATOM      3  C   UNL     1      -6.280  13.300  20.606  0.00  0.00    +0.000 C 
ATOM      4  N   UNL     1      -3.850  12.820  20.777  0.00  0.00    +0.000 N 
ATOM      5  C   UNL     1      -3.559  13.447  22.009  0.00  0.00    +0.000 A 
ATOM      6  C   UNL     1      -4.347  14.190  22.878  0.00  0.00    +0.000 A 
ATOM      7  C   UNL     1      -3.784  14.691  24.066  0.00  0.00    +0.000 A 
ATOM      8  C   UNL     1      -2.435  14.478  24.377  0.00  0.00    +0.000 A 
ATOM      9  C   UNL     1      -1.626  13.749  23.514  0.00  0.00    +0.000 A 
ATOM     10  C   UNL     1      -2.220  13.252  22.361  0.00  0.00    +0.000 A 
ATOM     11  C   UNL     1      -1.606  12.490  21.278  0.00  0.00    +0.000 A 
ATOM     12  O   UNL     1      -0.426  12.181  21.281  0.00  0.00    +0.000 OA
ATOM     13  N   UNL     1      -2.615  12.271  20.348  0.00  0.00    +0.000 N 
ATOM     14  C   UNL     1      -2.545  11.627  19.092  0.00  0.00    +0.000 A 
ATOM     15  C   UNL     1      -1.333  11.035  18.658  0.00  0.00    +0.000 A 
ATOM     16  C   UNL     1      -1.234  10.399  17.424  0.00  0.00    +0.000 A 
ATOM     17  C   UNL     1      -2.355  10.385  16.632  0.00  0.00    +0.000 A 
ATOM     18  C   UNL     1      -3.542  10.974  17.023  0.00  0.00    +0.000 A 
ATOM     19  C   UNL     1      -3.701  11.593  18.266  0.00  0.00    +0.000 A 
ATOM     20  O   UNL     1      -4.470  10.867  16.029  0.00  0.00    +0.000 OA
ATOM     21  C   UNL     1      -3.795  10.043  15.066  0.00  0.00    +0.000 C 
ATOM     22  O   UNL     1      -2.417   9.811  15.400  0.00  0.00    +0.000 OA
ENDROOT
BRANCH   1  23
ATOM     23  C   UNL     1      -6.198  12.292  17.902  0.00  0.00    +0.000 C 
ATOM     24  O   UNL     1      -7.117  11.491  17.863  0.00  0.00    +0.000 OA
BRANCH  23  25
ATOM     25  O   UNL     1      -6.078  13.408  17.139  0.00  0.00    +0.000 OA
BRANCH  25  27
ATOM     26  C   UNL     1      -6.880  15.578  17.333  0.00  0.00    +0.000 C 
ATOM     27  C   UNL     1      -7.248  14.184  16.872  0.00  0.00    +0.000 C 
ENDBRANCH  25  27
ENDBRANCH  23  25
ENDBRANCH   1  23
TORSDOF 3
ENDMDL
MODEL 7
REMARK VINA RESULT:      -6.5      6.442     11.172
REMARK  Name = 
REMARK  5 active torsions:
REMARK  status: ('A' for Active; 'I' for Inactive)
REMARK    1  A    between atoms: C_1  and  C_2
REMARK    2  A    between atoms: C_2  and  O_3
REMARK    3  A    between atoms: O_3  and  C_4
REMARK    4  A    between atoms: C_4  and  C_6
REMARK    5  A    between atoms: C_7  and  C_8
REMARK                            x       y       z     vdW  Elec       q    Type
REMARK                         _______ _______ _______ _____ _____    ______ ____
ROOT
ATOM      1  C   UNL     1      -4.099  12.977  20.802  0.00  0.00    +0.000 A 
ATOM      2  C   UNL     1      -3.479  12.244  19.837  0.00  0.00    +0.000 A 
ATOM      3  C   UNL     1      -4.215  11.746  18.610  0.00  0.00    +0.000 C 
ATOM      4  N   UNL     1      -2.125  11.939  19.936  0.00  0.00    +0.000 N 
ATOM      5  C   UNL     1      -1.274  11.099  19.183  0.00  0.00    +0.000 A 
ATOM      6  C   UNL     1      -1.506  10.313  18.062  0.00  0.00    +0.000 A 
ATOM      7  C   UNL     1      -0.446   9.575  17.503  0.00  0.00    +0.000 A 
ATOM      8  C   UNL     1       0.833   9.596  18.073  0.00  0.00    +0.000 A 
ATOM      9  C   UNL     1       1.082  10.365  19.203  0.00  0.00    +0.000 A 
ATOM     10  C   UNL     1       0.019  11.097  19.715  0.00  0.00    +0.000 A 
ATOM     11  C   UNL     1      -0.010  11.954  20.897  0.00  0.00    +0.000 A 
ATOM     12  O   UNL     1       0.971  12.134  21.599  0.00  0.00    +0.000 OA
ATOM     13  N   UNL     1      -1.315  12.419  20.997  0.00  0.00    +0.000 N 
ATOM     14  C   UNL     1      -1.894  13.243  21.988  0.00  0.00    +0.000 A 
ATOM     15  C   UNL     1      -1.098  13.768  23.036  0.00  0.00    +0.000 A 
ATOM     16  C   UNL     1      -1.643  14.578  24.029  0.00  0.00    +0.000 A 
ATOM     17  C   UNL     1      -2.990  14.832  23.964  0.00  0.00    +0.000 A 
ATOM     18  C   UNL     1      -3.791  14.314  22.965  0.00  0.00    +0.000 A 
ATOM     19  C   UNL     1      -3.285  13.526  21.927  0.00  0.00    +0.000 A 
ATOM     20  O   UNL     1      -5.091  14.672  23.171  0.00  0.00    +0.000 OA
ATOM     21  C   UNL     1      -4.990  15.565  24.292  0.00  0.00    +0.000 C 
ATOM     22  O   UNL     1      -3.670  15.597  24.860  0.00  0.00    +0.000 OA
ENDROOT
BRANCH   1  23
ATOM     23  C   UNL     1      -5.582  13.155  20.726  0.00  0.00    +0.000 C 
ATOM     24  O   UNL     1      -6.182  14.059  20.168  0.00  0.00    +0.000 OA
BRANCH  23  25
ATOM     25  O   UNL     1      -6.143  12.144  21.437  0.00  0.00    +0.000 OA
BRANCH  25  27
ATOM     26  C   UNL     1      -7.313  10.491  20.301  0.00  0.00    +0.000 C 
ATOM     27  C   UNL     1      -7.481  11.749  21.127  0.00  0.00    +0.000 C 
ENDBRANCH  25  27
ENDBRANCH  23  25
ENDBRANCH   1  23
TORSDOF 3
ENDMDL
MODEL 8
REMARK VINA RESULT:      -6.4      1.563      2.321
REMARK  Name = 
REMARK  5 active torsions:
REMARK  status: ('A' for Active; 'I' for Inactive)
REMARK    1  A    between atoms: C_1  and  C_2
REMARK    2  A    between atoms: C_2  and  O_3
REMARK    3  A    between atoms: O_3  and  C_4
REMARK    4  A    between atoms: C_4  and  C_6
REMARK    5  A    between atoms: C_7  and  C_8
REMARK                            x       y       z     vdW  Elec       q    Type
REMARK                         _______ _______ _______ _____ _____    ______ ____
ROOT
ATOM      1  C   UNL     1       2.054   6.302  20.079  0.00  0.00    +0.000 A 
ATOM      2  C   UNL     1       1.364   7.394  20.510  0.00  0.00    +0.000 A 
ATOM      3  C   UNL     1       0.542   7.374  21.782  0.00  0.00    +0.000 C 
ATOM      4  N   UNL     1       1.407   8.589  19.797  0.00  0.00    +0.000 N 
ATOM      5  C   UNL     1       0.699   9.804  19.922  0.00  0.00    +0.000 A 
ATOM      6  C   UNL     1      -0.266  10.225  20.828  0.00  0.00    +0.000 A 
ATOM      7  C   UNL     1      -0.800  11.522  20.719  0.00  0.00    +0.000 A 
ATOM      8  C   UNL     1      -0.397  12.389  19.695  0.00  0.00    +0.000 A 
ATOM      9  C   UNL     1       0.556  11.983  18.769  0.00  0.00    +0.000 A 
ATOM     10  C   UNL     1       1.077  10.704  18.920  0.00  0.00    +0.000 A 
ATOM     11  C   UNL     1       2.056  10.016  18.083  0.00  0.00    +0.000 A 
ATOM     12  O   UNL     1       2.559  10.537  17.101  0.00  0.00    +0.000 OA
ATOM     13  N   UNL     1       2.206   8.751  18.637  0.00  0.00    +0.000 N 
ATOM     14  C   UNL     1       2.996   7.669  18.187  0.00  0.00    +0.000 A 
ATOM     15  C   UNL     1       3.834   7.818  17.054  0.00  0.00    +0.000 A 
ATOM     16  C   UNL     1       4.619   6.769  16.585  0.00  0.00    +0.000 A 
ATOM     17  C   UNL     1       4.534   5.573  17.253  0.00  0.00    +0.000 A 
ATOM     18  C   UNL     1       3.708   5.396  18.347  0.00  0.00    +0.000 A 
ATOM     19  C   UNL     1       2.929   6.429  18.876  0.00  0.00    +0.000 A 
ATOM     20  O   UNL     1       3.771   4.104  18.779  0.00  0.00    +0.000 OA
ATOM     21  C   UNL     1       4.807   3.552  17.951  0.00  0.00    +0.000 C 
ATOM     22  O   UNL     1       5.230   4.454  16.915  0.00  0.00    +0.000 OA
ENDROOT
BRANCH   1  23
ATOM     23  C   UNL     1       1.861   5.003  20.795  0.00  0.00    +0.000 C 
ATOM     24  O   UNL     1       2.521   4.580  21.730  0.00  0.00    +0.000 OA
BRANCH  23  25
ATOM     25  O   UNL     1       0.839   4.355  20.180  0.00  0.00    +0.000 OA
BRANCH  25  27
ATOM     26  C   UNL     1       0.793   2.544  18.729  0.00  0.00    +0.000 C 
ATOM     27  C   UNL     1       0.828   2.926  20.193  0.00  0.00    +0.000 C 
ENDBRANCH  25  27
ENDBRANCH  23  25
ENDBRANCH   1  23
TORSDOF 3
ENDMDL
MODEL 9
REMARK VINA RESULT:      -6.4      6.178      9.138
REMARK  Name = 
REMARK  5 active torsions:
REMARK  status: ('A' for Active; 'I' for Inactive)
REMARK    1  A    between atoms: C_1  and  C_2
REMARK    2  A    between atoms: C_2  and  O_3
REMARK    3  A    between atoms: O_3  and  C_4
REMARK    4  A    between atoms: C_4  and  C_6
REMARK    5  A    between atoms: C_7  and  C_8
REMARK                            x       y       z     vdW  Elec       q    Type
REMARK                         _______ _______ _______ _____ _____    ______ ____
ROOT
ATOM      1  C   UNL     1      -1.503  11.723  19.575  0.00  0.00    +0.000 A 
ATOM      2  C   UNL     1      -1.479  12.402  20.755  0.00  0.00    +0.000 A 
ATOM      3  C   UNL     1      -0.201  12.598  21.544  0.00  0.00    +0.000 C 
ATOM      4  N   UNL     1      -2.642  12.964  21.275  0.00  0.00    +0.000 N 
ATOM      5  C   UNL     1      -2.938  13.579  22.512  0.00  0.00    +0.000 A 
ATOM      6  C   UNL     1      -2.149  13.857  23.620  0.00  0.00    +0.000 A 
ATOM      7  C   UNL     1      -2.719  14.505  24.731  0.00  0.00    +0.000 A 
ATOM      8  C   UNL     1      -4.077  14.850  24.753  0.00  0.00    +0.000 A 
ATOM      9  C   UNL     1      -4.887  14.568  23.660  0.00  0.00    +0.000 A 
ATOM     10  C   UNL     1      -4.286  13.947  22.572  0.00  0.00    +0.000 A 
ATOM     11  C   UNL     1      -4.899  13.511  21.321  0.00  0.00    +0.000 A 
ATOM     12  O   UNL     1      -6.085  13.669  21.083  0.00  0.00    +0.000 OA
ATOM     13  N   UNL     1      -3.881  12.915  20.587  0.00  0.00    +0.000 N 
ATOM     14  C   UNL     1      -3.944  12.283  19.325  0.00  0.00    +0.000 A 
ATOM     15  C   UNL     1      -5.161  12.256  18.599  0.00  0.00    +0.000 A 
ATOM     16  C   UNL     1      -5.255  11.636  17.356  0.00  0.00    +0.000 A 
ATOM     17  C   UNL     1      -4.122  11.032  16.869  0.00  0.00    +0.000 A 
ATOM     18  C   UNL     1      -2.930  11.025  17.567  0.00  0.00    +0.000 A 
ATOM     19  C   UNL     1      -2.778  11.664  18.800  0.00  0.00    +0.000 A 
ATOM     20  O   UNL     1      -1.990  10.310  16.886  0.00  0.00    +0.000 OA
ATOM     21  C   UNL     1      -2.667  10.006  15.655  0.00  0.00    +0.000 C 
ATOM     22  O   UNL     1      -4.054  10.381  15.676  0.00  0.00    +0.000 OA
ENDROOT
BRANCH   1  23
ATOM     23  C   UNL     1      -0.263  11.015  19.131  0.00  0.00    +0.000 C 
ATOM     24  O   UNL     1       0.634  11.474  18.443  0.00  0.00    +0.000 OA
BRANCH  23  25
ATOM     25  O   UNL     1      -0.341   9.742  19.597  0.00  0.00    +0.000 OA
BRANCH  25  27
ATOM     26  C   UNL     1       0.004   8.866  21.719  0.00  0.00    +0.000 C 
ATOM     27  C   UNL     1       0.709   9.256  20.438  0.00  0.00    +0.000 C 
ENDBRANCH  25  27
ENDBRANCH  23  25
ENDBRANCH   1  23
TORSDOF 3
ENDMDL
