MODEL 1
REMARK VINA RESULT:      -7.7      0.000      0.000
REMARK  Name = 
REMARK  3 active torsions:
REMARK  status: ('A' for Active; 'I' for Inactive)
REMARK    1  A    between atoms: C_1  and  C_2
REMARK    2  A    between atoms: C_6  and  C_7
REMARK    3  A    between atoms: C_11  and  C_12
REMARK                            x       y       z     vdW  Elec       q    Type
REMARK                         _______ _______ _______ _____ _____    ______ ____
ROOT
ATOM      1  C   UNL     1       2.881   5.365  19.272  0.00  0.00    +0.000 A 
ATOM      2  C   UNL     1       2.248   5.908  20.380  0.00  0.00    +0.000 A 
ATOM      3  C   UNL     1       1.866   7.250  20.147  0.00  0.00    +0.000 A 
ATOM      4  N   UNL     1       1.267   8.071  21.114  0.00  0.00    +0.000 NA
ATOM      5  C   UNL     1       1.014   9.278  20.696  0.00  0.00    +0.000 A 
ATOM      6  N   UNL     1       1.244   9.743  19.416  0.00  0.00    +0.000 N 
ATOM      7  C   UNL     1       1.865   9.007  18.436  0.00  0.00    +0.000 A 
ATOM      8  O   UNL     1       2.123   9.484  17.336  0.00  0.00    +0.000 OA
ATOM      9  C   UNL     1       2.171   7.683  18.889  0.00  0.00    +0.000 A 
ATOM     10  S   UNL     1       2.956   6.498  17.980  0.00  0.00    +0.000 S 
ATOM     11  H   UNL     1       1.046  10.719  19.226  0.00  0.00    +0.000 HD
ENDROOT
BRANCH   1  17
ATOM     12  C   UNL     1       1.341   2.459  18.659  0.00  0.00    +0.000 C 
ATOM     13  C   UNL     1       2.768   2.732  18.964  0.00  0.00    +0.000 A 
ATOM     14  N   UNL     1       3.629   1.702  19.011  0.00  0.00    +0.000 NA
ATOM     15  N   UNL     1       4.812   2.275  19.264  0.00  0.00    +0.000 N 
ATOM     16  C   UNL     1       4.750   3.632  19.375  0.00  0.00    +0.000 A 
ATOM     17  C   UNL     1       3.425   3.971  19.207  0.00  0.00    +0.000 A 
ATOM     18  H   UNL     1       5.626   1.674  19.350  0.00  0.00    +0.000 HD
ENDBRANCH   1  17
BRANCH   5  19
ATOM     19  C   UNL     1       0.409  10.300  21.649  0.00  0.00    +0.000 C 
ATOM     20  C   UNL     1      -0.463   9.677  22.722  0.00  0.00    +0.000 C 
ATOM     21  C   UNL     1      -1.290  10.859  23.192  0.00  0.00    +0.000 C 
ATOM     22  C   UNL     1      -1.412  11.758  21.968  0.00  0.00    +0.000 C 
ATOM     23  N   UNL     1      -0.556  11.167  20.932  0.00  0.00    +0.000 NA
ATOM     24  H   UNL     1      -0.052  11.904  20.435  0.00  0.00    +0.000 HD
ENDBRANCH   5  19
TORSDOF 2
ENDMDL
MODEL 2
REMARK VINA RESULT:      -7.4      2.892      3.738
REMARK  Name = 
REMARK  3 active torsions:
REMARK  status: ('A' for Active; 'I' for Inactive)
REMARK    1  A    between atoms: C_1  and  C_2
REMARK    2  A    between atoms: C_6  and  C_7
REMARK    3  A    between atoms: C_11  and  C_12
REMARK                            x       y       z     vdW  Elec       q    Type
REMARK                         _______ _______ _______ _____ _____    ______ ____
ROOT
ATOM      1  C   UNL     1       4.217   6.295  17.765  0.00  0.00    +0.000 A 
ATOM      2  C   UNL     1       3.713   7.463  17.214  0.00  0.00    +0.000 A 
ATOM      3  C   UNL     1       2.728   8.042  18.049  0.00  0.00    +0.000 A 
ATOM      4  N   UNL     1       1.999   9.193  17.714  0.00  0.00    +0.000 NA
ATOM      5  C   UNL     1       1.129   9.545  18.617  0.00  0.00    +0.000 A 
ATOM      6  N   UNL     1       0.938   8.913  19.830  0.00  0.00    +0.000 N 
ATOM      7  C   UNL     1       1.587   7.760  20.200  0.00  0.00    +0.000 A 
ATOM      8  O   UNL     1       1.330   7.185  21.254  0.00  0.00    +0.000 OA
ATOM      9  C   UNL     1       2.531   7.347  19.207  0.00  0.00    +0.000 A 
ATOM     10  S   UNL     1       3.497   5.966  19.293  0.00  0.00    +0.000 S 
ATOM     11  H   UNL     1       0.196   9.256  20.429  0.00  0.00    +0.000 HD
ENDROOT
BRANCH   1  17
ATOM     12  C   UNL     1       7.504   6.779  17.376  0.00  0.00    +0.000 C 
ATOM     13  C   UNL     1       6.653   5.646  16.935  0.00  0.00    +0.000 A 
ATOM     14  N   UNL     1       7.224   4.622  16.280  0.00  0.00    +0.000 NA
ATOM     15  N   UNL     1       6.215   3.769  16.062  0.00  0.00    +0.000 N 
ATOM     16  C   UNL     1       5.020   4.197  16.556  0.00  0.00    +0.000 A 
ATOM     17  C   UNL     1       5.257   5.433  17.118  0.00  0.00    +0.000 A 
ATOM     18  H   UNL     1       6.418   2.907  15.565  0.00  0.00    +0.000 HD
ENDBRANCH   1  17
BRANCH   5  19
ATOM     19  C   UNL     1       0.227  10.748  18.373  0.00  0.00    +0.000 C 
ATOM     20  C   UNL     1      -0.506  11.210  19.617  0.00  0.00    +0.000 C 
ATOM     21  C   UNL     1      -1.638  12.036  19.036  0.00  0.00    +0.000 C 
ATOM     22  C   UNL     1      -1.927  11.401  17.682  0.00  0.00    +0.000 C 
ATOM     23  N   UNL     1      -0.892  10.380  17.473  0.00  0.00    +0.000 NA
ATOM     24  H   UNL     1      -0.574  10.400  16.502  0.00  0.00    +0.000 HD
ENDBRANCH   5  19
TORSDOF 2
ENDMDL
MODEL 3
REMARK VINA RESULT:      -7.3      4.599      8.024
REMARK  Name = 
REMARK  3 active torsions:
REMARK  status: ('A' for Active; 'I' for Inactive)
REMARK    1  A    between atoms: C_1  and  C_2
REMARK    2  A    between atoms: C_6  and  C_7
REMARK    3  A    between atoms: C_11  and  C_12
REMARK                            x       y       z     vdW  Elec       q    Type
REMARK                         _______ _______ _______ _____ _____    ______ ____
ROOT
ATOM      1  C   UNL     1       4.215   4.024  19.229  0.00  0.00    +0.000 A 
ATOM      2  C   UNL     1       4.094   3.674  17.892  0.00  0.00    +0.000 A 
ATOM      3  C   UNL     1       5.066   4.329  17.100  0.00  0.00    +0.000 A 
ATOM      4  N   UNL     1       5.141   4.216  15.704  0.00  0.00    +0.000 NA
ATOM      5  C   UNL     1       6.100   4.917  15.170  0.00  0.00    +0.000 A 
ATOM      6  N   UNL     1       7.018   5.675  15.869  0.00  0.00    +0.000 N 
ATOM      7  C   UNL     1       6.976   5.861  17.230  0.00  0.00    +0.000 A 
ATOM      8  O   UNL     1       7.764   6.607  17.804  0.00  0.00    +0.000 OA
ATOM      9  C   UNL     1       5.912   5.114  17.829  0.00  0.00    +0.000 A 
ATOM     10  S   UNL     1       5.528   5.110  19.472  0.00  0.00    +0.000 S 
ATOM     11  H   UNL     1       7.691   6.213  15.335  0.00  0.00    +0.000 HD
ENDROOT
BRANCH   1  17
ATOM     12  C   UNL     1       1.561   5.441  20.690  0.00  0.00    +0.000 C 
ATOM     13  C   UNL     1       2.203   4.129  20.956  0.00  0.00    +0.000 A 
ATOM     14  N   UNL     1       1.689   3.337  21.910  0.00  0.00    +0.000 NA
ATOM     15  N   UNL     1       2.456   2.240  21.874  0.00  0.00    +0.000 N 
ATOM     16  C   UNL     1       3.437   2.290  20.931  0.00  0.00    +0.000 A 
ATOM     17  C   UNL     1       3.322   3.520  20.320  0.00  0.00    +0.000 A 
ATOM     18  H   UNL     1       2.250   1.492  22.528  0.00  0.00    +0.000 HD
ENDBRANCH   1  17
BRANCH   5  19
ATOM     19  C   UNL     1       6.275   4.934  13.657  0.00  0.00    +0.000 C 
ATOM     20  C   UNL     1       6.263   3.552  13.036  0.00  0.00    +0.000 C 
ATOM     21  C   UNL     1       6.917   3.797  11.688  0.00  0.00    +0.000 C 
ATOM     22  C   UNL     1       7.873   4.959  11.927  0.00  0.00    +0.000 C 
ATOM     23  N   UNL     1       7.629   5.422  13.300  0.00  0.00    +0.000 NA
ATOM     24  H   UNL     1       7.645   6.444  13.330  0.00  0.00    +0.000 HD
ENDBRANCH   5  19
TORSDOF 2
ENDMDL
MODEL 4
REMARK VINA RESULT:      -7.3      5.130      7.927
REMARK  Name = 
REMARK  3 active torsions:
REMARK  status: ('A' for Active; 'I' for Inactive)
REMARK    1  A    between atoms: C_1  and  C_2
REMARK    2  A    between atoms: C_6  and  C_7
REMARK    3  A    between atoms: C_11  and  C_12
REMARK                            x       y       z     vdW  Elec       q    Type
REMARK                         _______ _______ _______ _____ _____    ______ ____
ROOT
ATOM      1  C   UNL     1       3.673   4.095  19.038  0.00  0.00    +0.000 A 
ATOM      2  C   UNL     1       4.162   3.329  17.991  0.00  0.00    +0.000 A 
ATOM      3  C   UNL     1       5.019   4.086  17.158  0.00  0.00    +0.000 A 
ATOM      4  N   UNL     1       5.606   3.589  15.985  0.00  0.00    +0.000 NA
ATOM      5  C   UNL     1       6.345   4.460  15.358  0.00  0.00    +0.000 A 
ATOM      6  N   UNL     1       6.603   5.745  15.790  0.00  0.00    +0.000 N 
ATOM      7  C   UNL     1       6.028   6.306  16.905  0.00  0.00    +0.000 A 
ATOM      8  O   UNL     1       6.223   7.479  17.210  0.00  0.00    +0.000 OA
ATOM      9  C   UNL     1       5.194   5.368  17.592  0.00  0.00    +0.000 A 
ATOM     10  S   UNL     1       4.301   5.696  18.987  0.00  0.00    +0.000 S 
ATOM     11  H   UNL     1       7.159   6.343  15.188  0.00  0.00    +0.000 HD
ENDROOT
BRANCH   1  17
ATOM     12  C   UNL     1       0.772   2.458  18.729  0.00  0.00    +0.000 C 
ATOM     13  C   UNL     1       1.480   2.912  19.952  0.00  0.00    +0.000 A 
ATOM     14  N   UNL     1       0.932   2.656  21.151  0.00  0.00    +0.000 NA
ATOM     15  N   UNL     1       1.815   3.151  22.028  0.00  0.00    +0.000 N 
ATOM     16  C   UNL     1       2.912   3.708  21.443  0.00  0.00    +0.000 A 
ATOM     17  C   UNL     1       2.724   3.593  20.082  0.00  0.00    +0.000 A 
ATOM     18  H   UNL     1       1.601   3.073  23.017  0.00  0.00    +0.000 HD
ENDBRANCH   1  17
BRANCH   5  19
ATOM     19  C   UNL     1       7.009   4.082  14.040  0.00  0.00    +0.000 C 
ATOM     20  C   UNL     1       7.322   5.277  13.162  0.00  0.00    +0.000 C 
ATOM     21  C   UNL     1       7.499   4.637  11.797  0.00  0.00    +0.000 C 
ATOM     22  C   UNL     1       6.589   3.415  11.821  0.00  0.00    +0.000 C 
ATOM     23  N   UNL     1       6.069   3.312  13.190  0.00  0.00    +0.000 NA
ATOM     24  H   UNL     1       6.061   2.334  13.486  0.00  0.00    +0.000 HD
ENDBRANCH   5  19
TORSDOF 2
ENDMDL
MODEL 5
REMARK VINA RESULT:      -7.3      3.112      4.029
REMARK  Name = 
REMARK  3 active torsions:
REMARK  status: ('A' for Active; 'I' for Inactive)
REMARK    1  A    between atoms: C_1  and  C_2
REMARK    2  A    between atoms: C_6  and  C_7
REMARK    3  A    between atoms: C_11  and  C_12
REMARK                            x       y       z     vdW  Elec       q    Type
REMARK                         _______ _______ _______ _____ _____    ______ ____
ROOT
ATOM      1  C   UNL     1       4.556   5.425  17.749  0.00  0.00    +0.000 A 
ATOM      2  C   UNL     1       3.931   6.641  17.975  0.00  0.00    +0.000 A 
ATOM      3  C   UNL     1       3.039   6.566  19.070  0.00  0.00    +0.000 A 
ATOM      4  N   UNL     1       2.220   7.626  19.486  0.00  0.00    +0.000 NA
ATOM      5  C   UNL     1       1.461   7.337  20.504  0.00  0.00    +0.000 A 
ATOM      6  N   UNL     1       1.460   6.134  21.182  0.00  0.00    +0.000 N 
ATOM      7  C   UNL     1       2.205   5.043  20.802  0.00  0.00    +0.000 A 
ATOM      8  O   UNL     1       2.116   3.967  21.385  0.00  0.00    +0.000 OA
ATOM      9  C   UNL     1       3.028   5.339  19.669  0.00  0.00    +0.000 A 
ATOM     10  S   UNL     1       4.059   4.246  18.901  0.00  0.00    +0.000 S 
ATOM     11  H   UNL     1       0.789   6.015  21.932  0.00  0.00    +0.000 HD
ENDROOT
BRANCH   1  17
ATOM     12  C   UNL     1       7.549   6.793  17.152  0.00  0.00    +0.000 C 
ATOM     13  C   UNL     1       6.806   5.763  16.384  0.00  0.00    +0.000 A 
ATOM     14  N   UNL     1       7.363   5.256  15.272  0.00  0.00    +0.000 NA
ATOM     15  N   UNL     1       6.476   4.348  14.846  0.00  0.00    +0.000 N 
ATOM     16  C   UNL     1       5.375   4.244  15.642  0.00  0.00    +0.000 A 
ATOM     17  C   UNL     1       5.540   5.169  16.649  0.00  0.00    +0.000 A 
ATOM     18  H   UNL     1       6.690   3.833  13.998  0.00  0.00    +0.000 HD
ENDBRANCH   1  17
BRANCH   5  19
ATOM     19  C   UNL     1       0.480   8.373  21.038  0.00  0.00    +0.000 C 
ATOM     20  C   UNL     1       0.338   9.584  20.137  0.00  0.00    +0.000 C 
ATOM     21  C   UNL     1      -0.262  10.615  21.075  0.00  0.00    +0.000 C 
ATOM     22  C   UNL     1       0.273  10.244  22.452  0.00  0.00    +0.000 C 
ATOM     23  N   UNL     1       0.998   8.977  22.288  0.00  0.00    +0.000 NA
ATOM     24  H   UNL     1       0.799   8.358  23.077  0.00  0.00    +0.000 HD
ENDBRANCH   5  19
TORSDOF 2
ENDMDL
MODEL 6
REMARK VINA RESULT:      -7.3      4.657      8.294
REMARK  Name = 
REMARK  3 active torsions:
REMARK  status: ('A' for Active; 'I' for Inactive)
REMARK    1  A    between atoms: C_1  and  C_2
REMARK    2  A    between atoms: C_6  and  C_7
REMARK    3  A    between atoms: C_11  and  C_12
REMARK                            x       y       z     vdW  Elec       q    Type
REMARK                         _______ _______ _______ _____ _____    ______ ____
ROOT
ATOM      1  C   UNL     1       4.276   4.005  18.857  0.00  0.00    +0.000 A 
ATOM      2  C   UNL     1       4.124   3.425  17.607  0.00  0.00    +0.000 A 
ATOM      3  C   UNL     1       4.996   4.010  16.659  0.00  0.00    +0.000 A 
ATOM      4  N   UNL     1       5.015   3.668  15.299  0.00  0.00    +0.000 NA
ATOM      5  C   UNL     1       5.882   4.342  14.600  0.00  0.00    +0.000 A 
ATOM      6  N   UNL     1       6.762   5.277  15.106  0.00  0.00    +0.000 N 
ATOM      7  C   UNL     1       6.768   5.688  16.418  0.00  0.00    +0.000 A 
ATOM      8  O   UNL     1       7.513   6.580  16.811  0.00  0.00    +0.000 OA
ATOM      9  C   UNL     1       5.803   4.972  17.196  0.00  0.00    +0.000 A 
ATOM     10  S   UNL     1       5.498   5.217  18.837  0.00  0.00    +0.000 S 
ATOM     11  H   UNL     1       7.360   5.768  14.451  0.00  0.00    +0.000 HD
ENDROOT
BRANCH   1  17
ATOM     12  C   UNL     1       1.904   5.684  20.514  0.00  0.00    +0.000 C 
ATOM     13  C   UNL     1       2.486   4.346  20.786  0.00  0.00    +0.000 A 
ATOM     14  N   UNL     1       2.034   3.644  21.838  0.00  0.00    +0.000 NA
ATOM     15  N   UNL     1       2.718   2.495  21.784  0.00  0.00    +0.000 N 
ATOM     16  C   UNL     1       3.587   2.425  20.737  0.00  0.00    +0.000 A 
ATOM     17  C   UNL     1       3.482   3.625  20.069  0.00  0.00    +0.000 A 
ATOM     18  H   UNL     1       2.541   1.799  22.501  0.00  0.00    +0.000 HD
ENDBRANCH   1  17
BRANCH   5  19
ATOM     19  C   UNL     1       5.984   4.116  13.096  0.00  0.00    +0.000 C 
ATOM     20  C   UNL     1       4.719   3.544  12.489  0.00  0.00    +0.000 C 
ATOM     21  C   UNL     1       5.219   2.980  11.172  0.00  0.00    +0.000 C 
ATOM     22  C   UNL     1       6.664   2.581  11.446  0.00  0.00    +0.000 C 
ATOM     23  N   UNL     1       6.976   3.055  12.800  0.00  0.00    +0.000 NA
ATOM     24  H   UNL     1       7.918   3.450  12.822  0.00  0.00    +0.000 HD
ENDBRANCH   5  19
TORSDOF 2
ENDMDL
MODEL 7
REMARK VINA RESULT:      -7.2      4.472      8.111
REMARK  Name = 
REMARK  3 active torsions:
REMARK  status: ('A' for Active; 'I' for Inactive)
REMARK    1  A    between atoms: C_1  and  C_2
REMARK    2  A    between atoms: C_6  and  C_7
REMARK    3  A    between atoms: C_11  and  C_12
REMARK                            x       y       z     vdW  Elec       q    Type
REMARK                         _______ _______ _______ _____ _____    ______ ____
ROOT
ATOM      1  C   UNL     1       4.205   4.179  19.126  0.00  0.00    +0.000 A 
ATOM      2  C   UNL     1       4.537   3.426  18.010  0.00  0.00    +0.000 A 
ATOM      3  C   UNL     1       5.412   4.134  17.153  0.00  0.00    +0.000 A 
ATOM      4  N   UNL     1       5.861   3.645  15.918  0.00  0.00    +0.000 NA
ATOM      5  C   UNL     1       6.646   4.467  15.281  0.00  0.00    +0.000 A 
ATOM      6  N   UNL     1       7.072   5.692  15.755  0.00  0.00    +0.000 N 
ATOM      7  C   UNL     1       6.638   6.247  16.935  0.00  0.00    +0.000 A 
ATOM      8  O   UNL     1       6.979   7.373  17.282  0.00  0.00    +0.000 OA
ATOM      9  C   UNL     1       5.755   5.364  17.636  0.00  0.00    +0.000 A 
ATOM     10  S   UNL     1       4.999   5.706  19.106  0.00  0.00    +0.000 S 
ATOM     11  H   UNL     1       7.647   6.261  15.144  0.00  0.00    +0.000 HD
ENDROOT
BRANCH   1  17
ATOM     12  C   UNL     1       1.624   5.736  20.576  0.00  0.00    +0.000 C 
ATOM     13  C   UNL     1       2.192   4.390  20.842  0.00  0.00    +0.000 A 
ATOM     14  N   UNL     1       1.631   3.625  21.792  0.00  0.00    +0.000 NA
ATOM     15  N   UNL     1       2.337   2.488  21.758  0.00  0.00    +0.000 N 
ATOM     16  C   UNL     1       3.325   2.487  20.820  0.00  0.00    +0.000 A 
ATOM     17  C   UNL     1       3.280   3.722  20.211  0.00  0.00    +0.000 A 
ATOM     18  H   UNL     1       2.087   1.751  22.409  0.00  0.00    +0.000 HD
ENDBRANCH   1  17
BRANCH   5  19
ATOM     19  C   UNL     1       7.174   4.095  13.901  0.00  0.00    +0.000 C 
ATOM     20  C   UNL     1       7.394   5.295  13.001  0.00  0.00    +0.000 C 
ATOM     21  C   UNL     1       7.434   4.661  11.623  0.00  0.00    +0.000 C 
ATOM     22  C   UNL     1       6.534   3.436  11.734  0.00  0.00    +0.000 C 
ATOM     23  N   UNL     1       6.155   3.326  13.148  0.00  0.00    +0.000 NA
ATOM     24  H   UNL     1       6.180   2.347  13.440  0.00  0.00    +0.000 HD
ENDBRANCH   5  19
TORSDOF 2
ENDMDL
MODEL 8
REMARK VINA RESULT:      -7.1      3.516      8.059
REMARK  Name = 
REMARK  3 active torsions:
REMARK  status: ('A' for Active; 'I' for Inactive)
REMARK    1  A    between atoms: C_1  and  C_2
REMARK    2  A    between atoms: C_6  and  C_7
REMARK    3  A    between atoms: C_11  and  C_12
REMARK                            x       y       z     vdW  Elec       q    Type
REMARK                         _______ _______ _______ _____ _____    ______ ____
ROOT
ATOM      1  C   UNL     1       2.463   6.883  19.341  0.00  0.00    +0.000 A 
ATOM      2  C   UNL     1       3.159   6.964  18.145  0.00  0.00    +0.000 A 
ATOM      3  C   UNL     1       3.784   5.735  17.829  0.00  0.00    +0.000 A 
ATOM      4  N   UNL     1       4.610   5.543  16.712  0.00  0.00    +0.000 NA
ATOM      5  C   UNL     1       5.099   4.339  16.620  0.00  0.00    +0.000 A 
ATOM      6  N   UNL     1       4.822   3.298  17.483  0.00  0.00    +0.000 N 
ATOM      7  C   UNL     1       4.057   3.429  18.617  0.00  0.00    +0.000 A 
ATOM      8  O   UNL     1       3.900   2.498  19.401  0.00  0.00    +0.000 OA
ATOM      9  C   UNL     1       3.531   4.754  18.744  0.00  0.00    +0.000 A 
ATOM     10  S   UNL     1       2.570   5.304  20.018  0.00  0.00    +0.000 S 
ATOM     11  H   UNL     1       5.301   2.417  17.331  0.00  0.00    +0.000 HD
ENDROOT
BRANCH   1  17
ATOM     12  C   UNL     1       1.250   9.687  17.980  0.00  0.00    +0.000 C 
ATOM     13  C   UNL     1       1.211   9.222  19.389  0.00  0.00    +0.000 A 
ATOM     14  N   UNL     1       0.608   9.992  20.309  0.00  0.00    +0.000 NA
ATOM     15  N   UNL     1       0.711   9.288  21.443  0.00  0.00    +0.000 N 
ATOM     16  C   UNL     1       1.348   8.094  21.290  0.00  0.00    +0.000 A 
ATOM     17  C   UNL     1       1.712   8.020  19.963  0.00  0.00    +0.000 A 
ATOM     18  H   UNL     1       0.320   9.688  22.290  0.00  0.00    +0.000 HD
ENDBRANCH   1  17
BRANCH   5  19
ATOM     19  C   UNL     1       6.054   3.993  15.485  0.00  0.00    +0.000 C 
ATOM     20  C   UNL     1       6.986   5.130  15.118  0.00  0.00    +0.000 C 
ATOM     21  C   UNL     1       7.451   4.732  13.729  0.00  0.00    +0.000 C 
ATOM     22  C   UNL     1       6.286   3.944  13.143  0.00  0.00    +0.000 C 
ATOM     23  N   UNL     1       5.304   3.789  14.223  0.00  0.00    +0.000 NA
ATOM     24  H   UNL     1       4.913   2.844  14.205  0.00  0.00    +0.000 HD
ENDBRANCH   5  19
TORSDOF 2
ENDMDL
MODEL 9
REMARK VINA RESULT:      -7.1      5.280      7.145
REMARK  Name = 
REMARK  3 active torsions:
REMARK  status: ('A' for Active; 'I' for Inactive)
REMARK    1  A    between atoms: C_1  and  C_2
REMARK    2  A    between atoms: C_6  and  C_7
REMARK    3  A    between atoms: C_11  and  C_12
REMARK                            x       y       z     vdW  Elec       q    Type
REMARK                         _______ _______ _______ _____ _____    ______ ____
ROOT
ATOM      1  C   UNL     1       6.383   4.586  15.190  0.00  0.00    +0.000 A 
ATOM      2  C   UNL     1       5.174   3.976  15.487  0.00  0.00    +0.000 A 
ATOM      3  C   UNL     1       4.928   3.976  16.880  0.00  0.00    +0.000 A 
ATOM      4  N   UNL     1       3.813   3.368  17.476  0.00  0.00    +0.000 NA
ATOM      5  C   UNL     1       3.790   3.469  18.774  0.00  0.00    +0.000 A 
ATOM      6  N   UNL     1       4.720   4.147  19.538  0.00  0.00    +0.000 N 
ATOM      7  C   UNL     1       5.855   4.727  19.023  0.00  0.00    +0.000 A 
ATOM      8  O   UNL     1       6.696   5.251  19.746  0.00  0.00    +0.000 OA
ATOM      9  C   UNL     1       5.905   4.603  17.598  0.00  0.00    +0.000 A 
ATOM     10  S   UNL     1       7.155   5.167  16.614  0.00  0.00    +0.000 S 
ATOM     11  H   UNL     1       4.617   4.115  20.546  0.00  0.00    +0.000 HD
ENDROOT
BRANCH   1  17
ATOM     12  C   UNL     1       5.539   3.054  12.339  0.00  0.00    +0.000 C 
ATOM     13  C   UNL     1       6.597   4.063  12.597  0.00  0.00    +0.000 A 
ATOM     14  N   UNL     1       7.366   4.472  11.575  0.00  0.00    +0.000 NA
ATOM     15  N   UNL     1       8.176   5.388  12.121  0.00  0.00    +0.000 N 
ATOM     16  C   UNL     1       7.955   5.591  13.449  0.00  0.00    +0.000 A 
ATOM     17  C   UNL     1       6.943   4.727  13.808  0.00  0.00    +0.000 A 
ATOM     18  H   UNL     1       8.861   5.838  11.522  0.00  0.00    +0.000 HD
ENDBRANCH   1  17
BRANCH   5  19
ATOM     19  C   UNL     1       2.666   2.814  19.567  0.00  0.00    +0.000 C 
ATOM     20  C   UNL     1       1.397   3.642  19.603  0.00  0.00    +0.000 C 
ATOM     21  C   UNL     1       0.659   3.050  20.789  0.00  0.00    +0.000 C 
ATOM     22  C   UNL     1       1.757   2.561  21.724  0.00  0.00    +0.000 C 
ATOM     23  N   UNL     1       3.025   2.736  21.003  0.00  0.00    +0.000 NA
ATOM     24  H   UNL     1       3.630   1.928  21.162  0.00  0.00    +0.000 HD
ENDBRANCH   5  19
TORSDOF 2
ENDMDL
