MODEL 1
REMARK VINA RESULT:      -7.9      0.000      0.000
REMARK  Name = 
REMARK  2 active torsions:
REMARK  status: ('A' for Active; 'I' for Inactive)
REMARK    1  A    between atoms: C_8  and  C_10
REMARK    2  A    between atoms: C_13  and  N_14
REMARK                            x       y       z     vdW  Elec       q    Type
REMARK                         _______ _______ _______ _____ _____    ______ ____
ROOT
ATOM      1  O   UNL     1       1.190  12.939  19.160  0.00  0.00    +0.000 OA
ATOM      2  C   UNL     1       0.660  11.862  19.408  0.00  0.00    +0.000 C 
ATOM      3  C   UNL     1       1.161  10.935  20.483  0.00  0.00    +0.000 C 
ATOM      4  C   UNL     1       1.033   9.496  19.984  0.00  0.00    +0.000 C 
ATOM      5  C   UNL     1       1.904   9.235  18.739  0.00  0.00    +0.000 C 
ATOM      6  C   UNL     1       1.764   7.781  18.323  0.00  0.00    +0.000 C 
ATOM      7  N   UNL     1       2.250   6.914  19.382  0.00  0.00    +0.000 N 
ATOM      8  C   UNL     1       3.275   5.956  19.288  0.00  0.00    +0.000 C 
ATOM      9  O   UNL     1       3.603   5.242  20.237  0.00  0.00    +0.000 OA
ATOM     10  C   UNL     1       1.465   7.050  20.608  0.00  0.00    +0.000 C 
ATOM     11  C   UNL     1       1.483   8.510  21.095  0.00  0.00    +0.000 C 
ATOM     12  O   UNL     1      -0.353   9.198  19.695  0.00  0.00    +0.000 OA
ATOM     13  C   UNL     1      -0.974  10.094  18.866  0.00  0.00    +0.000 A 
ATOM     14  C   UNL     1      -2.098   9.635  18.182  0.00  0.00    +0.000 A 
ATOM     15  C   UNL     1      -2.759  10.475  17.283  0.00  0.00    +0.000 A 
ATOM     16  C   UNL     1      -2.300  11.778  17.073  0.00  0.00    +0.000 A 
ATOM     17  C   UNL     1      -1.182  12.245  17.764  0.00  0.00    +0.000 A 
ATOM     18  C   UNL     1      -0.529  11.401  18.666  0.00  0.00    +0.000 A 
ENDROOT
BRANCH   8  19
ATOM     19  C   UNL     1       3.961   5.734  17.977  0.00  0.00    +0.000 A 
ATOM     20  C   UNL     1       3.883   4.522  17.272  0.00  0.00    +0.000 A 
ATOM     21  C   UNL     1       4.719   4.236  16.213  0.00  0.00    +0.000 A 
ATOM     22  C   UNL     1       5.534   5.243  15.700  0.00  0.00    +0.000 A 
ATOM     23  C   UNL     1       5.480   6.532  16.257  0.00  0.00    +0.000 A 
ATOM     24  C   UNL     1       4.727   6.765  17.409  0.00  0.00    +0.000 A 
BRANCH  22  25
ATOM     25  N   UNL     1       6.466   4.952  14.611  0.00  0.00    +0.000 N 
ATOM     26  O   UNL     1       7.563   5.559  14.621  0.00  0.00    +0.000 OA
ATOM     27  O   UNL     1       6.116   4.160  13.743  0.00  0.00    +0.000 OA
ENDBRANCH  22  25
ENDBRANCH   8  19
TORSDOF 2
ENDMDL
MODEL 2
REMARK VINA RESULT:      -7.3      2.490      7.911
REMARK  Name = 
REMARK  2 active torsions:
REMARK  status: ('A' for Active; 'I' for Inactive)
REMARK    1  A    between atoms: C_8  and  C_10
REMARK    2  A    between atoms: C_13  and  N_14
REMARK                            x       y       z     vdW  Elec       q    Type
REMARK                         _______ _______ _______ _____ _____    ______ ____
ROOT
ATOM      1  O   UNL     1       3.652   3.917  15.814  0.00  0.00    +0.000 OA
ATOM      2  C   UNL     1       3.800   4.118  17.014  0.00  0.00    +0.000 C 
ATOM      3  C   UNL     1       2.691   3.932  18.015  0.00  0.00    +0.000 C 
ATOM      4  C   UNL     1       2.790   5.040  19.062  0.00  0.00    +0.000 C 
ATOM      5  C   UNL     1       2.595   6.440  18.446  0.00  0.00    +0.000 C 
ATOM      6  C   UNL     1       2.661   7.488  19.544  0.00  0.00    +0.000 C 
ATOM      7  N   UNL     1       1.583   7.278  20.494  0.00  0.00    +0.000 N 
ATOM      8  C   UNL     1       0.581   8.195  20.852  0.00  0.00    +0.000 C 
ATOM      9  O   UNL     1      -0.282   7.940  21.694  0.00  0.00    +0.000 OA
ATOM     10  C   UNL     1       1.692   5.988  21.174  0.00  0.00    +0.000 C 
ATOM     11  C   UNL     1       1.697   4.841  20.147  0.00  0.00    +0.000 C 
ATOM     12  O   UNL     1       4.068   4.966  19.737  0.00  0.00    +0.000 OA
ATOM     13  C   UNL     1       5.156   4.936  18.907  0.00  0.00    +0.000 A 
ATOM     14  C   UNL     1       6.371   5.342  19.456  0.00  0.00    +0.000 A 
ATOM     15  C   UNL     1       7.518   5.383  18.659  0.00  0.00    +0.000 A 
ATOM     16  C   UNL     1       7.452   5.011  17.314  0.00  0.00    +0.000 A 
ATOM     17  C   UNL     1       6.241   4.592  16.764  0.00  0.00    +0.000 A 
ATOM     18  C   UNL     1       5.099   4.549  17.567  0.00  0.00    +0.000 A 
ENDROOT
BRANCH   8  19
ATOM     19  C   UNL     1       0.583   9.566  20.249  0.00  0.00    +0.000 A 
ATOM     20  C   UNL     1       0.315   9.800  18.891  0.00  0.00    +0.000 A 
ATOM     21  C   UNL     1       0.574  11.015  18.293  0.00  0.00    +0.000 A 
ATOM     22  C   UNL     1       0.931  12.102  19.089  0.00  0.00    +0.000 A 
ATOM     23  C   UNL     1       1.005  11.947  20.484  0.00  0.00    +0.000 A 
ATOM     24  C   UNL     1       0.868  10.680  21.055  0.00  0.00    +0.000 A 
BRANCH  22  25
ATOM     25  N   UNL     1       1.260  13.387  18.475  0.00  0.00    +0.000 N 
ATOM     26  O   UNL     1       2.348  13.463  17.855  0.00  0.00    +0.000 OA
ATOM     27  O   UNL     1       0.477  14.318  18.621  0.00  0.00    +0.000 OA
ENDBRANCH  22  25
ENDBRANCH   8  19
TORSDOF 2
ENDMDL
MODEL 3
REMARK VINA RESULT:      -7.0      2.445      8.159
REMARK  Name = 
REMARK  2 active torsions:
REMARK  status: ('A' for Active; 'I' for Inactive)
REMARK    1  A    between atoms: C_8  and  C_10
REMARK    2  A    between atoms: C_13  and  N_14
REMARK                            x       y       z     vdW  Elec       q    Type
REMARK                         _______ _______ _______ _____ _____    ______ ____
ROOT
ATOM      1  O   UNL     1       3.643   3.880  15.698  0.00  0.00    +0.000 OA
ATOM      2  C   UNL     1       3.787   4.035  16.905  0.00  0.00    +0.000 C 
ATOM      3  C   UNL     1       2.670   3.832  17.894  0.00  0.00    +0.000 C 
ATOM      4  C   UNL     1       2.780   4.900  18.980  0.00  0.00    +0.000 C 
ATOM      5  C   UNL     1       2.611   6.323  18.413  0.00  0.00    +0.000 C 
ATOM      6  C   UNL     1       2.688   7.330  19.549  0.00  0.00    +0.000 C 
ATOM      7  N   UNL     1       1.601   7.103  20.486  0.00  0.00    +0.000 N 
ATOM      8  C   UNL     1       0.611   8.023  20.872  0.00  0.00    +0.000 C 
ATOM      9  O   UNL     1      -0.260   7.751  21.699  0.00  0.00    +0.000 OA
ATOM     10  C   UNL     1       1.685   5.788  21.119  0.00  0.00    +0.000 C 
ATOM     11  C   UNL     1       1.678   4.679  20.052  0.00  0.00    +0.000 C 
ATOM     12  O   UNL     1       4.053   4.781  19.658  0.00  0.00    +0.000 OA
ATOM     13  C   UNL     1       5.146   4.764  18.833  0.00  0.00    +0.000 A 
ATOM     14  C   UNL     1       6.364   5.130  19.402  0.00  0.00    +0.000 A 
ATOM     15  C   UNL     1       7.516   5.181  18.613  0.00  0.00    +0.000 A 
ATOM     16  C   UNL     1       7.451   4.858  17.255  0.00  0.00    +0.000 A 
ATOM     17  C   UNL     1       6.236   4.479  16.684  0.00  0.00    +0.000 A 
ATOM     18  C   UNL     1       5.089   4.425  17.480  0.00  0.00    +0.000 A 
ENDROOT
BRANCH   8  19
ATOM     19  C   UNL     1       0.638   9.414  20.318  0.00  0.00    +0.000 A 
ATOM     20  C   UNL     1       1.065  10.523  21.065  0.00  0.00    +0.000 A 
ATOM     21  C   UNL     1       0.842  11.818  20.646  0.00  0.00    +0.000 A 
ATOM     22  C   UNL     1       0.352  12.041  19.361  0.00  0.00    +0.000 A 
ATOM     23  C   UNL     1       0.108  10.949  18.510  0.00  0.00    +0.000 A 
ATOM     24  C   UNL     1       0.216   9.645  18.998  0.00  0.00    +0.000 A 
BRANCH  22  25
ATOM     25  N   UNL     1       0.058  13.401  18.912  0.00  0.00    +0.000 N 
ATOM     26  O   UNL     1      -0.630  13.523  17.870  0.00  0.00    +0.000 OA
ATOM     27  O   UNL     1       0.517  14.338  19.554  0.00  0.00    +0.000 OA
ENDBRANCH  22  25
ENDBRANCH   8  19
TORSDOF 2
ENDMDL
MODEL 4
REMARK VINA RESULT:      -7.0      3.567      6.290
REMARK  Name = 
REMARK  2 active torsions:
REMARK  status: ('A' for Active; 'I' for Inactive)
REMARK    1  A    between atoms: C_8  and  C_10
REMARK    2  A    between atoms: C_13  and  N_14
REMARK                            x       y       z     vdW  Elec       q    Type
REMARK                         _______ _______ _______ _____ _____    ______ ____
ROOT
ATOM      1  O   UNL     1       2.452  15.972  22.977  0.00  0.00    +0.000 OA
ATOM      2  C   UNL     1       2.150  15.864  21.794  0.00  0.00    +0.000 C 
ATOM      3  C   UNL     1       0.788  15.413  21.337  0.00  0.00    +0.000 C 
ATOM      4  C   UNL     1       0.958  14.514  20.114  0.00  0.00    +0.000 C 
ATOM      5  C   UNL     1       1.756  13.236  20.440  0.00  0.00    +0.000 C 
ATOM      6  C   UNL     1       1.850  12.370  19.195  0.00  0.00    +0.000 C 
ATOM      7  N   UNL     1       0.522  11.957  18.778  0.00  0.00    +0.000 N 
ATOM      8  C   UNL     1       0.054  10.640  18.624  0.00  0.00    +0.000 C 
ATOM      9  O   UNL     1      -1.087  10.383  18.237  0.00  0.00    +0.000 OA
ATOM     10  C   UNL     1      -0.316  13.095  18.404  0.00  0.00    +0.000 C 
ATOM     11  C   UNL     1      -0.435  14.082  19.578  0.00  0.00    +0.000 C 
ATOM     12  O   UNL     1       1.606  15.249  19.050  0.00  0.00    +0.000 OA
ATOM     13  C   UNL     1       2.774  15.868  19.406  0.00  0.00    +0.000 A 
ATOM     14  C   UNL     1       3.662  16.167  18.374  0.00  0.00    +0.000 A 
ATOM     15  C   UNL     1       4.895  16.756  18.663  0.00  0.00    +0.000 A 
ATOM     16  C   UNL     1       5.237  17.056  19.985  0.00  0.00    +0.000 A 
ATOM     17  C   UNL     1       4.346  16.770  21.019  0.00  0.00    +0.000 A 
ATOM     18  C   UNL     1       3.113  16.185  20.722  0.00  0.00    +0.000 A 
ENDROOT
BRANCH   8  19
ATOM     19  C   UNL     1       0.982   9.492  18.872  0.00  0.00    +0.000 A 
ATOM     20  C   UNL     1       1.806   8.950  17.874  0.00  0.00    +0.000 A 
ATOM     21  C   UNL     1       2.454   7.743  18.034  0.00  0.00    +0.000 A 
ATOM     22  C   UNL     1       2.450   7.131  19.286  0.00  0.00    +0.000 A 
ATOM     23  C   UNL     1       1.803   7.759  20.365  0.00  0.00    +0.000 A 
ATOM     24  C   UNL     1       1.045   8.912  20.150  0.00  0.00    +0.000 A 
BRANCH  22  25
ATOM     25  N   UNL     1       3.086   5.827  19.470  0.00  0.00    +0.000 N 
ATOM     26  O   UNL     1       2.683   5.126  20.430  0.00  0.00    +0.000 OA
ATOM     27  O   UNL     1       3.984   5.505  18.702  0.00  0.00    +0.000 OA
ENDBRANCH  22  25
ENDBRANCH   8  19
TORSDOF 2
ENDMDL
MODEL 5
REMARK VINA RESULT:      -7.0      3.043      4.776
REMARK  Name = 
REMARK  2 active torsions:
REMARK  status: ('A' for Active; 'I' for Inactive)
REMARK    1  A    between atoms: C_8  and  C_10
REMARK    2  A    between atoms: C_13  and  N_14
REMARK                            x       y       z     vdW  Elec       q    Type
REMARK                         _______ _______ _______ _____ _____    ______ ____
ROOT
ATOM      1  O   UNL     1      -3.733  11.883  18.846  0.00  0.00    +0.000 OA
ATOM      2  C   UNL     1      -2.561  12.053  19.162  0.00  0.00    +0.000 C 
ATOM      3  C   UNL     1      -1.430  11.986  18.171  0.00  0.00    +0.000 C 
ATOM      4  C   UNL     1      -0.237  11.304  18.838  0.00  0.00    +0.000 C 
ATOM      5  C   UNL     1      -0.552   9.851  19.245  0.00  0.00    +0.000 C 
ATOM      6  C   UNL     1       0.685   9.221  19.861  0.00  0.00    +0.000 C 
ATOM      7  N   UNL     1       1.758   9.176  18.882  0.00  0.00    +0.000 N 
ATOM      8  C   UNL     1       2.443   8.035  18.430  0.00  0.00    +0.000 C 
ATOM      9  O   UNL     1       3.364   8.094  17.613  0.00  0.00    +0.000 OA
ATOM     10  C   UNL     1       2.168  10.512  18.453  0.00  0.00    +0.000 C 
ATOM     11  C   UNL     1       0.970  11.275  17.861  0.00  0.00    +0.000 C 
ATOM     12  O   UNL     1       0.179  12.067  19.995  0.00  0.00    +0.000 OA
ATOM     13  C   UNL     1      -0.821  12.354  20.886  0.00  0.00    +0.000 A 
ATOM     14  C   UNL     1      -0.430  12.641  22.192  0.00  0.00    +0.000 A 
ATOM     15  C   UNL     1      -1.395  12.899  23.169  0.00  0.00    +0.000 A 
ATOM     16  C   UNL     1      -2.752  12.879  22.837  0.00  0.00    +0.000 A 
ATOM     17  C   UNL     1      -3.147  12.605  21.527  0.00  0.00    +0.000 A 
ATOM     18  C   UNL     1      -2.177  12.353  20.555  0.00  0.00    +0.000 A 
ENDROOT
BRANCH   8  19
ATOM     19  C   UNL     1       2.101   6.693  18.999  0.00  0.00    +0.000 A 
ATOM     20  C   UNL     1       1.984   6.458  20.378  0.00  0.00    +0.000 A 
ATOM     21  C   UNL     1       1.931   5.183  20.902  0.00  0.00    +0.000 A 
ATOM     22  C   UNL     1       1.797   4.099  20.038  0.00  0.00    +0.000 A 
ATOM     23  C   UNL     1       1.702   4.321  18.653  0.00  0.00    +0.000 A 
ATOM     24  C   UNL     1       1.890   5.605  18.136  0.00  0.00    +0.000 A 
BRANCH  22  25
ATOM     25  N   UNL     1       1.790   2.735  20.564  0.00  0.00    +0.000 N 
ATOM     26  O   UNL     1       1.776   2.603  21.812  0.00  0.00    +0.000 OA
ATOM     27  O   UNL     1       1.825   1.805  19.768  0.00  0.00    +0.000 OA
ENDBRANCH  22  25
ENDBRANCH   8  19
TORSDOF 2
ENDMDL
MODEL 6
REMARK VINA RESULT:      -6.8      0.446      1.184
REMARK  Name = 
REMARK  2 active torsions:
REMARK  status: ('A' for Active; 'I' for Inactive)
REMARK    1  A    between atoms: C_8  and  C_10
REMARK    2  A    between atoms: C_13  and  N_14
REMARK                            x       y       z     vdW  Elec       q    Type
REMARK                         _______ _______ _______ _____ _____    ______ ____
ROOT
ATOM      1  O   UNL     1       1.353  12.848  19.469  0.00  0.00    +0.000 OA
ATOM      2  C   UNL     1       0.756  11.788  19.619  0.00  0.00    +0.000 C 
ATOM      3  C   UNL     1       1.085  10.815  20.720  0.00  0.00    +0.000 C 
ATOM      4  C   UNL     1       0.965   9.396  20.168  0.00  0.00    +0.000 C 
ATOM      5  C   UNL     1       1.973   9.129  19.032  0.00  0.00    +0.000 C 
ATOM      6  C   UNL     1       1.831   7.692  18.560  0.00  0.00    +0.000 C 
ATOM      7  N   UNL     1       2.149   6.781  19.646  0.00  0.00    +0.000 N 
ATOM      8  C   UNL     1       3.140   5.784  19.651  0.00  0.00    +0.000 C 
ATOM      9  O   UNL     1       3.322   5.035  20.612  0.00  0.00    +0.000 OA
ATOM     10  C   UNL     1       1.224   6.920  20.770  0.00  0.00    +0.000 C 
ATOM     11  C   UNL     1       1.237   8.365  21.297  0.00  0.00    +0.000 C 
ATOM     12  O   UNL     1      -0.384   9.162  19.703  0.00  0.00    +0.000 OA
ATOM     13  C   UNL     1      -0.864  10.102  18.830  0.00  0.00    +0.000 A 
ATOM     14  C   UNL     1      -1.912   9.706  18.001  0.00  0.00    +0.000 A 
ATOM     15  C   UNL     1      -2.424  10.594  17.051  0.00  0.00    +0.000 A 
ATOM     16  C   UNL     1      -1.893  11.881  16.936  0.00  0.00    +0.000 A 
ATOM     17  C   UNL     1      -0.853  12.285  17.773  0.00  0.00    +0.000 A 
ATOM     18  C   UNL     1      -0.349  11.394  18.723  0.00  0.00    +0.000 A 
ENDROOT
BRANCH   8  19
ATOM     19  C   UNL     1       3.975   5.565  18.428  0.00  0.00    +0.000 A 
ATOM     20  C   UNL     1       4.683   6.599  17.794  0.00  0.00    +0.000 A 
ATOM     21  C   UNL     1       5.228   6.448  16.536  0.00  0.00    +0.000 A 
ATOM     22  C   UNL     1       5.246   5.184  15.950  0.00  0.00    +0.000 A 
ATOM     23  C   UNL     1       4.727   4.084  16.655  0.00  0.00    +0.000 A 
ATOM     24  C   UNL     1       4.063   4.280  17.867  0.00  0.00    +0.000 A 
BRANCH  22  25
ATOM     25  N   UNL     1       5.771   5.007  14.597  0.00  0.00    +0.000 N 
ATOM     26  O   UNL     1       5.133   4.245  13.831  0.00  0.00    +0.000 OA
ATOM     27  O   UNL     1       6.809   5.586  14.296  0.00  0.00    +0.000 OA
ENDBRANCH  22  25
ENDBRANCH   8  19
TORSDOF 2
ENDMDL
MODEL 7
REMARK VINA RESULT:      -6.8      2.979      4.799
REMARK  Name = 
REMARK  2 active torsions:
REMARK  status: ('A' for Active; 'I' for Inactive)
REMARK    1  A    between atoms: C_8  and  C_10
REMARK    2  A    between atoms: C_13  and  N_14
REMARK                            x       y       z     vdW  Elec       q    Type
REMARK                         _______ _______ _______ _____ _____    ______ ____
ROOT
ATOM      1  O   UNL     1      -3.796  11.728  18.850  0.00  0.00    +0.000 OA
ATOM      2  C   UNL     1      -2.630  11.950  19.157  0.00  0.00    +0.000 C 
ATOM      3  C   UNL     1      -1.515  11.992  18.147  0.00  0.00    +0.000 C 
ATOM      4  C   UNL     1      -0.274  11.350  18.765  0.00  0.00    +0.000 C 
ATOM      5  C   UNL     1      -0.500   9.864  19.108  0.00  0.00    +0.000 C 
ATOM      6  C   UNL     1       0.781   9.278  19.676  0.00  0.00    +0.000 C 
ATOM      7  N   UNL     1       1.837   9.338  18.681  0.00  0.00    +0.000 N 
ATOM      8  C   UNL     1       2.577   8.259  18.167  0.00  0.00    +0.000 C 
ATOM      9  O   UNL     1       3.479   8.408  17.340  0.00  0.00    +0.000 OA
ATOM     10  C   UNL     1       2.164  10.713  18.307  0.00  0.00    +0.000 C 
ATOM     11  C   UNL     1       0.915  11.433  17.770  0.00  0.00    +0.000 C 
ATOM     12  O   UNL     1       0.119  12.082  19.949  0.00  0.00    +0.000 OA
ATOM     13  C   UNL     1      -0.880  12.272  20.866  0.00  0.00    +0.000 A 
ATOM     14  C   UNL     1      -0.483  12.521  22.179  0.00  0.00    +0.000 A 
ATOM     15  C   UNL     1      -1.444  12.679  23.181  0.00  0.00    +0.000 A 
ATOM     16  C   UNL     1      -2.803  12.598  22.868  0.00  0.00    +0.000 A 
ATOM     17  C   UNL     1      -3.205  12.362  21.553  0.00  0.00    +0.000 A 
ATOM     18  C   UNL     1      -2.239  12.208  20.556  0.00  0.00    +0.000 A 
ENDROOT
BRANCH   8  19
ATOM     19  C   UNL     1       2.321   6.876  18.679  0.00  0.00    +0.000 A 
ATOM     20  C   UNL     1       2.193   5.762  17.834  0.00  0.00    +0.000 A 
ATOM     21  C   UNL     1       1.702   4.555  18.283  0.00  0.00    +0.000 A 
ATOM     22  C   UNL     1       1.504   4.368  19.650  0.00  0.00    +0.000 A 
ATOM     23  C   UNL     1       1.823   5.403  20.546  0.00  0.00    +0.000 A 
ATOM     24  C   UNL     1       2.193   6.659  20.061  0.00  0.00    +0.000 A 
BRANCH  22  25
ATOM     25  N   UNL     1       0.937   3.116  20.147  0.00  0.00    +0.000 N 
ATOM     26  O   UNL     1       0.315   2.403  19.323  0.00  0.00    +0.000 OA
ATOM     27  O   UNL     1       1.074   2.846  21.335  0.00  0.00    +0.000 OA
ENDBRANCH  22  25
ENDBRANCH   8  19
TORSDOF 2
ENDMDL
MODEL 8
REMARK VINA RESULT:      -6.8      5.585      7.776
REMARK  Name = 
REMARK  2 active torsions:
REMARK  status: ('A' for Active; 'I' for Inactive)
REMARK    1  A    between atoms: C_8  and  C_10
REMARK    2  A    between atoms: C_13  and  N_14
REMARK                            x       y       z     vdW  Elec       q    Type
REMARK                         _______ _______ _______ _____ _____    ______ ____
ROOT
ATOM      1  O   UNL     1      -0.655   9.973  17.777  0.00  0.00    +0.000 OA
ATOM      2  C   UNL     1      -0.696  10.884  18.597  0.00  0.00    +0.000 C 
ATOM      3  C   UNL     1      -0.913  12.322  18.209  0.00  0.00    +0.000 C 
ATOM      4  C   UNL     1      -0.034  13.204  19.094  0.00  0.00    +0.000 C 
ATOM      5  C   UNL     1       1.467  12.916  18.892  0.00  0.00    +0.000 C 
ATOM      6  C   UNL     1       2.281  13.853  19.767  0.00  0.00    +0.000 C 
ATOM      7  N   UNL     1       2.046  15.231  19.371  0.00  0.00    +0.000 N 
ATOM      8  C   UNL     1       3.006  16.166  18.948  0.00  0.00    +0.000 C 
ATOM      9  O   UNL     1       2.718  17.327  18.657  0.00  0.00    +0.000 OA
ATOM     10  C   UNL     1       0.651  15.627  19.561  0.00  0.00    +0.000 C 
ATOM     11  C   UNL     1      -0.282  14.700  18.762  0.00  0.00    +0.000 C 
ATOM     12  O   UNL     1      -0.395  13.018  20.483  0.00  0.00    +0.000 OA
ATOM     13  C   UNL     1      -0.416  11.715  20.904  0.00  0.00    +0.000 A 
ATOM     14  C   UNL     1      -0.278  11.499  22.273  0.00  0.00    +0.000 A 
ATOM     15  C   UNL     1      -0.243  10.195  22.774  0.00  0.00    +0.000 A 
ATOM     16  C   UNL     1      -0.355   9.106  21.906  0.00  0.00    +0.000 A 
ATOM     17  C   UNL     1      -0.506   9.319  20.535  0.00  0.00    +0.000 A 
ATOM     18  C   UNL     1      -0.545  10.625  20.042  0.00  0.00    +0.000 A 
ENDROOT
BRANCH   8  19
ATOM     19  C   UNL     1       4.451  15.774  18.906  0.00  0.00    +0.000 A 
ATOM     20  C   UNL     1       5.036  15.139  17.800  0.00  0.00    +0.000 A 
ATOM     21  C   UNL     1       6.282  14.551  17.867  0.00  0.00    +0.000 A 
ATOM     22  C   UNL     1       7.067  14.752  19.000  0.00  0.00    +0.000 A 
ATOM     23  C   UNL     1       6.587  15.561  20.045  0.00  0.00    +0.000 A 
ATOM     24  C   UNL     1       5.275  16.037  20.013  0.00  0.00    +0.000 A 
BRANCH  22  25
ATOM     25  N   UNL     1       8.370  14.098  19.118  0.00  0.00    +0.000 N 
ATOM     26  O   UNL     1       9.010  13.904  18.056  0.00  0.00    +0.000 OA
ATOM     27  O   UNL     1       8.749  13.756  20.231  0.00  0.00    +0.000 OA
ENDBRANCH  22  25
ENDBRANCH   8  19
TORSDOF 2
ENDMDL
MODEL 9
REMARK VINA RESULT:      -6.8      5.591      7.789
REMARK  Name = 
REMARK  2 active torsions:
REMARK  status: ('A' for Active; 'I' for Inactive)
REMARK    1  A    between atoms: C_8  and  C_10
REMARK    2  A    between atoms: C_13  and  N_14
REMARK                            x       y       z     vdW  Elec       q    Type
REMARK                         _______ _______ _______ _____ _____    ______ ____
ROOT
ATOM      1  O   UNL     1      -0.669   9.972  17.755  0.00  0.00    +0.000 OA
ATOM      2  C   UNL     1      -0.660  10.867  18.593  0.00  0.00    +0.000 C 
ATOM      3  C   UNL     1      -0.799  12.322  18.234  0.00  0.00    +0.000 C 
ATOM      4  C   UNL     1       0.125  13.137  19.137  0.00  0.00    +0.000 C 
ATOM      5  C   UNL     1       1.608  12.773  18.929  0.00  0.00    +0.000 C 
ATOM      6  C   UNL     1       2.471  13.647  19.822  0.00  0.00    +0.000 C 
ATOM      7  N   UNL     1       2.311  15.043  19.454  0.00  0.00    +0.000 N 
ATOM      8  C   UNL     1       3.320  15.933  19.049  0.00  0.00    +0.000 C 
ATOM      9  O   UNL     1       3.095  17.115  18.782  0.00  0.00    +0.000 OA
ATOM     10  C   UNL     1       0.939  15.510  19.652  0.00  0.00    +0.000 C 
ATOM     11  C   UNL     1      -0.041  14.651  18.835  0.00  0.00    +0.000 C 
ATOM     12  O   UNL     1      -0.247  12.943  20.522  0.00  0.00    +0.000 OA
ATOM     13  C   UNL     1      -0.338  11.635  20.916  0.00  0.00    +0.000 A 
ATOM     14  C   UNL     1      -0.213  11.384  22.281  0.00  0.00    +0.000 A 
ATOM     15  C   UNL     1      -0.249  10.071  22.756  0.00  0.00    +0.000 A 
ATOM     16  C   UNL     1      -0.419   9.007  21.865  0.00  0.00    +0.000 A 
ATOM     17  C   UNL     1      -0.557   9.255  20.500  0.00  0.00    +0.000 A 
ATOM     18  C   UNL     1      -0.525  10.571  20.032  0.00  0.00    +0.000 A 
ENDROOT
BRANCH   8  19
ATOM     19  C   UNL     1       4.742  15.465  18.999  0.00  0.00    +0.000 A 
ATOM     20  C   UNL     1       5.623  15.589  20.085  0.00  0.00    +0.000 A 
ATOM     21  C   UNL     1       6.983  15.402  19.950  0.00  0.00    +0.000 A 
ATOM     22  C   UNL     1       7.482  14.891  18.754  0.00  0.00    +0.000 A 
ATOM     23  C   UNL     1       6.595  14.561  17.714  0.00  0.00    +0.000 A 
ATOM     24  C   UNL     1       5.240  14.880  17.824  0.00  0.00    +0.000 A 
BRANCH  22  25
ATOM     25  N   UNL     1       8.924  14.732  18.566  0.00  0.00    +0.000 N 
ATOM     26  O   UNL     1       9.311  13.702  17.963  0.00  0.00    +0.000 OA
ATOM     27  O   UNL     1       9.667  15.590  19.026  0.00  0.00    +0.000 OA
ENDBRANCH  22  25
ENDBRANCH   8  19
TORSDOF 2
ENDMDL
