MODEL 1
REMARK VINA RESULT:      -7.7      0.000      0.000
REMARK  Name = 
REMARK  7 active torsions:
REMARK  status: ('A' for Active; 'I' for Inactive)
REMARK    1  A    between atoms: C_1  and  N_2
REMARK    2  A    between atoms: N_2  and  C_3
REMARK    3  A    between atoms: N_11  and  S_12
REMARK    4  A    between atoms: S_12  and  C_15
REMARK    5  A    between atoms: C_22  and  C_23
REMARK    6  A    between atoms: C_23  and  C_24
REMARK    7  A    between atoms: C_24  and  O_25
REMARK                            x       y       z     vdW  Elec       q    Type
REMARK                         _______ _______ _______ _____ _____    ______ ____
ROOT
ATOM      1  C   UNL     1       2.335   4.429  17.719  0.00  0.00    +0.000 C 
ATOM      2  C   UNL     1       2.525   4.611  19.308  0.00  0.00    +0.000 A 
ATOM      3  C   UNL     1       1.754   4.821  20.440  0.00  0.00    +0.000 A 
ATOM      4  C   UNL     1       1.574   6.122  20.947  0.00  0.00    +0.000 A 
ATOM      5  C   UNL     1       1.901   7.164  20.064  0.00  0.00    +0.000 A 
ATOM      6  C   UNL     1       2.748   6.926  18.967  0.00  0.00    +0.000 A 
ATOM      7  C   UNL     1       2.529   7.985  18.041  0.00  0.00    +0.000 A 
ATOM      8  C   UNL     1       1.701   8.903  18.653  0.00  0.00    +0.000 A 
ATOM      9  N   UNL     1       1.519   8.487  19.949  0.00  0.00    +0.000 N 
ATOM     10  C   UNL     1       3.348   5.657  18.917  0.00  0.00    +0.000 A 
ATOM     11  C   UNL     1       3.880   4.777  17.799  0.00  0.00    +0.000 C 
ENDROOT
BRANCH   1  13
ATOM     12  C   UNL     1       2.972   2.147  17.959  0.00  0.00    +0.000 C 
ATOM     13  N   UNL     1       2.198   3.086  17.156  0.00  0.00    +0.000 NA
ATOM     14  H   UNL     1       2.434   2.993  16.171  0.00  0.00    +0.000 HD
ENDBRANCH   1  13
BRANCH   9  15
ATOM     15  S   UNL     1       0.653   9.406  21.084  0.00  0.00    +0.000 S 
ATOM     16  O   UNL     1      -0.573   8.664  21.363  0.00  0.00    +0.000 OA
ATOM     17  O   UNL     1       1.606   9.702  22.130  0.00  0.00    +0.000 OA
BRANCH  15  18
ATOM     18  C   UNL     1       0.198  10.922  20.277  0.00  0.00    +0.000 A 
ATOM     19  C   UNL     1      -1.014  11.026  19.586  0.00  0.00    +0.000 A 
ATOM     20  C   UNL     1      -1.396  12.252  19.037  0.00  0.00    +0.000 A 
ATOM     21  C   UNL     1      -0.575  13.369  19.182  0.00  0.00    +0.000 A 
ATOM     22  C   UNL     1       0.632  13.268  19.875  0.00  0.00    +0.000 A 
ATOM     23  C   UNL     1       1.021  12.045  20.426  0.00  0.00    +0.000 A 
ENDBRANCH  15  18
ENDBRANCH   9  15
BRANCH  11  24
ATOM     24  C   UNL     1       4.919   5.395  16.887  0.00  0.00    +0.000 C 
BRANCH  24  25
ATOM     25  C   UNL     1       6.114   4.459  16.763  0.00  0.00    +0.000 C 
BRANCH  25  26
ATOM     26  O   UNL     1       6.566   4.083  18.053  0.00  0.00    +0.000 OA
ATOM     27  H   UNL     1       6.423   4.848  18.642  0.00  0.00    +0.000 HD
ENDBRANCH  25  26
ENDBRANCH  24  25
ENDBRANCH  11  24
TORSDOF 6
ENDMDL
MODEL 2
REMARK VINA RESULT:      -7.6      0.581      1.128
REMARK  Name = 
REMARK  7 active torsions:
REMARK  status: ('A' for Active; 'I' for Inactive)
REMARK    1  A    between atoms: C_1  and  N_2
REMARK    2  A    between atoms: N_2  and  C_3
REMARK    3  A    between atoms: N_11  and  S_12
REMARK    4  A    between atoms: S_12  and  C_15
REMARK    5  A    between atoms: C_22  and  C_23
REMARK    6  A    between atoms: C_23  and  C_24
REMARK    7  A    between atoms: C_24  and  O_25
REMARK                            x       y       z     vdW  Elec       q    Type
REMARK                         _______ _______ _______ _____ _____    ______ ____
ROOT
ATOM      1  C   UNL     1       2.305   4.586  17.676  0.00  0.00    +0.000 C 
ATOM      2  C   UNL     1       2.558   4.857  19.243  0.00  0.00    +0.000 A 
ATOM      3  C   UNL     1       1.830   5.112  20.394  0.00  0.00    +0.000 A 
ATOM      4  C   UNL     1       1.643   6.434  20.840  0.00  0.00    +0.000 A 
ATOM      5  C   UNL     1       1.910   7.434  19.890  0.00  0.00    +0.000 A 
ATOM      6  C   UNL     1       2.715   7.154  18.771  0.00  0.00    +0.000 A 
ATOM      7  C   UNL     1       2.435   8.157  17.801  0.00  0.00    +0.000 A 
ATOM      8  C   UNL     1       1.613   9.091  18.399  0.00  0.00    +0.000 A 
ATOM      9  N   UNL     1       1.495   8.741  19.722  0.00  0.00    +0.000 N 
ATOM     10  C   UNL     1       3.340   5.896  18.763  0.00  0.00    +0.000 A 
ATOM     11  C   UNL     1       3.845   4.969  17.670  0.00  0.00    +0.000 C 
ENDROOT
BRANCH   1  13
ATOM     12  C   UNL     1       2.511   2.289  18.266  0.00  0.00    +0.000 C 
ATOM     13  N   UNL     1       2.174   3.213  17.191  0.00  0.00    +0.000 NA
ATOM     14  H   UNL     1       2.700   2.989  16.349  0.00  0.00    +0.000 HD
ENDBRANCH   1  13
BRANCH   9  15
ATOM     15  S   UNL     1       0.658   9.703  20.843  0.00  0.00    +0.000 S 
ATOM     16  O   UNL     1      -0.615   9.030  21.091  0.00  0.00    +0.000 OA
ATOM     17  O   UNL     1       1.603   9.940  21.911  0.00  0.00    +0.000 OA
BRANCH  15  18
ATOM     18  C   UNL     1       0.306  11.245  20.035  0.00  0.00    +0.000 A 
ATOM     19  C   UNL     1       1.250  12.279  20.029  0.00  0.00    +0.000 A 
ATOM     20  C   UNL     1       0.992  13.448  19.311  0.00  0.00    +0.000 A 
ATOM     21  C   UNL     1      -0.198  13.585  18.600  0.00  0.00    +0.000 A 
ATOM     22  C   UNL     1      -1.139  12.554  18.602  0.00  0.00    +0.000 A 
ATOM     23  C   UNL     1      -0.888  11.381  19.318  0.00  0.00    +0.000 A 
ENDBRANCH  15  18
ENDBRANCH   9  15
BRANCH  11  24
ATOM     24  C   UNL     1       4.830   5.557  16.684  0.00  0.00    +0.000 C 
BRANCH  24  25
ATOM     25  C   UNL     1       5.907   4.529  16.360  0.00  0.00    +0.000 C 
BRANCH  25  26
ATOM     26  O   UNL     1       5.392   3.220  16.543  0.00  0.00    +0.000 OA
ATOM     27  H   UNL     1       5.673   2.690  15.771  0.00  0.00    +0.000 HD
ENDBRANCH  25  26
ENDBRANCH  24  25
ENDBRANCH  11  24
TORSDOF 6
ENDMDL
MODEL 3
REMARK VINA RESULT:      -7.4      2.610      7.340
REMARK  Name = 
REMARK  7 active torsions:
REMARK  status: ('A' for Active; 'I' for Inactive)
REMARK    1  A    between atoms: C_1  and  N_2
REMARK    2  A    between atoms: N_2  and  C_3
REMARK    3  A    between atoms: N_11  and  S_12
REMARK    4  A    between atoms: S_12  and  C_15
REMARK    5  A    between atoms: C_22  and  C_23
REMARK    6  A    between atoms: C_23  and  C_24
REMARK    7  A    between atoms: C_24  and  O_25
REMARK                            x       y       z     vdW  Elec       q    Type
REMARK                         _______ _______ _______ _____ _____    ______ ____
ROOT
ATOM      1  C   UNL     1      -0.243   9.360  19.490  0.00  0.00    +0.000 C 
ATOM      2  C   UNL     1       1.248   9.507  18.899  0.00  0.00    +0.000 A 
ATOM      3  C   UNL     1       1.994   9.075  17.814  0.00  0.00    +0.000 A 
ATOM      4  C   UNL     1       2.827   7.946  17.927  0.00  0.00    +0.000 A 
ATOM      5  C   UNL     1       2.576   7.120  19.035  0.00  0.00    +0.000 A 
ATOM      6  C   UNL     1       1.878   7.619  20.149  0.00  0.00    +0.000 A 
ATOM      7  C   UNL     1       1.388   6.491  20.867  0.00  0.00    +0.000 A 
ATOM      8  C   UNL     1       1.926   5.364  20.280  0.00  0.00    +0.000 A 
ATOM      9  N   UNL     1       2.810   5.788  19.318  0.00  0.00    +0.000 N 
ATOM     10  C   UNL     1       1.606   8.997  20.138  0.00  0.00    +0.000 A 
ATOM     11  C   UNL     1       0.539   9.874  20.771  0.00  0.00    +0.000 C 
ENDROOT
BRANCH   1  13
ATOM     12  C   UNL     1      -1.602  10.224  17.736  0.00  0.00    +0.000 C 
ATOM     13  N   UNL     1      -1.259  10.354  19.146  0.00  0.00    +0.000 NA
ATOM     14  H   UNL     1      -1.027  11.319  19.371  0.00  0.00    +0.000 HD
ENDBRANCH   1  13
BRANCH   9  15
ATOM     15  S   UNL     1       3.778   4.708  18.437  0.00  0.00    +0.000 S 
ATOM     16  O   UNL     1       3.904   3.506  19.257  0.00  0.00    +0.000 OA
ATOM     17  O   UNL     1       3.182   4.660  17.121  0.00  0.00    +0.000 OA
BRANCH  15  18
ATOM     18  C   UNL     1       5.388   5.448  18.309  0.00  0.00    +0.000 A 
ATOM     19  C   UNL     1       5.704   6.289  17.236  0.00  0.00    +0.000 A 
ATOM     20  C   UNL     1       6.942   6.934  17.201  0.00  0.00    +0.000 A 
ATOM     21  C   UNL     1       7.858   6.744  18.234  0.00  0.00    +0.000 A 
ATOM     22  C   UNL     1       7.544   5.910  19.307  0.00  0.00    +0.000 A 
ATOM     23  C   UNL     1       6.307   5.261  19.348  0.00  0.00    +0.000 A 
ENDBRANCH  15  18
ENDBRANCH   9  15
BRANCH  11  24
ATOM     24  C   UNL     1       0.381   9.770  22.273  0.00  0.00    +0.000 C 
BRANCH  24  25
ATOM     25  C   UNL     1      -0.776  10.651  22.729  0.00  0.00    +0.000 C 
BRANCH  25  26
ATOM     26  O   UNL     1      -0.829  11.824  21.933  0.00  0.00    +0.000 OA
ATOM     27  H   UNL     1      -0.668  12.582  22.528  0.00  0.00    +0.000 HD
ENDBRANCH  25  26
ENDBRANCH  24  25
ENDBRANCH  11  24
TORSDOF 6
ENDMDL
MODEL 4
REMARK VINA RESULT:      -7.4      2.235      3.388
REMARK  Name = 
REMARK  7 active torsions:
REMARK  status: ('A' for Active; 'I' for Inactive)
REMARK    1  A    between atoms: C_1  and  N_2
REMARK    2  A    between atoms: N_2  and  C_3
REMARK    3  A    between atoms: N_11  and  S_12
REMARK    4  A    between atoms: S_12  and  C_15
REMARK    5  A    between atoms: C_22  and  C_23
REMARK    6  A    between atoms: C_23  and  C_24
REMARK    7  A    between atoms: C_24  and  O_25
REMARK                            x       y       z     vdW  Elec       q    Type
REMARK                         _______ _______ _______ _____ _____    ______ ____
ROOT
ATOM      1  C   UNL     1       4.253   5.416  19.434  0.00  0.00    +0.000 C 
ATOM      2  C   UNL     1       3.635   6.133  18.132  0.00  0.00    +0.000 A 
ATOM      3  C   UNL     1       3.728   7.338  17.454  0.00  0.00    +0.000 A 
ATOM      4  C   UNL     1       2.788   8.360  17.689  0.00  0.00    +0.000 A 
ATOM      5  C   UNL     1       2.023   8.220  18.858  0.00  0.00    +0.000 A 
ATOM      6  C   UNL     1       1.893   6.963  19.475  0.00  0.00    +0.000 A 
ATOM      7  C   UNL     1       1.482   7.203  20.817  0.00  0.00    +0.000 A 
ATOM      8  C   UNL     1       1.218   8.553  20.931  0.00  0.00    +0.000 A 
ATOM      9  N   UNL     1       1.341   9.099  19.677  0.00  0.00    +0.000 N 
ATOM     10  C   UNL     1       2.431   5.873  18.770  0.00  0.00    +0.000 A 
ATOM     11  C   UNL     1       2.976   4.513  19.173  0.00  0.00    +0.000 C 
ENDROOT
BRANCH   1  13
ATOM     12  C   UNL     1       6.612   5.421  19.108  0.00  0.00    +0.000 C 
ATOM     13  N   UNL     1       5.442   4.574  19.301  0.00  0.00    +0.000 NA
ATOM     14  H   UNL     1       5.397   3.856  18.581  0.00  0.00    +0.000 HD
ENDBRANCH   1  13
BRANCH   9  15
ATOM     15  S   UNL     1       0.982  10.727  19.358  0.00  0.00    +0.000 S 
ATOM     16  O   UNL     1       0.917  11.396  20.655  0.00  0.00    +0.000 OA
ATOM     17  O   UNL     1       1.940  11.131  18.353  0.00  0.00    +0.000 OA
BRANCH  15  18
ATOM     18  C   UNL     1      -0.645  10.764  18.646  0.00  0.00    +0.000 A 
ATOM     19  C   UNL     1      -1.012   9.845  17.657  0.00  0.00    +0.000 A 
ATOM     20  C   UNL     1      -2.323   9.831  17.177  0.00  0.00    +0.000 A 
ATOM     21  C   UNL     1      -3.263  10.726  17.683  0.00  0.00    +0.000 A 
ATOM     22  C   UNL     1      -2.901  11.640  18.672  0.00  0.00    +0.000 A 
ATOM     23  C   UNL     1      -1.591  11.661  19.157  0.00  0.00    +0.000 A 
ENDBRANCH  15  18
ENDBRANCH   9  15
BRANCH  11  24
ATOM     24  C   UNL     1       2.060   3.633  19.997  0.00  0.00    +0.000 C 
BRANCH  24  25
ATOM     25  C   UNL     1       2.292   2.171  19.637  0.00  0.00    +0.000 C 
BRANCH  25  26
ATOM     26  O   UNL     1       1.418   1.790  18.588  0.00  0.00    +0.000 OA
ATOM     27  H   UNL     1       0.793   1.136  18.957  0.00  0.00    +0.000 HD
ENDBRANCH  25  26
ENDBRANCH  24  25
ENDBRANCH  11  24
TORSDOF 6
ENDMDL
MODEL 5
REMARK VINA RESULT:      -7.4      2.704      7.468
REMARK  Name = 
REMARK  7 active torsions:
REMARK  status: ('A' for Active; 'I' for Inactive)
REMARK    1  A    between atoms: C_1  and  N_2
REMARK    2  A    between atoms: N_2  and  C_3
REMARK    3  A    between atoms: N_11  and  S_12
REMARK    4  A    between atoms: S_12  and  C_15
REMARK    5  A    between atoms: C_22  and  C_23
REMARK    6  A    between atoms: C_23  and  C_24
REMARK    7  A    between atoms: C_24  and  O_25
REMARK                            x       y       z     vdW  Elec       q    Type
REMARK                         _______ _______ _______ _____ _____    ______ ____
ROOT
ATOM      1  C   UNL     1       0.999  11.126  20.622  0.00  0.00    +0.000 C 
ATOM      2  C   UNL     1       0.604   9.628  21.062  0.00  0.00    +0.000 A 
ATOM      3  C   UNL     1       1.187   8.523  21.659  0.00  0.00    +0.000 A 
ATOM      4  C   UNL     1       1.708   7.480  20.870  0.00  0.00    +0.000 A 
ATOM      5  C   UNL     1       1.920   7.794  19.517  0.00  0.00    +0.000 A 
ATOM      6  C   UNL     1       1.251   8.883  18.929  0.00  0.00    +0.000 A 
ATOM      7  C   UNL     1       1.979   9.227  17.755  0.00  0.00    +0.000 A 
ATOM      8  C   UNL     1       2.949   8.263  17.574  0.00  0.00    +0.000 A 
ATOM      9  N   UNL     1       2.745   7.296  18.528  0.00  0.00    +0.000 N 
ATOM     10  C   UNL     1       0.272   9.505  19.722  0.00  0.00    +0.000 A 
ATOM     11  C   UNL     1      -0.322  10.902  19.773  0.00  0.00    +0.000 C 
ENDROOT
BRANCH   1  13
ATOM     12  C   UNL     1      -0.544  12.080  22.165  0.00  0.00    +0.000 C 
ATOM     13  N   UNL     1       0.765  12.237  21.545  0.00  0.00    +0.000 NA
ATOM     14  H   UNL     1       0.864  13.169  21.149  0.00  0.00    +0.000 HD
ENDBRANCH   1  13
BRANCH   9  15
ATOM     15  S   UNL     1       3.657   5.865  18.579  0.00  0.00    +0.000 S 
ATOM     16  O   UNL     1       4.028   5.565  17.198  0.00  0.00    +0.000 OA
ATOM     17  O   UNL     1       4.660   6.098  19.593  0.00  0.00    +0.000 OA
BRANCH  15  18
ATOM     18  C   UNL     1       2.565   4.580  19.138  0.00  0.00    +0.000 A 
ATOM     19  C   UNL     1       2.540   4.201  20.485  0.00  0.00    +0.000 A 
ATOM     20  C   UNL     1       1.610   3.254  20.921  0.00  0.00    +0.000 A 
ATOM     21  C   UNL     1       0.709   2.692  20.019  0.00  0.00    +0.000 A 
ATOM     22  C   UNL     1       0.729   3.072  18.677  0.00  0.00    +0.000 A 
ATOM     23  C   UNL     1       1.656   4.018  18.233  0.00  0.00    +0.000 A 
ENDBRANCH  15  18
ENDBRANCH   9  15
BRANCH  11  24
ATOM     24  C   UNL     1      -0.907  11.438  18.484  0.00  0.00    +0.000 C 
BRANCH  24  25
ATOM     25  C   UNL     1      -2.339  11.900  18.724  0.00  0.00    +0.000 C 
BRANCH  25  26
ATOM     26  O   UNL     1      -3.025  12.003  17.487  0.00  0.00    +0.000 OA
ATOM     27  H   UNL     1      -3.865  12.469  17.662  0.00  0.00    +0.000 HD
ENDBRANCH  25  26
ENDBRANCH  24  25
ENDBRANCH  11  24
TORSDOF 6
ENDMDL
MODEL 6
REMARK VINA RESULT:      -7.4      2.286      3.453
REMARK  Name = 
REMARK  7 active torsions:
REMARK  status: ('A' for Active; 'I' for Inactive)
REMARK    1  A    between atoms: C_1  and  N_2
REMARK    2  A    between atoms: N_2  and  C_3
REMARK    3  A    between atoms: N_11  and  S_12
REMARK    4  A    between atoms: S_12  and  C_15
REMARK    5  A    between atoms: C_22  and  C_23
REMARK    6  A    between atoms: C_23  and  C_24
REMARK    7  A    between atoms: C_24  and  O_25
REMARK                            x       y       z     vdW  Elec       q    Type
REMARK                         _______ _______ _______ _____ _____    ______ ____
ROOT
ATOM      1  C   UNL     1       4.319   5.451  19.461  0.00  0.00    +0.000 C 
ATOM      2  C   UNL     1       3.666   6.138  18.159  0.00  0.00    +0.000 A 
ATOM      3  C   UNL     1       3.723   7.337  17.467  0.00  0.00    +0.000 A 
ATOM      4  C   UNL     1       2.766   8.342  17.702  0.00  0.00    +0.000 A 
ATOM      5  C   UNL     1       2.020   8.199  18.885  0.00  0.00    +0.000 A 
ATOM      6  C   UNL     1       1.927   6.947  19.519  0.00  0.00    +0.000 A 
ATOM      7  C   UNL     1       1.530   7.195  20.863  0.00  0.00    +0.000 A 
ATOM      8  C   UNL     1       1.238   8.540  20.965  0.00  0.00    +0.000 A 
ATOM      9  N   UNL     1       1.332   9.074  19.703  0.00  0.00    +0.000 N 
ATOM     10  C   UNL     1       2.478   5.861  18.819  0.00  0.00    +0.000 A 
ATOM     11  C   UNL     1       3.057   4.517  19.229  0.00  0.00    +0.000 C 
ENDROOT
BRANCH   1  13
ATOM     12  C   UNL     1       6.654   5.493  18.995  0.00  0.00    +0.000 C 
ATOM     13  N   UNL     1       5.523   4.633  19.320  0.00  0.00    +0.000 NA
ATOM     14  H   UNL     1       5.460   3.862  18.660  0.00  0.00    +0.000 HD
ENDBRANCH   1  13
BRANCH   9  15
ATOM     15  S   UNL     1       0.933  10.690  19.370  0.00  0.00    +0.000 S 
ATOM     16  O   UNL     1       0.885  11.375  20.659  0.00  0.00    +0.000 OA
ATOM     17  O   UNL     1       1.859  11.097  18.337  0.00  0.00    +0.000 OA
BRANCH  15  18
ATOM     18  C   UNL     1      -0.711  10.685  18.697  0.00  0.00    +0.000 A 
ATOM     19  C   UNL     1      -1.680  11.574  19.174  0.00  0.00    +0.000 A 
ATOM     20  C   UNL     1      -2.938  11.618  18.570  0.00  0.00    +0.000 A 
ATOM     21  C   UNL     1      -3.226  10.782  17.493  0.00  0.00    +0.000 A 
ATOM     22  C   UNL     1      -2.260   9.898  17.012  0.00  0.00    +0.000 A 
ATOM     23  C   UNL     1      -0.999   9.848  17.612  0.00  0.00    +0.000 A 
ENDBRANCH  15  18
ENDBRANCH   9  15
BRANCH  11  24
ATOM     24  C   UNL     1       2.173   3.629  20.077  0.00  0.00    +0.000 C 
BRANCH  24  25
ATOM     25  C   UNL     1       3.002   2.496  20.670  0.00  0.00    +0.000 C 
BRANCH  25  26
ATOM     26  O   UNL     1       2.791   2.427  22.071  0.00  0.00    +0.000 OA
ATOM     27  H   UNL     1       3.141   1.566  22.372  0.00  0.00    +0.000 HD
ENDBRANCH  25  26
ENDBRANCH  24  25
ENDBRANCH  11  24
TORSDOF 6
ENDMDL
MODEL 7
REMARK VINA RESULT:      -7.4      2.689      7.497
REMARK  Name = 
REMARK  7 active torsions:
REMARK  status: ('A' for Active; 'I' for Inactive)
REMARK    1  A    between atoms: C_1  and  N_2
REMARK    2  A    between atoms: N_2  and  C_3
REMARK    3  A    between atoms: N_11  and  S_12
REMARK    4  A    between atoms: S_12  and  C_15
REMARK    5  A    between atoms: C_22  and  C_23
REMARK    6  A    between atoms: C_23  and  C_24
REMARK    7  A    between atoms: C_24  and  O_25
REMARK                            x       y       z     vdW  Elec       q    Type
REMARK                         _______ _______ _______ _____ _____    ______ ____
ROOT
ATOM      1  C   UNL     1       1.011  11.299  20.605  0.00  0.00    +0.000 C 
ATOM      2  C   UNL     1       0.588   9.820  21.081  0.00  0.00    +0.000 A 
ATOM      3  C   UNL     1       1.157   8.710  21.685  0.00  0.00    +0.000 A 
ATOM      4  C   UNL     1       1.634   7.641  20.904  0.00  0.00    +0.000 A 
ATOM      5  C   UNL     1       1.822   7.925  19.542  0.00  0.00    +0.000 A 
ATOM      6  C   UNL     1       1.168   9.020  18.948  0.00  0.00    +0.000 A 
ATOM      7  C   UNL     1       1.879   9.325  17.753  0.00  0.00    +0.000 A 
ATOM      8  C   UNL     1       2.820   8.332  17.568  0.00  0.00    +0.000 A 
ATOM      9  N   UNL     1       2.612   7.388  18.543  0.00  0.00    +0.000 N 
ATOM     10  C   UNL     1       0.223   9.681  19.750  0.00  0.00    +0.000 A 
ATOM     11  C   UNL     1      -0.334  11.094  19.789  0.00  0.00    +0.000 C 
ENDROOT
BRANCH   1  13
ATOM     12  C   UNL     1       1.305  13.647  20.867  0.00  0.00    +0.000 C 
ATOM     13  N   UNL     1       0.826  12.432  21.511  0.00  0.00    +0.000 NA
ATOM     14  H   UNL     1       1.240  12.330  22.435  0.00  0.00    +0.000 HD
ENDBRANCH   1  13
BRANCH   9  15
ATOM     15  S   UNL     1       3.489   5.936  18.601  0.00  0.00    +0.000 S 
ATOM     16  O   UNL     1       3.865   5.628  17.224  0.00  0.00    +0.000 OA
ATOM     17  O   UNL     1       4.489   6.143  19.624  0.00  0.00    +0.000 OA
BRANCH  15  18
ATOM     18  C   UNL     1       2.361   4.677  19.150  0.00  0.00    +0.000 A 
ATOM     19  C   UNL     1       1.623   3.929  18.226  0.00  0.00    +0.000 A 
ATOM     20  C   UNL     1       0.812   2.883  18.671  0.00  0.00    +0.000 A 
ATOM     21  C   UNL     1       0.742   2.582  20.030  0.00  0.00    +0.000 A 
ATOM     22  C   UNL     1       1.481   3.324  20.952  0.00  0.00    +0.000 A 
ATOM     23  C   UNL     1       2.294   4.372  20.514  0.00  0.00    +0.000 A 
ENDBRANCH  15  18
ENDBRANCH   9  15
BRANCH  11  24
ATOM     24  C   UNL     1      -0.934  11.621  18.503  0.00  0.00    +0.000 C 
BRANCH  24  25
ATOM     25  C   UNL     1      -2.449  11.706  18.642  0.00  0.00    +0.000 C 
BRANCH  25  26
ATOM     26  O   UNL     1      -3.030  12.026  17.388  0.00  0.00    +0.000 OA
ATOM     27  H   UNL     1      -3.293  11.183  16.971  0.00  0.00    +0.000 HD
ENDBRANCH  25  26
ENDBRANCH  24  25
ENDBRANCH  11  24
TORSDOF 6
ENDMDL
MODEL 8
REMARK VINA RESULT:      -7.4      2.410      7.565
REMARK  Name = 
REMARK  7 active torsions:
REMARK  status: ('A' for Active; 'I' for Inactive)
REMARK    1  A    between atoms: C_1  and  N_2
REMARK    2  A    between atoms: N_2  and  C_3
REMARK    3  A    between atoms: N_11  and  S_12
REMARK    4  A    between atoms: S_12  and  C_15
REMARK    5  A    between atoms: C_22  and  C_23
REMARK    6  A    between atoms: C_23  and  C_24
REMARK    7  A    between atoms: C_24  and  O_25
REMARK                            x       y       z     vdW  Elec       q    Type
REMARK                         _______ _______ _______ _____ _____    ______ ____
ROOT
ATOM      1  C   UNL     1       0.233   8.927  19.692  0.00  0.00    +0.000 C 
ATOM      2  C   UNL     1       1.676   8.785  18.992  0.00  0.00    +0.000 A 
ATOM      3  C   UNL     1       2.235   8.260  17.837  0.00  0.00    +0.000 A 
ATOM      4  C   UNL     1       2.811   6.976  17.846  0.00  0.00    +0.000 A 
ATOM      5  C   UNL     1       2.466   6.167  18.941  0.00  0.00    +0.000 A 
ATOM      6  C   UNL     1       1.970   6.745  20.123  0.00  0.00    +0.000 A 
ATOM      7  C   UNL     1       1.300   5.712  20.837  0.00  0.00    +0.000 A 
ATOM      8  C   UNL     1       1.541   4.528  20.172  0.00  0.00    +0.000 A 
ATOM      9  N   UNL     1       2.427   4.803  19.159  0.00  0.00    +0.000 N 
ATOM     10  C   UNL     1       2.001   8.149  20.181  0.00  0.00    +0.000 A 
ATOM     11  C   UNL     1       1.193   9.198  20.925  0.00  0.00    +0.000 C 
ENDROOT
BRANCH   1  13
ATOM     12  C   UNL     1       0.275  11.163  18.874  0.00  0.00    +0.000 C 
ATOM     13  N   UNL     1      -0.567  10.130  19.463  0.00  0.00    +0.000 NA
ATOM     14  H   UNL     1      -1.063  10.492  20.274  0.00  0.00    +0.000 HD
ENDBRANCH   1  13
BRANCH   9  15
ATOM     15  S   UNL     1       3.078   3.588  18.168  0.00  0.00    +0.000 S 
ATOM     16  O   UNL     1       3.226   2.405  19.012  0.00  0.00    +0.000 OA
ATOM     17  O   UNL     1       2.234   3.572  16.994  0.00  0.00    +0.000 OA
BRANCH  15  18
ATOM     18  C   UNL     1       4.704   4.125  17.697  0.00  0.00    +0.000 A 
ATOM     19  C   UNL     1       5.614   4.574  18.661  0.00  0.00    +0.000 A 
ATOM     20  C   UNL     1       6.917   4.904  18.283  0.00  0.00    +0.000 A 
ATOM     21  C   UNL     1       7.311   4.784  16.952  0.00  0.00    +0.000 A 
ATOM     22  C   UNL     1       6.407   4.332  15.991  0.00  0.00    +0.000 A 
ATOM     23  C   UNL     1       5.102   4.001  16.361  0.00  0.00    +0.000 A 
ENDBRANCH  15  18
ENDBRANCH   9  15
BRANCH  11  24
ATOM     24  C   UNL     1       1.121   9.056  22.431  0.00  0.00    +0.000 C 
BRANCH  24  25
ATOM     25  C   UNL     1      -0.082   9.827  22.961  0.00  0.00    +0.000 C 
BRANCH  25  26
ATOM     26  O   UNL     1      -0.073  11.147  22.444  0.00  0.00    +0.000 OA
ATOM     27  H   UNL     1       0.763  11.562  22.730  0.00  0.00    +0.000 HD
ENDBRANCH  25  26
ENDBRANCH  24  25
ENDBRANCH  11  24
TORSDOF 6
ENDMDL
MODEL 9
REMARK VINA RESULT:      -7.3      2.514      7.427
REMARK  Name = 
REMARK  7 active torsions:
REMARK  status: ('A' for Active; 'I' for Inactive)
REMARK    1  A    between atoms: C_1  and  N_2
REMARK    2  A    between atoms: N_2  and  C_3
REMARK    3  A    between atoms: N_11  and  S_12
REMARK    4  A    between atoms: S_12  and  C_15
REMARK    5  A    between atoms: C_22  and  C_23
REMARK    6  A    between atoms: C_23  and  C_24
REMARK    7  A    between atoms: C_24  and  O_25
REMARK                            x       y       z     vdW  Elec       q    Type
REMARK                         _______ _______ _______ _____ _____    ______ ____
ROOT
ATOM      1  C   UNL     1       0.232   9.044  19.676  0.00  0.00    +0.000 C 
ATOM      2  C   UNL     1       1.687   8.892  19.002  0.00  0.00    +0.000 A 
ATOM      3  C   UNL     1       2.263   8.366  17.857  0.00  0.00    +0.000 A 
ATOM      4  C   UNL     1       2.830   7.078  17.873  0.00  0.00    +0.000 A 
ATOM      5  C   UNL     1       2.457   6.268  18.959  0.00  0.00    +0.000 A 
ATOM      6  C   UNL     1       1.944   6.848  20.133  0.00  0.00    +0.000 A 
ATOM      7  C   UNL     1       1.253   5.818  20.832  0.00  0.00    +0.000 A 
ATOM      8  C   UNL     1       1.497   4.633  20.168  0.00  0.00    +0.000 A 
ATOM      9  N   UNL     1       2.404   4.904  19.173  0.00  0.00    +0.000 N 
ATOM     10  C   UNL     1       1.985   8.251  20.195  0.00  0.00    +0.000 A 
ATOM     11  C   UNL     1       1.172   9.305  20.927  0.00  0.00    +0.000 C 
ENDROOT
BRANCH   1  13
ATOM     12  C   UNL     1      -1.087  10.220  18.080  0.00  0.00    +0.000 C 
ATOM     13  N   UNL     1      -0.554  10.254  19.435  0.00  0.00    +0.000 NA
ATOM     14  H   UNL     1      -0.075  11.134  19.609  0.00  0.00    +0.000 HD
ENDBRANCH   1  13
BRANCH   9  15
ATOM     15  S   UNL     1       3.063   3.687  18.190  0.00  0.00    +0.000 S 
ATOM     16  O   UNL     1       3.247   2.520  19.050  0.00  0.00    +0.000 OA
ATOM     17  O   UNL     1       2.203   3.637  17.030  0.00  0.00    +0.000 OA
BRANCH  15  18
ATOM     18  C   UNL     1       4.672   4.248  17.687  0.00  0.00    +0.000 A 
ATOM     19  C   UNL     1       4.972   4.433  16.333  0.00  0.00    +0.000 A 
ATOM     20  C   UNL     1       6.210   4.962  15.963  0.00  0.00    +0.000 A 
ATOM     21  C   UNL     1       7.142   5.308  16.939  0.00  0.00    +0.000 A 
ATOM     22  C   UNL     1       6.844   5.129  18.290  0.00  0.00    +0.000 A 
ATOM     23  C   UNL     1       5.607   4.600  18.667  0.00  0.00    +0.000 A 
ENDBRANCH  15  18
ENDBRANCH   9  15
BRANCH  11  24
ATOM     24  C   UNL     1       1.070   9.159  22.431  0.00  0.00    +0.000 C 
BRANCH  24  25
ATOM     25  C   UNL     1      -0.346   9.493  22.883  0.00  0.00    +0.000 C 
BRANCH  25  26
ATOM     26  O   UNL     1      -0.413  10.851  23.288  0.00  0.00    +0.000 OA
ATOM     27  H   UNL     1      -0.252  11.396  22.493  0.00  0.00    +0.000 HD
ENDBRANCH  25  26
ENDBRANCH  24  25
ENDBRANCH  11  24
TORSDOF 6
ENDMDL
