MODEL 1
REMARK VINA RESULT:      -7.8      0.000      0.000
REMARK  Name = 
REMARK  17 active torsions:
REMARK  status: ('A' for Active; 'I' for Inactive)
REMARK    1  A    between atoms: C_1  and  O_2
REMARK    2  A    between atoms: O_2  and  C_3
REMARK    3  A    between atoms: C_3  and  C_4
REMARK    4  A    between atoms: C_3  and  C_11
REMARK    5  A    between atoms: C_4  and  C_5
REMARK    6  A    between atoms: C_11  and  C_12
REMARK    7  A    between atoms: C_11  and  C_13
REMARK    8  A    between atoms: C_14  and  C_15
REMARK    9  A    between atoms: C_14  and  C_16
REMARK   10  A    between atoms: C_17  and  C_18
REMARK   11  A    between atoms: C_18  and  N_19
REMARK   12  A    between atoms: C_18  and  C_23
REMARK   13  A    between atoms: C_20  and  C_21
REMARK   14  A    between atoms: C_23  and  C_24
REMARK   15  A    between atoms: C_23  and  C_25
REMARK   16  A    between atoms: C_31  and  C_32
REMARK   17  A    between atoms: C_32  and  O_34
REMARK                            x       y       z     vdW  Elec       q    Type
REMARK                         _______ _______ _______ _____ _____    ______ ____
ROOT
ATOM      1  C   UNL     1       2.738   5.593  19.471  0.00  0.00    +0.000 C 
ENDROOT
BRANCH   1   2
ATOM      2  N   UNL     1       2.025   4.587  20.306  0.00  0.00    +0.000 N 
ATOM      3  C   UNL     1       2.469   3.359  20.756  0.00  0.00    +0.000 C 
ATOM      4  C   UNL     1       1.553   2.651  21.715  0.00  0.00    +0.000 C 
ATOM      5  O   UNL     1       3.532   2.819  20.461  0.00  0.00    +0.000 OA
ATOM      6  H   UNL     1       1.105   4.890  20.616  0.00  0.00    +0.000 HD
ENDBRANCH   1   2
BRANCH   1   8
ATOM      7  C   UNL     1       1.588   7.406  20.905  0.00  0.00    +0.000 C 
ATOM      8  C   UNL     1       2.260   6.984  19.826  0.00  0.00    +0.000 C 
BRANCH   7  10
ATOM      9  C   UNL     1       0.608   9.462  19.875  0.00  0.00    +0.000 C 
ATOM     10  C   UNL     1       0.939   8.723  20.962  0.00  0.00    +0.000 C 
ATOM     11  C   UNL     1       0.600   9.117  22.379  0.00  0.00    +0.000 C 
BRANCH   9  12
ATOM     12  C   UNL     1      -0.135  10.795  19.908  0.00  0.00    +0.000 C 
ATOM     13  C   UNL     1      -1.017  10.911  18.650  0.00  0.00    +0.000 C 
BRANCH  12  14
ATOM     14  C   UNL     1       0.732  12.085  20.059  0.00  0.00    +0.000 C 
BRANCH  14  16
ATOM     15  C   UNL     1       0.816  14.189  18.857  0.00  0.00    +0.000 C 
ATOM     16  O   UNL     1       0.636  12.785  18.800  0.00  0.00    +0.000 OA
ENDBRANCH  14  16
BRANCH  14  17
ATOM     17  C   UNL     1       0.354  12.988  21.256  0.00  0.00    +0.000 C 
BRANCH  17  18
ATOM     18  C   UNL     1      -1.067  12.896  21.766  0.00  0.00    +0.000 A 
ATOM     19  C   UNL     1      -2.115  13.521  21.080  0.00  0.00    +0.000 A 
ATOM     20  C   UNL     1      -3.436  13.398  21.517  0.00  0.00    +0.000 A 
ATOM     21  C   UNL     1      -3.724  12.638  22.653  0.00  0.00    +0.000 A 
ATOM     22  C   UNL     1      -2.692  12.015  23.348  0.00  0.00    +0.000 A 
ATOM     23  C   UNL     1      -1.374  12.144  22.909  0.00  0.00    +0.000 A 
ENDBRANCH  17  18
ENDBRANCH  14  17
ENDBRANCH  12  14
ENDBRANCH   9  12
ENDBRANCH   7  10
ENDBRANCH   1   8
BRANCH   1  24
ATOM     24  C   UNL     1       2.599   5.312  17.929  0.00  0.00    +0.000 C 
ATOM     25  C   UNL     1       1.360   4.447  17.688  0.00  0.00    +0.000 C 
BRANCH  24  26
ATOM     26  C   UNL     1       3.909   4.728  17.329  0.00  0.00    +0.000 C 
ATOM     27  O   UNL     1       3.936   3.571  16.906  0.00  0.00    +0.000 OA
ATOM     28  N   UNL     1       5.054   5.517  17.246  0.00  0.00    +0.000 N 
ATOM     29  C   UNL     1       5.299   6.798  17.914  0.00  0.00    +0.000 C 
ATOM     30  C   UNL     1       6.502   7.319  17.162  0.00  0.00    +0.000 C 
ATOM     31  C   UNL     1       7.381   6.077  17.054  0.00  0.00    +0.000 C 
ATOM     32  C   UNL     1       6.377   4.897  16.952  0.00  0.00    +0.000 C 
BRANCH  32  33
ATOM     33  C   UNL     1       6.581   4.240  15.587  0.00  0.00    +0.000 C 
ATOM     34  O   UNL     1       6.906   4.850  14.578  0.00  0.00    +0.000 OA
BRANCH  33  35
ATOM     35  O   UNL     1       6.195   2.942  15.557  0.00  0.00    +0.000 OA
ATOM     36  H   UNL     1       6.845   2.418  15.051  0.00  0.00    +0.000 HD
ENDBRANCH  33  35
ENDBRANCH  32  33
ENDBRANCH  24  26
ENDBRANCH   1  24
TORSDOF 12
ENDMDL
MODEL 2
REMARK VINA RESULT:      -7.8      2.116      5.015
REMARK  Name = 
REMARK  17 active torsions:
REMARK  status: ('A' for Active; 'I' for Inactive)
REMARK    1  A    between atoms: C_1  and  O_2
REMARK    2  A    between atoms: O_2  and  C_3
REMARK    3  A    between atoms: C_3  and  C_4
REMARK    4  A    between atoms: C_3  and  C_11
REMARK    5  A    between atoms: C_4  and  C_5
REMARK    6  A    between atoms: C_11  and  C_12
REMARK    7  A    between atoms: C_11  and  C_13
REMARK    8  A    between atoms: C_14  and  C_15
REMARK    9  A    between atoms: C_14  and  C_16
REMARK   10  A    between atoms: C_17  and  C_18
REMARK   11  A    between atoms: C_18  and  N_19
REMARK   12  A    between atoms: C_18  and  C_23
REMARK   13  A    between atoms: C_20  and  C_21
REMARK   14  A    between atoms: C_23  and  C_24
REMARK   15  A    between atoms: C_23  and  C_25
REMARK   16  A    between atoms: C_31  and  C_32
REMARK   17  A    between atoms: C_32  and  O_34
REMARK                            x       y       z     vdW  Elec       q    Type
REMARK                         _______ _______ _______ _____ _____    ______ ____
ROOT
ATOM      1  C   UNL     1       4.845   6.366  17.220  0.00  0.00    +0.000 C 
ENDROOT
BRANCH   1   2
ATOM      2  N   UNL     1       5.961   7.200  17.750  0.00  0.00    +0.000 N 
ATOM      3  C   UNL     1       7.245   7.345  17.261  0.00  0.00    +0.000 C 
ATOM      4  C   UNL     1       8.083   8.390  17.945  0.00  0.00    +0.000 C 
ATOM      5  O   UNL     1       7.740   6.722  16.325  0.00  0.00    +0.000 OA
ATOM      6  H   UNL     1       5.702   7.767  18.553  0.00  0.00    +0.000 HD
ENDBRANCH   1   2
BRANCH   1   8
ATOM      7  C   UNL     1       3.124   8.225  17.719  0.00  0.00    +0.000 C 
ATOM      8  C   UNL     1       3.520   6.947  17.662  0.00  0.00    +0.000 C 
BRANCH   7  10
ATOM      9  C   UNL     1       1.000   9.519  17.971  0.00  0.00    +0.000 C 
ATOM     10  C   UNL     1       1.919   8.643  18.448  0.00  0.00    +0.000 C 
ATOM     11  C   UNL     1       1.777   7.910  19.759  0.00  0.00    +0.000 C 
BRANCH   9  12
ATOM     12  C   UNL     1      -0.296   9.909  18.678  0.00  0.00    +0.000 C 
ATOM     13  C   UNL     1      -1.322  10.374  17.626  0.00  0.00    +0.000 C 
BRANCH  12  14
ATOM     14  C   UNL     1      -0.190  10.978  19.812  0.00  0.00    +0.000 C 
BRANCH  14  16
ATOM     15  C   UNL     1      -0.028  10.403  22.161  0.00  0.00    +0.000 C 
ATOM     16  O   UNL     1      -0.806  10.390  20.978  0.00  0.00    +0.000 OA
ENDBRANCH  14  16
BRANCH  14  17
ATOM     17  C   UNL     1       1.244  11.480  20.102  0.00  0.00    +0.000 C 
BRANCH  17  18
ATOM     18  C   UNL     1       1.618  12.843  19.563  0.00  0.00    +0.000 A 
ATOM     19  C   UNL     1       2.523  12.970  18.504  0.00  0.00    +0.000 A 
ATOM     20  C   UNL     1       2.833  14.222  17.968  0.00  0.00    +0.000 A 
ATOM     21  C   UNL     1       2.234  15.369  18.492  0.00  0.00    +0.000 A 
ATOM     22  C   UNL     1       1.336  15.260  19.549  0.00  0.00    +0.000 A 
ATOM     23  C   UNL     1       1.032  14.007  20.082  0.00  0.00    +0.000 A 
ENDBRANCH  17  18
ENDBRANCH  14  17
ENDBRANCH  12  14
ENDBRANCH   9  12
ENDBRANCH   7  10
ENDBRANCH   1   8
BRANCH   1  24
ATOM     24  C   UNL     1       4.974   4.851  17.623  0.00  0.00    +0.000 C 
ATOM     25  C   UNL     1       5.917   4.150  16.642  0.00  0.00    +0.000 C 
BRANCH  24  26
ATOM     26  C   UNL     1       3.583   4.171  17.764  0.00  0.00    +0.000 C 
ATOM     27  O   UNL     1       3.023   3.693  16.776  0.00  0.00    +0.000 OA
ATOM     28  N   UNL     1       2.972   4.081  19.011  0.00  0.00    +0.000 N 
ATOM     29  C   UNL     1       3.340   4.798  20.235  0.00  0.00    +0.000 C 
ATOM     30  C   UNL     1       2.586   4.024  21.292  0.00  0.00    +0.000 C 
ATOM     31  C   UNL     1       1.223   3.822  20.637  0.00  0.00    +0.000 C 
ATOM     32  C   UNL     1       1.534   3.705  19.121  0.00  0.00    +0.000 C 
BRANCH  32  33
ATOM     33  C   UNL     1       1.116   2.302  18.676  0.00  0.00    +0.000 C 
ATOM     34  O   UNL     1      -0.021   2.004  18.337  0.00  0.00    +0.000 OA
BRANCH  33  35
ATOM     35  O   UNL     1       2.084   1.373  18.865  0.00  0.00    +0.000 OA
ATOM     36  H   UNL     1       2.961   1.802  18.830  0.00  0.00    +0.000 HD
ENDBRANCH  33  35
ENDBRANCH  32  33
ENDBRANCH  24  26
ENDBRANCH   1  24
TORSDOF 12
ENDMDL
MODEL 3
REMARK VINA RESULT:      -7.8      2.756     10.304
REMARK  Name = 
REMARK  17 active torsions:
REMARK  status: ('A' for Active; 'I' for Inactive)
REMARK    1  A    between atoms: C_1  and  O_2
REMARK    2  A    between atoms: O_2  and  C_3
REMARK    3  A    between atoms: C_3  and  C_4
REMARK    4  A    between atoms: C_3  and  C_11
REMARK    5  A    between atoms: C_4  and  C_5
REMARK    6  A    between atoms: C_11  and  C_12
REMARK    7  A    between atoms: C_11  and  C_13
REMARK    8  A    between atoms: C_14  and  C_15
REMARK    9  A    between atoms: C_14  and  C_16
REMARK   10  A    between atoms: C_17  and  C_18
REMARK   11  A    between atoms: C_18  and  N_19
REMARK   12  A    between atoms: C_18  and  C_23
REMARK   13  A    between atoms: C_20  and  C_21
REMARK   14  A    between atoms: C_23  and  C_24
REMARK   15  A    between atoms: C_23  and  C_25
REMARK   16  A    between atoms: C_31  and  C_32
REMARK   17  A    between atoms: C_32  and  O_34
REMARK                            x       y       z     vdW  Elec       q    Type
REMARK                         _______ _______ _______ _____ _____    ______ ____
ROOT
ATOM      1  C   UNL     1       0.727  10.435  19.393  0.00  0.00    +0.000 C 
ENDROOT
BRANCH   1   2
ATOM      2  N   UNL     1       1.356  11.515  18.583  0.00  0.00    +0.000 N 
ATOM      3  C   UNL     1       1.828  12.747  18.994  0.00  0.00    +0.000 C 
ATOM      4  C   UNL     1       2.552  13.545  17.946  0.00  0.00    +0.000 C 
ATOM      5  O   UNL     1       1.724  13.224  20.121  0.00  0.00    +0.000 OA
ATOM      6  H   UNL     1       1.492  11.268  17.606  0.00  0.00    +0.000 HD
ENDBRANCH   1   2
BRANCH   1   8
ATOM      7  C   UNL     1       2.398   8.815  18.276  0.00  0.00    +0.000 C 
ATOM      8  C   UNL     1       1.494   9.144  19.208  0.00  0.00    +0.000 C 
BRANCH   7  10
ATOM      9  C   UNL     1       2.276   6.347  18.656  0.00  0.00    +0.000 C 
ATOM     10  C   UNL     1       2.831   7.428  18.055  0.00  0.00    +0.000 C 
ATOM     11  C   UNL     1       3.909   7.341  17.004  0.00  0.00    +0.000 C 
BRANCH   9  12
ATOM     12  C   UNL     1       2.657   4.894  18.385  0.00  0.00    +0.000 C 
ATOM     13  C   UNL     1       1.406   4.125  17.916  0.00  0.00    +0.000 C 
BRANCH  12  14
ATOM     14  C   UNL     1       3.345   4.113  19.548  0.00  0.00    +0.000 C 
BRANCH  14  16
ATOM     15  C   UNL     1       2.294   2.909  21.371  0.00  0.00    +0.000 C 
ATOM     16  O   UNL     1       2.400   3.107  19.973  0.00  0.00    +0.000 OA
ENDBRANCH  14  16
BRANCH  14  17
ATOM     17  C   UNL     1       4.724   3.505  19.198  0.00  0.00    +0.000 C 
BRANCH  17  18
ATOM     18  C   UNL     1       5.688   4.381  18.431  0.00  0.00    +0.000 A 
ATOM     19  C   UNL     1       5.873   4.207  17.054  0.00  0.00    +0.000 A 
ATOM     20  C   UNL     1       6.723   5.046  16.330  0.00  0.00    +0.000 A 
ATOM     21  C   UNL     1       7.401   6.078  16.982  0.00  0.00    +0.000 A 
ATOM     22  C   UNL     1       7.231   6.261  18.351  0.00  0.00    +0.000 A 
ATOM     23  C   UNL     1       6.383   5.418  19.070  0.00  0.00    +0.000 A 
ENDBRANCH  17  18
ENDBRANCH  14  17
ENDBRANCH  12  14
ENDBRANCH   9  12
ENDBRANCH   7  10
ENDBRANCH   1   8
BRANCH   1  24
ATOM     24  C   UNL     1      -0.802  10.247  19.072  0.00  0.00    +0.000 C 
ATOM     25  C   UNL     1      -0.965   9.900  17.591  0.00  0.00    +0.000 C 
BRANCH  24  26
ATOM     26  C   UNL     1      -1.643  11.470  19.535  0.00  0.00    +0.000 C 
ATOM     27  O   UNL     1      -2.220  12.176  18.706  0.00  0.00    +0.000 OA
ATOM     28  N   UNL     1      -1.765  11.764  20.891  0.00  0.00    +0.000 N 
ATOM     29  C   UNL     1      -0.965  11.220  21.992  0.00  0.00    +0.000 C 
ATOM     30  C   UNL     1      -1.789  11.607  23.199  0.00  0.00    +0.000 C 
ATOM     31  C   UNL     1      -2.180  13.045  22.879  0.00  0.00    +0.000 C 
ATOM     32  C   UNL     1      -2.311  13.078  21.332  0.00  0.00    +0.000 C 
BRANCH  32  33
ATOM     33  C   UNL     1      -3.769  13.403  21.004  0.00  0.00    +0.000 C 
ATOM     34  O   UNL     1      -4.697  12.626  21.178  0.00  0.00    +0.000 OA
BRANCH  33  35
ATOM     35  O   UNL     1      -3.917  14.570  20.333  0.00  0.00    +0.000 OA
ATOM     36  H   UNL     1      -4.791  14.957  20.536  0.00  0.00    +0.000 HD
ENDBRANCH  33  35
ENDBRANCH  32  33
ENDBRANCH  24  26
ENDBRANCH   1  24
TORSDOF 12
ENDMDL
MODEL 4
REMARK VINA RESULT:      -7.6      5.144      7.980
REMARK  Name = 
REMARK  17 active torsions:
REMARK  status: ('A' for Active; 'I' for Inactive)
REMARK    1  A    between atoms: C_1  and  O_2
REMARK    2  A    between atoms: O_2  and  C_3
REMARK    3  A    between atoms: C_3  and  C_4
REMARK    4  A    between atoms: C_3  and  C_11
REMARK    5  A    between atoms: C_4  and  C_5
REMARK    6  A    between atoms: C_11  and  C_12
REMARK    7  A    between atoms: C_11  and  C_13
REMARK    8  A    between atoms: C_14  and  C_15
REMARK    9  A    between atoms: C_14  and  C_16
REMARK   10  A    between atoms: C_17  and  C_18
REMARK   11  A    between atoms: C_18  and  N_19
REMARK   12  A    between atoms: C_18  and  C_23
REMARK   13  A    between atoms: C_20  and  C_21
REMARK   14  A    between atoms: C_23  and  C_24
REMARK   15  A    between atoms: C_23  and  C_25
REMARK   16  A    between atoms: C_31  and  C_32
REMARK   17  A    between atoms: C_32  and  O_34
REMARK                            x       y       z     vdW  Elec       q    Type
REMARK                         _______ _______ _______ _____ _____    ______ ____
ROOT
ATOM      1  C   UNL     1       6.788   6.790  17.384  0.00  0.00    +0.000 C 
ENDROOT
BRANCH   1   2
ATOM      2  N   UNL     1       7.244   6.034  16.184  0.00  0.00    +0.000 N 
ATOM      3  C   UNL     1       6.503   5.262  15.309  0.00  0.00    +0.000 C 
ATOM      4  C   UNL     1       7.246   4.758  14.103  0.00  0.00    +0.000 C 
ATOM      5  O   UNL     1       5.314   4.977  15.422  0.00  0.00    +0.000 OA
ATOM      6  H   UNL     1       8.231   6.159  15.972  0.00  0.00    +0.000 HD
ENDBRANCH   1   2
BRANCH   1   8
ATOM      7  C   UNL     1       8.367   8.511  18.482  0.00  0.00    +0.000 C 
ATOM      8  C   UNL     1       7.565   8.083  17.499  0.00  0.00    +0.000 C 
BRANCH   7  10
ATOM      9  C   UNL     1       9.727  10.359  19.474  0.00  0.00    +0.000 C 
ATOM     10  C   UNL     1       8.811   9.909  18.583  0.00  0.00    +0.000 C 
ATOM     11  C   UNL     1       8.190  10.769  17.512  0.00  0.00    +0.000 C 
BRANCH   9  12
ATOM     12  C   UNL     1      10.258  11.789  19.547  0.00  0.00    +0.000 C 
ATOM     13  C   UNL     1      11.787  11.748  19.737  0.00  0.00    +0.000 C 
BRANCH  12  14
ATOM     14  C   UNL     1       9.623  12.727  20.622  0.00  0.00    +0.000 C 
BRANCH  14  16
ATOM     15  C   UNL     1       9.710  14.816  19.395  0.00  0.00    +0.000 C 
ATOM     16  O   UNL     1       8.917  13.754  19.893  0.00  0.00    +0.000 OA
ENDBRANCH  14  16
BRANCH  14  17
ATOM     17  C   UNL     1       8.715  12.015  21.652  0.00  0.00    +0.000 C 
BRANCH  17  18
ATOM     18  C   UNL     1       8.622  12.633  23.029  0.00  0.00    +0.000 A 
ATOM     19  C   UNL     1       8.772  14.013  23.206  0.00  0.00    +0.000 A 
ATOM     20  C   UNL     1       8.636  14.596  24.468  0.00  0.00    +0.000 A 
ATOM     21  C   UNL     1       8.345  13.796  25.575  0.00  0.00    +0.000 A 
ATOM     22  C   UNL     1       8.199  12.421  25.416  0.00  0.00    +0.000 A 
ATOM     23  C   UNL     1       8.338  11.844  24.154  0.00  0.00    +0.000 A 
ENDBRANCH  17  18
ENDBRANCH  14  17
ENDBRANCH  12  14
ENDBRANCH   9  12
ENDBRANCH   7  10
ENDBRANCH   1   8
BRANCH   1  24
ATOM     24  C   UNL     1       6.878   5.942  18.706  0.00  0.00    +0.000 C 
ATOM     25  C   UNL     1       8.191   5.156  18.709  0.00  0.00    +0.000 C 
BRANCH  24  26
ATOM     26  C   UNL     1       5.612   5.066  18.918  0.00  0.00    +0.000 C 
ATOM     27  O   UNL     1       5.720   3.905  19.318  0.00  0.00    +0.000 OA
ATOM     28  N   UNL     1       4.346   5.594  18.677  0.00  0.00    +0.000 N 
ATOM     29  C   UNL     1       4.023   6.834  17.965  0.00  0.00    +0.000 C 
ATOM     30  C   UNL     1       2.577   7.049  18.350  0.00  0.00    +0.000 C 
ATOM     31  C   UNL     1       1.991   5.648  18.210  0.00  0.00    +0.000 C 
ATOM     32  C   UNL     1       3.159   4.698  18.590  0.00  0.00    +0.000 C 
BRANCH  32  33
ATOM     33  C   UNL     1       2.736   3.933  19.845  0.00  0.00    +0.000 C 
ATOM     34  O   UNL     1       2.284   4.467  20.849  0.00  0.00    +0.000 OA
BRANCH  33  35
ATOM     35  O   UNL     1       3.076   2.622  19.811  0.00  0.00    +0.000 OA
ATOM     36  H   UNL     1       3.233   2.349  18.887  0.00  0.00    +0.000 HD
ENDBRANCH  33  35
ENDBRANCH  32  33
ENDBRANCH  24  26
ENDBRANCH   1  24
TORSDOF 12
ENDMDL
MODEL 5
REMARK VINA RESULT:      -7.5      1.899      4.964
REMARK  Name = 
REMARK  17 active torsions:
REMARK  status: ('A' for Active; 'I' for Inactive)
REMARK    1  A    between atoms: C_1  and  O_2
REMARK    2  A    between atoms: O_2  and  C_3
REMARK    3  A    between atoms: C_3  and  C_4
REMARK    4  A    between atoms: C_3  and  C_11
REMARK    5  A    between atoms: C_4  and  C_5
REMARK    6  A    between atoms: C_11  and  C_12
REMARK    7  A    between atoms: C_11  and  C_13
REMARK    8  A    between atoms: C_14  and  C_15
REMARK    9  A    between atoms: C_14  and  C_16
REMARK   10  A    between atoms: C_17  and  C_18
REMARK   11  A    between atoms: C_18  and  N_19
REMARK   12  A    between atoms: C_18  and  C_23
REMARK   13  A    between atoms: C_20  and  C_21
REMARK   14  A    between atoms: C_23  and  C_24
REMARK   15  A    between atoms: C_23  and  C_25
REMARK   16  A    between atoms: C_31  and  C_32
REMARK   17  A    between atoms: C_32  and  O_34
REMARK                            x       y       z     vdW  Elec       q    Type
REMARK                         _______ _______ _______ _____ _____    ______ ____
ROOT
ATOM      1  C   UNL     1       4.868   6.034  17.596  0.00  0.00    +0.000 C 
ENDROOT
BRANCH   1   2
ATOM      2  N   UNL     1       6.053   6.875  17.927  0.00  0.00    +0.000 N 
ATOM      3  C   UNL     1       7.214   7.064  17.202  0.00  0.00    +0.000 C 
ATOM      4  C   UNL     1       8.153   8.105  17.745  0.00  0.00    +0.000 C 
ATOM      5  O   UNL     1       7.525   6.482  16.167  0.00  0.00    +0.000 OA
ATOM      6  H   UNL     1       5.948   7.411  18.784  0.00  0.00    +0.000 HD
ENDBRANCH   1   2
BRANCH   1   8
ATOM      7  C   UNL     1       2.816   7.281  18.546  0.00  0.00    +0.000 C 
ATOM      8  C   UNL     1       3.750   6.320  18.574  0.00  0.00    +0.000 C 
BRANCH   7  10
ATOM      9  C   UNL     1       1.387   8.805  19.917  0.00  0.00    +0.000 C 
ATOM     10  C   UNL     1       1.989   7.608  19.715  0.00  0.00    +0.000 C 
ATOM     11  C   UNL     1       1.811   6.417  20.624  0.00  0.00    +0.000 C 
BRANCH   9  12
ATOM     12  C   UNL     1       0.463   9.142  21.084  0.00  0.00    +0.000 C 
ATOM     13  C   UNL     1      -0.509   7.968  21.311  0.00  0.00    +0.000 C 
BRANCH  12  14
ATOM     14  C   UNL     1      -0.344  10.476  20.988  0.00  0.00    +0.000 C 
BRANCH  14  16
ATOM     15  C   UNL     1      -0.595  12.506  22.289  0.00  0.00    +0.000 C 
ATOM     16  O   UNL     1       0.142  11.319  22.055  0.00  0.00    +0.000 OA
ENDBRANCH  14  16
BRANCH  14  17
ATOM     17  C   UNL     1      -0.274  11.180  19.612  0.00  0.00    +0.000 C 
BRANCH  17  18
ATOM     18  C   UNL     1      -1.423  10.942  18.658  0.00  0.00    +0.000 A 
ATOM     19  C   UNL     1      -2.625  11.644  18.796  0.00  0.00    +0.000 A 
ATOM     20  C   UNL     1      -3.671  11.466  17.887  0.00  0.00    +0.000 A 
ATOM     21  C   UNL     1      -3.522  10.576  16.822  0.00  0.00    +0.000 A 
ATOM     22  C   UNL     1      -2.334   9.866  16.675  0.00  0.00    +0.000 A 
ATOM     23  C   UNL     1      -1.294  10.045  17.587  0.00  0.00    +0.000 A 
ENDBRANCH  17  18
ENDBRANCH  14  17
ENDBRANCH  12  14
ENDBRANCH   9  12
ENDBRANCH   7  10
ENDBRANCH   1   8
BRANCH   1  24
ATOM     24  C   UNL     1       5.208   4.498  17.543  0.00  0.00    +0.000 C 
ATOM     25  C   UNL     1       4.888   3.962  16.146  0.00  0.00    +0.000 C 
BRANCH  24  26
ATOM     26  C   UNL     1       4.522   3.716  18.698  0.00  0.00    +0.000 C 
ATOM     27  O   UNL     1       5.182   3.335  19.667  0.00  0.00    +0.000 OA
ATOM     28  N   UNL     1       3.155   3.458  18.654  0.00  0.00    +0.000 N 
ATOM     29  C   UNL     1       2.263   3.592  17.498  0.00  0.00    +0.000 C 
ATOM     30  C   UNL     1       0.899   3.542  18.147  0.00  0.00    +0.000 C 
ATOM     31  C   UNL     1       1.055   2.402  19.147  0.00  0.00    +0.000 C 
ATOM     32  C   UNL     1       2.542   2.472  19.588  0.00  0.00    +0.000 C 
BRANCH  32  33
ATOM     33  C   UNL     1       2.561   2.785  21.085  0.00  0.00    +0.000 C 
ATOM     34  O   UNL     1       1.837   3.615  21.617  0.00  0.00    +0.000 OA
BRANCH  33  35
ATOM     35  O   UNL     1       3.581   2.183  21.743  0.00  0.00    +0.000 OA
ATOM     36  H   UNL     1       3.229   1.674  22.498  0.00  0.00    +0.000 HD
ENDBRANCH  33  35
ENDBRANCH  32  33
ENDBRANCH  24  26
ENDBRANCH   1  24
TORSDOF 12
ENDMDL
MODEL 6
REMARK VINA RESULT:      -7.5      2.672      9.866
REMARK  Name = 
REMARK  17 active torsions:
REMARK  status: ('A' for Active; 'I' for Inactive)
REMARK    1  A    between atoms: C_1  and  O_2
REMARK    2  A    between atoms: O_2  and  C_3
REMARK    3  A    between atoms: C_3  and  C_4
REMARK    4  A    between atoms: C_3  and  C_11
REMARK    5  A    between atoms: C_4  and  C_5
REMARK    6  A    between atoms: C_11  and  C_12
REMARK    7  A    between atoms: C_11  and  C_13
REMARK    8  A    between atoms: C_14  and  C_15
REMARK    9  A    between atoms: C_14  and  C_16
REMARK   10  A    between atoms: C_17  and  C_18
REMARK   11  A    between atoms: C_18  and  N_19
REMARK   12  A    between atoms: C_18  and  C_23
REMARK   13  A    between atoms: C_20  and  C_21
REMARK   14  A    between atoms: C_23  and  C_24
REMARK   15  A    between atoms: C_23  and  C_25
REMARK   16  A    between atoms: C_31  and  C_32
REMARK   17  A    between atoms: C_32  and  O_34
REMARK                            x       y       z     vdW  Elec       q    Type
REMARK                         _______ _______ _______ _____ _____    ______ ____
ROOT
ATOM      1  C   UNL     1       0.589  10.523  18.663  0.00  0.00    +0.000 C 
ENDROOT
BRANCH   1   2
ATOM      2  N   UNL     1      -0.744   9.987  18.271  0.00  0.00    +0.000 N 
ATOM      3  C   UNL     1      -1.782  10.629  17.624  0.00  0.00    +0.000 C 
ATOM      4  C   UNL     1      -2.941   9.753  17.235  0.00  0.00    +0.000 C 
ATOM      5  O   UNL     1      -1.828  11.820  17.330  0.00  0.00    +0.000 OA
ATOM      6  H   UNL     1      -0.863   8.998  18.473  0.00  0.00    +0.000 HD
ENDBRANCH   1   2
BRANCH   1   8
ATOM      7  C   UNL     1       2.014   8.499  17.928  0.00  0.00    +0.000 C 
ATOM      8  C   UNL     1       1.570   9.383  18.831  0.00  0.00    +0.000 C 
BRANCH   7  10
ATOM      9  C   UNL     1       3.674   6.669  17.550  0.00  0.00    +0.000 C 
ATOM     10  C   UNL     1       2.730   7.275  18.311  0.00  0.00    +0.000 C 
ATOM     11  C   UNL     1       2.356   6.821  19.700  0.00  0.00    +0.000 C 
BRANCH   9  12
ATOM     12  C   UNL     1       4.484   5.442  17.960  0.00  0.00    +0.000 C 
ATOM     13  C   UNL     1       5.938   5.870  18.241  0.00  0.00    +0.000 C 
BRANCH  12  14
ATOM     14  C   UNL     1       4.477   4.227  16.979  0.00  0.00    +0.000 C 
BRANCH  14  16
ATOM     15  C   UNL     1       5.980   3.936  15.099  0.00  0.00    +0.000 C 
ATOM     16  O   UNL     1       5.832   4.089  16.499  0.00  0.00    +0.000 OA
ENDBRANCH  14  16
BRANCH  14  17
ATOM     17  C   UNL     1       3.935   2.909  17.579  0.00  0.00    +0.000 C 
BRANCH  17  18
ATOM     18  C   UNL     1       2.977   3.025  18.743  0.00  0.00    +0.000 A 
ATOM     19  C   UNL     1       3.432   2.891  20.060  0.00  0.00    +0.000 A 
ATOM     20  C   UNL     1       2.563   3.048  21.142  0.00  0.00    +0.000 A 
ATOM     21  C   UNL     1       1.217   3.345  20.914  0.00  0.00    +0.000 A 
ATOM     22  C   UNL     1       0.749   3.475  19.611  0.00  0.00    +0.000 A 
ATOM     23  C   UNL     1       1.621   3.315  18.534  0.00  0.00    +0.000 A 
ENDBRANCH  17  18
ENDBRANCH  14  17
ENDBRANCH  12  14
ENDBRANCH   9  12
ENDBRANCH   7  10
ENDBRANCH   1   8
BRANCH   1  24
ATOM     24  C   UNL     1       0.527  11.424  19.952  0.00  0.00    +0.000 C 
ATOM     25  C   UNL     1      -0.759  11.111  20.720  0.00  0.00    +0.000 C 
BRANCH  24  26
ATOM     26  C   UNL     1       0.716  12.929  19.613  0.00  0.00    +0.000 C 
ATOM     27  O   UNL     1       1.085  13.270  18.487  0.00  0.00    +0.000 OA
ATOM     28  N   UNL     1       0.449  13.902  20.572  0.00  0.00    +0.000 N 
ATOM     29  C   UNL     1       0.258  13.700  22.012  0.00  0.00    +0.000 C 
ATOM     30  C   UNL     1      -0.351  15.017  22.435  0.00  0.00    +0.000 C 
ATOM     31  C   UNL     1       0.508  16.030  21.685  0.00  0.00    +0.000 C 
ATOM     32  C   UNL     1       0.898  15.308  20.366  0.00  0.00    +0.000 C 
BRANCH  32  33
ATOM     33  C   UNL     1       0.285  16.102  19.212  0.00  0.00    +0.000 C 
ATOM     34  O   UNL     1      -0.913  16.312  19.090  0.00  0.00    +0.000 OA
BRANCH  33  35
ATOM     35  O   UNL     1       1.178  16.401  18.238  0.00  0.00    +0.000 OA
ATOM     36  H   UNL     1       0.908  15.971  17.404  0.00  0.00    +0.000 HD
ENDBRANCH  33  35
ENDBRANCH  32  33
ENDBRANCH  24  26
ENDBRANCH   1  24
TORSDOF 12
ENDMDL
MODEL 7
REMARK VINA RESULT:      -7.5      1.932      4.845
REMARK  Name = 
REMARK  17 active torsions:
REMARK  status: ('A' for Active; 'I' for Inactive)
REMARK    1  A    between atoms: C_1  and  O_2
REMARK    2  A    between atoms: O_2  and  C_3
REMARK    3  A    between atoms: C_3  and  C_4
REMARK    4  A    between atoms: C_3  and  C_11
REMARK    5  A    between atoms: C_4  and  C_5
REMARK    6  A    between atoms: C_11  and  C_12
REMARK    7  A    between atoms: C_11  and  C_13
REMARK    8  A    between atoms: C_14  and  C_15
REMARK    9  A    between atoms: C_14  and  C_16
REMARK   10  A    between atoms: C_17  and  C_18
REMARK   11  A    between atoms: C_18  and  N_19
REMARK   12  A    between atoms: C_18  and  C_23
REMARK   13  A    between atoms: C_20  and  C_21
REMARK   14  A    between atoms: C_23  and  C_24
REMARK   15  A    between atoms: C_23  and  C_25
REMARK   16  A    between atoms: C_31  and  C_32
REMARK   17  A    between atoms: C_32  and  O_34
REMARK                            x       y       z     vdW  Elec       q    Type
REMARK                         _______ _______ _______ _____ _____    ______ ____
ROOT
ATOM      1  C   UNL     1       4.876   6.247  17.303  0.00  0.00    +0.000 C 
ENDROOT
BRANCH   1   2
ATOM      2  N   UNL     1       6.025   7.054  17.799  0.00  0.00    +0.000 N 
ATOM      3  C   UNL     1       7.280   7.213  17.242  0.00  0.00    +0.000 C 
ATOM      4  C   UNL     1       8.162   8.226  17.917  0.00  0.00    +0.000 C 
ATOM      5  O   UNL     1       7.716   6.626  16.256  0.00  0.00    +0.000 OA
ATOM      6  H   UNL     1       5.818   7.590  18.637  0.00  0.00    +0.000 HD
ENDBRANCH   1   2
BRANCH   1   8
ATOM      7  C   UNL     1       3.099   8.103  17.554  0.00  0.00    +0.000 C 
ATOM      8  C   UNL     1       3.577   6.870  17.765  0.00  0.00    +0.000 C 
BRANCH   7  10
ATOM      9  C   UNL     1       1.115   9.595  17.849  0.00  0.00    +0.000 C 
ATOM     10  C   UNL     1       1.967   8.649  18.315  0.00  0.00    +0.000 C 
ATOM     11  C   UNL     1       1.809   7.963  19.649  0.00  0.00    +0.000 C 
BRANCH   9  12
ATOM     12  C   UNL     1      -0.110  10.121  18.591  0.00  0.00    +0.000 C 
ATOM     13  C   UNL     1      -1.333  10.051  17.656  0.00  0.00    +0.000 C 
BRANCH  12  14
ATOM     14  C   UNL     1      -0.006  11.552  19.207  0.00  0.00    +0.000 C 
BRANCH  14  16
ATOM     15  C   UNL     1      -1.490  11.926  21.087  0.00  0.00    +0.000 C 
ATOM     16  O   UNL     1      -0.260  11.402  20.621  0.00  0.00    +0.000 OA
ENDBRANCH  14  16
BRANCH  14  17
ATOM     17  C   UNL     1       1.329  12.284  18.931  0.00  0.00    +0.000 C 
BRANCH  17  18
ATOM     18  C   UNL     1       1.593  13.552  19.712  0.00  0.00    +0.000 A 
ATOM     19  C   UNL     1       0.807  14.692  19.511  0.00  0.00    +0.000 A 
ATOM     20  C   UNL     1       1.013  15.850  20.265  0.00  0.00    +0.000 A 
ATOM     21  C   UNL     1       2.015  15.877  21.237  0.00  0.00    +0.000 A 
ATOM     22  C   UNL     1       2.809  14.753  21.444  0.00  0.00    +0.000 A 
ATOM     23  C   UNL     1       2.601  13.600  20.686  0.00  0.00    +0.000 A 
ENDBRANCH  17  18
ENDBRANCH  14  17
ENDBRANCH  12  14
ENDBRANCH   9  12
ENDBRANCH   7  10
ENDBRANCH   1   8
BRANCH   1  24
ATOM     24  C   UNL     1       4.970   4.733  17.721  0.00  0.00    +0.000 C 
ATOM     25  C   UNL     1       5.927   4.009  16.771  0.00  0.00    +0.000 C 
BRANCH  24  26
ATOM     26  C   UNL     1       3.565   4.077  17.831  0.00  0.00    +0.000 C 
ATOM     27  O   UNL     1       3.023   3.600  16.832  0.00  0.00    +0.000 OA
ATOM     28  N   UNL     1       2.920   4.004  19.063  0.00  0.00    +0.000 N 
ATOM     29  C   UNL     1       3.268   4.725  20.291  0.00  0.00    +0.000 C 
ATOM     30  C   UNL     1       2.475   3.971  21.333  0.00  0.00    +0.000 C 
ATOM     31  C   UNL     1       1.127   3.785  20.645  0.00  0.00    +0.000 C 
ATOM     32  C   UNL     1       1.474   3.652  19.137  0.00  0.00    +0.000 C 
BRANCH  32  33
ATOM     33  C   UNL     1       1.046   2.253  18.692  0.00  0.00    +0.000 C 
ATOM     34  O   UNL     1      -0.101   1.955  18.389  0.00  0.00    +0.000 OA
BRANCH  33  35
ATOM     35  O   UNL     1       2.022   1.326  18.835  0.00  0.00    +0.000 OA
ATOM     36  H   UNL     1       1.625   0.467  19.077  0.00  0.00    +0.000 HD
ENDBRANCH  33  35
ENDBRANCH  32  33
ENDBRANCH  24  26
ENDBRANCH   1  24
TORSDOF 12
ENDMDL
MODEL 8
REMARK VINA RESULT:      -7.5      2.905      9.679
REMARK  Name = 
REMARK  17 active torsions:
REMARK  status: ('A' for Active; 'I' for Inactive)
REMARK    1  A    between atoms: C_1  and  O_2
REMARK    2  A    between atoms: O_2  and  C_3
REMARK    3  A    between atoms: C_3  and  C_4
REMARK    4  A    between atoms: C_3  and  C_11
REMARK    5  A    between atoms: C_4  and  C_5
REMARK    6  A    between atoms: C_11  and  C_12
REMARK    7  A    between atoms: C_11  and  C_13
REMARK    8  A    between atoms: C_14  and  C_15
REMARK    9  A    between atoms: C_14  and  C_16
REMARK   10  A    between atoms: C_17  and  C_18
REMARK   11  A    between atoms: C_18  and  N_19
REMARK   12  A    between atoms: C_18  and  C_23
REMARK   13  A    between atoms: C_20  and  C_21
REMARK   14  A    between atoms: C_23  and  C_24
REMARK   15  A    between atoms: C_23  and  C_25
REMARK   16  A    between atoms: C_31  and  C_32
REMARK   17  A    between atoms: C_32  and  O_34
REMARK                            x       y       z     vdW  Elec       q    Type
REMARK                         _______ _______ _______ _____ _____    ______ ____
ROOT
ATOM      1  C   UNL     1       0.550  10.666  18.248  0.00  0.00    +0.000 C 
ENDROOT
BRANCH   1   2
ATOM      2  N   UNL     1      -0.820  10.082  18.231  0.00  0.00    +0.000 N 
ATOM      3  C   UNL     1      -1.951  10.538  17.582  0.00  0.00    +0.000 C 
ATOM      4  C   UNL     1      -3.145   9.626  17.642  0.00  0.00    +0.000 C 
ATOM      5  O   UNL     1      -2.055  11.591  16.958  0.00  0.00    +0.000 OA
ATOM      6  H   UNL     1      -0.896   9.200  18.732  0.00  0.00    +0.000 HD
ENDBRANCH   1   2
BRANCH   1   8
ATOM      7  C   UNL     1       1.443   8.244  18.159  0.00  0.00    +0.000 C 
ATOM      8  C   UNL     1       1.574   9.572  18.038  0.00  0.00    +0.000 C 
BRANCH   7  10
ATOM      9  C   UNL     1       3.581   7.298  17.278  0.00  0.00    +0.000 C 
ATOM     10  C   UNL     1       2.600   7.341  18.212  0.00  0.00    +0.000 C 
ATOM     11  C   UNL     1       2.614   6.526  19.481  0.00  0.00    +0.000 C 
BRANCH   9  12
ATOM     12  C   UNL     1       4.830   6.423  17.351  0.00  0.00    +0.000 C 
ATOM     13  C   UNL     1       6.078   7.310  17.177  0.00  0.00    +0.000 C 
BRANCH  12  14
ATOM     14  C   UNL     1       4.907   5.215  16.364  0.00  0.00    +0.000 C 
BRANCH  14  16
ATOM     15  C   UNL     1       7.087   4.431  15.649  0.00  0.00    +0.000 C 
ATOM     16  O   UNL     1       6.085   5.428  15.557  0.00  0.00    +0.000 OA
ENDBRANCH  14  16
BRANCH  14  17
ATOM     17  C   UNL     1       4.907   3.823  17.038  0.00  0.00    +0.000 C 
BRANCH  17  18
ATOM     18  C   UNL     1       3.727   3.485  17.921  0.00  0.00    +0.000 A 
ATOM     19  C   UNL     1       2.417   3.634  17.452  0.00  0.00    +0.000 A 
ATOM     20  C   UNL     1       1.324   3.276  18.244  0.00  0.00    +0.000 A 
ATOM     21  C   UNL     1       1.533   2.759  19.525  0.00  0.00    +0.000 A 
ATOM     22  C   UNL     1       2.830   2.612  20.007  0.00  0.00    +0.000 A 
ATOM     23  C   UNL     1       3.918   2.974  19.213  0.00  0.00    +0.000 A 
ENDBRANCH  17  18
ENDBRANCH  14  17
ENDBRANCH  12  14
ENDBRANCH   9  12
ENDBRANCH   7  10
ENDBRANCH   1   8
BRANCH   1  24
ATOM     24  C   UNL     1       0.844  11.487  19.558  0.00  0.00    +0.000 C 
ATOM     25  C   UNL     1       0.113  10.834  20.733  0.00  0.00    +0.000 C 
BRANCH  24  26
ATOM     26  C   UNL     1       0.531  12.998  19.373  0.00  0.00    +0.000 C 
ATOM     27  O   UNL     1      -0.615  13.419  19.540  0.00  0.00    +0.000 OA
ATOM     28  N   UNL     1       1.548  13.888  19.039  0.00  0.00    +0.000 N 
ATOM     29  C   UNL     1       2.891  13.560  18.552  0.00  0.00    +0.000 C 
ATOM     30  C   UNL     1       3.619  14.873  18.729  0.00  0.00    +0.000 C 
ATOM     31  C   UNL     1       2.600  15.882  18.211  0.00  0.00    +0.000 C 
ATOM     32  C   UNL     1       1.222  15.267  18.576  0.00  0.00    +0.000 C 
BRANCH  32  33
ATOM     33  C   UNL     1       0.544  16.220  19.561  0.00  0.00    +0.000 C 
ATOM     34  O   UNL     1      -0.053  17.234  19.228  0.00  0.00    +0.000 OA
BRANCH  33  35
ATOM     35  O   UNL     1       0.817  15.932  20.856  0.00  0.00    +0.000 OA
ATOM     36  H   UNL     1       1.025  16.755  21.338  0.00  0.00    +0.000 HD
ENDBRANCH  33  35
ENDBRANCH  32  33
ENDBRANCH  24  26
ENDBRANCH   1  24
TORSDOF 12
ENDMDL
MODEL 9
REMARK VINA RESULT:      -7.5      3.054     10.094
REMARK  Name = 
REMARK  17 active torsions:
REMARK  status: ('A' for Active; 'I' for Inactive)
REMARK    1  A    between atoms: C_1  and  O_2
REMARK    2  A    between atoms: O_2  and  C_3
REMARK    3  A    between atoms: C_3  and  C_4
REMARK    4  A    between atoms: C_3  and  C_11
REMARK    5  A    between atoms: C_4  and  C_5
REMARK    6  A    between atoms: C_11  and  C_12
REMARK    7  A    between atoms: C_11  and  C_13
REMARK    8  A    between atoms: C_14  and  C_15
REMARK    9  A    between atoms: C_14  and  C_16
REMARK   10  A    between atoms: C_17  and  C_18
REMARK   11  A    between atoms: C_18  and  N_19
REMARK   12  A    between atoms: C_18  and  C_23
REMARK   13  A    between atoms: C_20  and  C_21
REMARK   14  A    between atoms: C_23  and  C_24
REMARK   15  A    between atoms: C_23  and  C_25
REMARK   16  A    between atoms: C_31  and  C_32
REMARK   17  A    between atoms: C_32  and  O_34
REMARK                            x       y       z     vdW  Elec       q    Type
REMARK                         _______ _______ _______ _____ _____    ______ ____
ROOT
ATOM      1  C   UNL     1       0.262  10.409  18.762  0.00  0.00    +0.000 C 
ENDROOT
BRANCH   1   2
ATOM      2  N   UNL     1      -1.179  10.078  18.581  0.00  0.00    +0.000 N 
ATOM      3  C   UNL     1      -2.095  10.635  17.708  0.00  0.00    +0.000 C 
ATOM      4  C   UNL     1      -3.440   9.963  17.667  0.00  0.00    +0.000 C 
ATOM      5  O   UNL     1      -1.901  11.595  16.968  0.00  0.00    +0.000 OA
ATOM      6  H   UNL     1      -1.496   9.300  19.153  0.00  0.00    +0.000 HD
ENDBRANCH   1   2
BRANCH   1   8
ATOM      7  C   UNL     1       2.237   8.861  18.156  0.00  0.00    +0.000 C 
ATOM      8  C   UNL     1       1.080   9.137  18.772  0.00  0.00    +0.000 C 
BRANCH   7  10
ATOM      9  C   UNL     1       2.176   6.399  18.585  0.00  0.00    +0.000 C 
ATOM     10  C   UNL     1       2.751   7.491  18.024  0.00  0.00    +0.000 C 
ATOM     11  C   UNL     1       3.948   7.430  17.108  0.00  0.00    +0.000 C 
BRANCH   9  12
ATOM     12  C   UNL     1       2.648   4.959  18.398  0.00  0.00    +0.000 C 
ATOM     13  C   UNL     1       1.459   4.097  17.932  0.00  0.00    +0.000 C 
BRANCH  12  14
ATOM     14  C   UNL     1       3.340   4.277  19.620  0.00  0.00    +0.000 C 
BRANCH  14  16
ATOM     15  C   UNL     1       2.122   3.314  21.482  0.00  0.00    +0.000 C 
ATOM     16  O   UNL     1       2.418   3.273  20.097  0.00  0.00    +0.000 OA
ENDBRANCH  14  16
BRANCH  14  17
ATOM     17  C   UNL     1       4.741   3.688  19.329  0.00  0.00    +0.000 C 
BRANCH  17  18
ATOM     18  C   UNL     1       5.669   4.514  18.468  0.00  0.00    +0.000 A 
ATOM     19  C   UNL     1       6.469   5.514  19.034  0.00  0.00    +0.000 A 
ATOM     20  C   UNL     1       7.366   6.246  18.252  0.00  0.00    +0.000 A 
ATOM     21  C   UNL     1       7.473   5.981  16.885  0.00  0.00    +0.000 A 
ATOM     22  C   UNL     1       6.680   4.995  16.307  0.00  0.00    +0.000 A 
ATOM     23  C   UNL     1       5.784   4.269  17.092  0.00  0.00    +0.000 A 
ENDBRANCH  17  18
ENDBRANCH  14  17
ENDBRANCH  12  14
ENDBRANCH   9  12
ENDBRANCH   7  10
ENDBRANCH   1   8
BRANCH   1  24
ATOM     24  C   UNL     1       0.529  11.277  20.047  0.00  0.00    +0.000 C 
ATOM     25  C   UNL     1       0.118  10.477  21.286  0.00  0.00    +0.000 C 
BRANCH  24  26
ATOM     26  C   UNL     1      -0.136  12.678  19.946  0.00  0.00    +0.000 C 
ATOM     27  O   UNL     1      -1.326  12.823  20.233  0.00  0.00    +0.000 OA
ATOM     28  N   UNL     1       0.615  13.782  19.550  0.00  0.00    +0.000 N 
ATOM     29  C   UNL     1       1.943  13.777  18.930  0.00  0.00    +0.000 C 
ATOM     30  C   UNL     1       2.367  15.220  19.084  0.00  0.00    +0.000 C 
ATOM     31  C   UNL     1       1.099  15.974  18.698  0.00  0.00    +0.000 C 
ATOM     32  C   UNL     1      -0.060  15.055  19.168  0.00  0.00    +0.000 C 
BRANCH  32  33
ATOM     33  C   UNL     1      -0.838  15.814  20.244  0.00  0.00    +0.000 C 
ATOM     34  O   UNL     1      -1.897  16.391  20.041  0.00  0.00    +0.000 OA
BRANCH  33  35
ATOM     35  O   UNL     1      -0.154  15.940  21.407  0.00  0.00    +0.000 OA
ATOM     36  H   UNL     1       0.434  15.169  21.526  0.00  0.00    +0.000 HD
ENDBRANCH  33  35
ENDBRANCH  32  33
ENDBRANCH  24  26
ENDBRANCH   1  24
TORSDOF 12
ENDMDL
