MODEL 1
REMARK VINA RESULT:      -8.4      0.000      0.000
REMARK  Name = 
REMARK  3 active torsions:
REMARK  status: ('A' for Active; 'I' for Inactive)
REMARK    1  A    between atoms: N_2  and  C_4
REMARK    2  A    between atoms: C_8  and  C_9
REMARK    3  A    between atoms: N_11  and  C_12
REMARK                            x       y       z     vdW  Elec       q    Type
REMARK                         _______ _______ _______ _____ _____    ______ ____
ROOT
ATOM      1  C   UNL     1       6.024   4.392  16.267  0.00  0.00    +0.000 A 
ATOM      2  C   UNL     1       4.762   4.303  16.806  0.00  0.00    +0.000 A 
ATOM      3  N   UNL     1       4.959   4.314  18.166  0.00  0.00    +0.000 N 
ATOM      4  N   UNL     1       6.281   4.471  18.428  0.00  0.00    +0.000 NA
ATOM      5  N   UNL     1       6.936   4.514  17.275  0.00  0.00    +0.000 NA
ENDROOT
BRANCH   3   6
ATOM      6  C   UNL     1       3.995   4.166  19.196  0.00  0.00    +0.000 A 
ATOM      7  C   UNL     1       3.856   2.930  19.847  0.00  0.00    +0.000 A 
ATOM      8  C   UNL     1       2.891   2.769  20.846  0.00  0.00    +0.000 A 
ATOM      9  C   UNL     1       2.064   3.833  21.196  0.00  0.00    +0.000 A 
ATOM     10  C   UNL     1       2.211   5.054  20.550  0.00  0.00    +0.000 A 
ATOM     11  F   UNL     1       1.411   6.076  20.881  0.00  0.00    +0.000 F 
ATOM     12  C   UNL     1       3.167   5.236  19.556  0.00  0.00    +0.000 A 
ENDBRANCH   3   6
BRANCH   1  17
ATOM     13  C   UNL     1       5.978   3.535  12.607  0.00  0.00    +0.000 A 
ATOM     14  C   UNL     1       7.045   4.304  12.128  0.00  0.00    +0.000 A 
ATOM     15  C   UNL     1       7.767   5.101  13.016  0.00  0.00    +0.000 A 
ATOM     16  C   UNL     1       7.427   5.125  14.373  0.00  0.00    +0.000 A 
ATOM     17  C   UNL     1       6.356   4.363  14.858  0.00  0.00    +0.000 A 
ATOM     18  C   UNL     1       5.630   3.563  13.965  0.00  0.00    +0.000 A 
BRANCH  13  20
ATOM     19  O   UNL     1       4.114   3.096  11.296  0.00  0.00    +0.000 OA
ATOM     20  N   UNL     1       5.215   2.684  11.685  0.00  0.00    +0.000 N 
ATOM     21  O   UNL     1       5.720   1.601  11.352  0.00  0.00    +0.000 OA
ENDBRANCH  13  20
ENDBRANCH   1  17
TORSDOF 3
ENDMDL
MODEL 2
REMARK VINA RESULT:      -8.3      1.259      1.434
REMARK  Name = 
REMARK  3 active torsions:
REMARK  status: ('A' for Active; 'I' for Inactive)
REMARK    1  A    between atoms: N_2  and  C_4
REMARK    2  A    between atoms: C_8  and  C_9
REMARK    3  A    between atoms: N_11  and  C_12
REMARK                            x       y       z     vdW  Elec       q    Type
REMARK                         _______ _______ _______ _____ _____    ______ ____
ROOT
ATOM      1  C   UNL     1       5.525   4.500  16.104  0.00  0.00    +0.000 A 
ATOM      2  C   UNL     1       4.236   4.244  16.508  0.00  0.00    +0.000 A 
ATOM      3  N   UNL     1       4.250   4.433  17.869  0.00  0.00    +0.000 N 
ATOM      4  N   UNL     1       5.481   4.851  18.253  0.00  0.00    +0.000 NA
ATOM      5  N   UNL     1       6.265   4.888  17.183  0.00  0.00    +0.000 NA
ENDROOT
BRANCH   3   6
ATOM      6  C   UNL     1       3.197   4.225  18.797  0.00  0.00    +0.000 A 
ATOM      7  C   UNL     1       3.249   4.839  20.058  0.00  0.00    +0.000 A 
ATOM      8  C   UNL     1       2.228   4.619  20.988  0.00  0.00    +0.000 A 
ATOM      9  C   UNL     1       1.158   3.787  20.665  0.00  0.00    +0.000 A 
ATOM     10  C   UNL     1       1.113   3.186  19.415  0.00  0.00    +0.000 A 
ATOM     11  F   UNL     1       0.088   2.380  19.106  0.00  0.00    +0.000 F 
ATOM     12  C   UNL     1       2.116   3.395  18.474  0.00  0.00    +0.000 A 
ENDBRANCH   3   6
BRANCH   1  17
ATOM     13  C   UNL     1       5.922   3.450  12.516  0.00  0.00    +0.000 A 
ATOM     14  C   UNL     1       7.077   4.150  12.148  0.00  0.00    +0.000 A 
ATOM     15  C   UNL     1       7.712   4.964  13.086  0.00  0.00    +0.000 A 
ATOM     16  C   UNL     1       7.198   5.075  14.382  0.00  0.00    +0.000 A 
ATOM     17  C   UNL     1       6.038   4.382  14.756  0.00  0.00    +0.000 A 
ATOM     18  C   UNL     1       5.400   3.564  13.812  0.00  0.00    +0.000 A 
BRANCH  13  20
ATOM     19  O   UNL     1       4.159   2.957  11.090  0.00  0.00    +0.000 OA
ATOM     20  N   UNL     1       5.249   2.581  11.543  0.00  0.00    +0.000 N 
ATOM     21  O   UNL     1       5.813   1.522  11.232  0.00  0.00    +0.000 OA
ENDBRANCH  13  20
ENDBRANCH   1  17
TORSDOF 3
ENDMDL
MODEL 3
REMARK VINA RESULT:      -8.2      4.486      6.035
REMARK  Name = 
REMARK  3 active torsions:
REMARK  status: ('A' for Active; 'I' for Inactive)
REMARK    1  A    between atoms: N_2  and  C_4
REMARK    2  A    between atoms: C_8  and  C_9
REMARK    3  A    between atoms: N_11  and  C_12
REMARK                            x       y       z     vdW  Elec       q    Type
REMARK                         _______ _______ _______ _____ _____    ______ ____
ROOT
ATOM      1  C   UNL     1       2.800   7.309  18.249  0.00  0.00    +0.000 A 
ATOM      2  C   UNL     1       2.121   7.428  19.439  0.00  0.00    +0.000 A 
ATOM      3  N   UNL     1       1.575   8.689  19.407  0.00  0.00    +0.000 N 
ATOM      4  N   UNL     1       1.861   9.274  18.218  0.00  0.00    +0.000 NA
ATOM      5  N   UNL     1       2.612   8.440  17.509  0.00  0.00    +0.000 NA
ENDROOT
BRANCH   3   6
ATOM      6  C   UNL     1       0.840   9.355  20.421  0.00  0.00    +0.000 A 
ATOM      7  C   UNL     1       0.031  10.453  20.087  0.00  0.00    +0.000 A 
ATOM      8  C   UNL     1      -0.678  11.131  21.084  0.00  0.00    +0.000 A 
ATOM      9  C   UNL     1      -0.581  10.719  22.411  0.00  0.00    +0.000 A 
ATOM     10  C   UNL     1       0.218   9.630  22.732  0.00  0.00    +0.000 A 
ATOM     11  F   UNL     1       0.317   9.238  24.009  0.00  0.00    +0.000 F 
ATOM     12  C   UNL     1       0.928   8.941  21.755  0.00  0.00    +0.000 A 
ENDBRANCH   3   6
BRANCH   1  17
ATOM     13  C   UNL     1       5.704   5.216  17.101  0.00  0.00    +0.000 A 
ATOM     14  C   UNL     1       5.108   3.955  16.983  0.00  0.00    +0.000 A 
ATOM     15  C   UNL     1       3.755   3.806  17.288  0.00  0.00    +0.000 A 
ATOM     16  C   UNL     1       3.003   4.910  17.703  0.00  0.00    +0.000 A 
ATOM     17  C   UNL     1       3.595   6.174  17.829  0.00  0.00    +0.000 A 
ATOM     18  C   UNL     1       4.956   6.323  17.523  0.00  0.00    +0.000 A 
BRANCH  13  20
ATOM     19  O   UNL     1       7.471   6.458  16.253  0.00  0.00    +0.000 OA
ATOM     20  N   UNL     1       7.125   5.388  16.774  0.00  0.00    +0.000 N 
ATOM     21  O   UNL     1       7.893   4.452  17.038  0.00  0.00    +0.000 OA
ENDBRANCH  13  20
ENDBRANCH   1  17
TORSDOF 3
ENDMDL
MODEL 4
REMARK VINA RESULT:      -8.2      0.998      1.580
REMARK  Name = 
REMARK  3 active torsions:
REMARK  status: ('A' for Active; 'I' for Inactive)
REMARK    1  A    between atoms: N_2  and  C_4
REMARK    2  A    between atoms: C_8  and  C_9
REMARK    3  A    between atoms: N_11  and  C_12
REMARK                            x       y       z     vdW  Elec       q    Type
REMARK                         _______ _______ _______ _____ _____    ______ ____
ROOT
ATOM      1  C   UNL     1       5.843   4.345  16.254  0.00  0.00    +0.000 A 
ATOM      2  C   UNL     1       4.556   4.295  16.734  0.00  0.00    +0.000 A 
ATOM      3  N   UNL     1       4.691   4.284  18.101  0.00  0.00    +0.000 N 
ATOM      4  N   UNL     1       6.003   4.390  18.425  0.00  0.00    +0.000 NA
ATOM      5  N   UNL     1       6.712   4.422  17.303  0.00  0.00    +0.000 NA
ENDROOT
BRANCH   3   6
ATOM      6  C   UNL     1       3.676   4.159  19.084  0.00  0.00    +0.000 A 
ATOM      7  C   UNL     1       2.617   5.081  19.114  0.00  0.00    +0.000 A 
ATOM      8  C   UNL     1       1.626   4.980  20.095  0.00  0.00    +0.000 A 
ATOM      9  C   UNL     1       1.688   3.965  21.047  0.00  0.00    +0.000 A 
ATOM     10  C   UNL     1       2.736   3.055  21.009  0.00  0.00    +0.000 A 
ATOM     11  F   UNL     1       2.800   2.084  21.929  0.00  0.00    +0.000 F 
ATOM     12  C   UNL     1       3.730   3.136  20.039  0.00  0.00    +0.000 A 
ENDBRANCH   3   6
BRANCH   1  17
ATOM     13  C   UNL     1       5.952   3.509  12.590  0.00  0.00    +0.000 A 
ATOM     14  C   UNL     1       7.048   4.268  12.164  0.00  0.00    +0.000 A 
ATOM     15  C   UNL     1       7.738   5.052  13.089  0.00  0.00    +0.000 A 
ATOM     16  C   UNL     1       7.339   5.073  14.429  0.00  0.00    +0.000 A 
ATOM     17  C   UNL     1       6.238   4.320  14.861  0.00  0.00    +0.000 A 
ATOM     18  C   UNL     1       5.543   3.533  13.931  0.00  0.00    +0.000 A 
BRANCH  13  20
ATOM     19  O   UNL     1       5.736   1.595  11.296  0.00  0.00    +0.000 OA
ATOM     20  N   UNL     1       5.222   2.672  11.630  0.00  0.00    +0.000 N 
ATOM     21  O   UNL     1       4.135   3.094  11.209  0.00  0.00    +0.000 OA
ENDBRANCH  13  20
ENDBRANCH   1  17
TORSDOF 3
ENDMDL
MODEL 5
REMARK VINA RESULT:      -8.1      4.267      7.701
REMARK  Name = 
REMARK  3 active torsions:
REMARK  status: ('A' for Active; 'I' for Inactive)
REMARK    1  A    between atoms: N_2  and  C_4
REMARK    2  A    between atoms: C_8  and  C_9
REMARK    3  A    between atoms: N_11  and  C_12
REMARK                            x       y       z     vdW  Elec       q    Type
REMARK                         _______ _______ _______ _____ _____    ______ ____
ROOT
ATOM      1  C   UNL     1       4.956   4.881  17.772  0.00  0.00    +0.000 A 
ATOM      2  C   UNL     1       4.769   4.569  16.446  0.00  0.00    +0.000 A 
ATOM      3  N   UNL     1       6.027   4.611  15.894  0.00  0.00    +0.000 N 
ATOM      4  N   UNL     1       6.937   4.872  16.866  0.00  0.00    +0.000 NA
ATOM      5  N   UNL     1       6.290   5.043  18.012  0.00  0.00    +0.000 NA
ENDROOT
BRANCH   3   6
ATOM      6  C   UNL     1       6.398   4.444  14.536  0.00  0.00    +0.000 A 
ATOM      7  C   UNL     1       7.441   5.216  13.998  0.00  0.00    +0.000 A 
ATOM      8  C   UNL     1       7.796   5.076  12.653  0.00  0.00    +0.000 A 
ATOM      9  C   UNL     1       7.115   4.171  11.842  0.00  0.00    +0.000 A 
ATOM     10  C   UNL     1       6.088   3.409  12.382  0.00  0.00    +0.000 A 
ATOM     11  F   UNL     1       5.427   2.544  11.601  0.00  0.00    +0.000 F 
ATOM     12  C   UNL     1       5.721   3.531  13.718  0.00  0.00    +0.000 A 
ENDBRANCH   3   6
BRANCH   1  17
ATOM     13  C   UNL     1       2.549   4.098  20.551  0.00  0.00    +0.000 A 
ATOM     14  C   UNL     1       1.875   5.317  20.687  0.00  0.00    +0.000 A 
ATOM     15  C   UNL     1       2.224   6.387  19.863  0.00  0.00    +0.000 A 
ATOM     16  C   UNL     1       3.235   6.238  18.909  0.00  0.00    +0.000 A 
ATOM     17  C   UNL     1       3.918   5.022  18.772  0.00  0.00    +0.000 A 
ATOM     18  C   UNL     1       3.568   3.946  19.601  0.00  0.00    +0.000 A 
BRANCH  13  20
ATOM     19  O   UNL     1       3.103   2.325  21.942  0.00  0.00    +0.000 OA
ATOM     20  N   UNL     1       2.185   2.960  21.404  0.00  0.00    +0.000 N 
ATOM     21  O   UNL     1       0.980   2.701  21.535  0.00  0.00    +0.000 OA
ENDBRANCH  13  20
ENDBRANCH   1  17
TORSDOF 3
ENDMDL
MODEL 6
REMARK VINA RESULT:      -8.1      1.231      1.479
REMARK  Name = 
REMARK  3 active torsions:
REMARK  status: ('A' for Active; 'I' for Inactive)
REMARK    1  A    between atoms: N_2  and  C_4
REMARK    2  A    between atoms: C_8  and  C_9
REMARK    3  A    between atoms: N_11  and  C_12
REMARK                            x       y       z     vdW  Elec       q    Type
REMARK                         _______ _______ _______ _____ _____    ______ ____
ROOT
ATOM      1  C   UNL     1       5.264   4.542  16.051  0.00  0.00    +0.000 A 
ATOM      2  C   UNL     1       4.124   3.906  16.481  0.00  0.00    +0.000 A 
ATOM      3  N   UNL     1       3.972   4.300  17.788  0.00  0.00    +0.000 N 
ATOM      4  N   UNL     1       4.946   5.189  18.106  0.00  0.00    +0.000 NA
ATOM      5  N   UNL     1       5.740   5.337  17.053  0.00  0.00    +0.000 NA
ENDROOT
BRANCH   3   6
ATOM      6  C   UNL     1       2.999   3.876  18.728  0.00  0.00    +0.000 A 
ATOM      7  C   UNL     1       1.819   3.260  18.280  0.00  0.00    +0.000 A 
ATOM      8  C   UNL     1       0.843   2.862  19.198  0.00  0.00    +0.000 A 
ATOM      9  C   UNL     1       1.038   3.076  20.560  0.00  0.00    +0.000 A 
ATOM     10  C   UNL     1       2.209   3.681  20.996  0.00  0.00    +0.000 A 
ATOM     11  F   UNL     1       2.394   3.894  22.306  0.00  0.00    +0.000 F 
ATOM     12  C   UNL     1       3.193   4.082  20.099  0.00  0.00    +0.000 A 
ENDBRANCH   3   6
BRANCH   1  17
ATOM     13  C   UNL     1       5.947   3.428  12.526  0.00  0.00    +0.000 A 
ATOM     14  C   UNL     1       7.118   4.136  12.233  0.00  0.00    +0.000 A 
ATOM     15  C   UNL     1       7.669   4.978  13.199  0.00  0.00    +0.000 A 
ATOM     16  C   UNL     1       7.057   5.106  14.450  0.00  0.00    +0.000 A 
ATOM     17  C   UNL     1       5.880   4.405  14.748  0.00  0.00    +0.000 A 
ATOM     18  C   UNL     1       5.326   3.560  13.776  0.00  0.00    +0.000 A 
BRANCH  13  20
ATOM     19  O   UNL     1       6.035   1.558  11.154  0.00  0.00    +0.000 OA
ATOM     20  N   UNL     1       5.362   2.531  11.522  0.00  0.00    +0.000 N 
ATOM     21  O   UNL     1       4.228   2.802  11.100  0.00  0.00    +0.000 OA
ENDBRANCH  13  20
ENDBRANCH   1  17
TORSDOF 3
ENDMDL
MODEL 7
REMARK VINA RESULT:      -8.0      4.601      6.021
REMARK  Name = 
REMARK  3 active torsions:
REMARK  status: ('A' for Active; 'I' for Inactive)
REMARK    1  A    between atoms: N_2  and  C_4
REMARK    2  A    between atoms: C_8  and  C_9
REMARK    3  A    between atoms: N_11  and  C_12
REMARK                            x       y       z     vdW  Elec       q    Type
REMARK                         _______ _______ _______ _____ _____    ______ ____
ROOT
ATOM      1  C   UNL     1       2.736   7.421  18.263  0.00  0.00    +0.000 A 
ATOM      2  C   UNL     1       2.143   7.494  19.501  0.00  0.00    +0.000 A 
ATOM      3  N   UNL     1       1.537   8.727  19.528  0.00  0.00    +0.000 N 
ATOM      4  N   UNL     1       1.706   9.339  18.330  0.00  0.00    +0.000 NA
ATOM      5  N   UNL     1       2.440   8.550  17.556  0.00  0.00    +0.000 NA
ENDROOT
BRANCH   3   6
ATOM      6  C   UNL     1       0.849   9.345  20.604  0.00  0.00    +0.000 A 
ATOM      7  C   UNL     1       1.026   8.865  21.912  0.00  0.00    +0.000 A 
ATOM      8  C   UNL     1       0.332   9.453  22.974  0.00  0.00    +0.000 A 
ATOM      9  C   UNL     1      -0.538  10.514  22.737  0.00  0.00    +0.000 A 
ATOM     10  C   UNL     1      -0.705  10.985  21.442  0.00  0.00    +0.000 A 
ATOM     11  F   UNL     1      -1.547  12.001  21.212  0.00  0.00    +0.000 F 
ATOM     12  C   UNL     1      -0.021  10.417  20.372  0.00  0.00    +0.000 A 
ENDBRANCH   3   6
BRANCH   1  17
ATOM     13  C   UNL     1       5.637   5.485  16.861  0.00  0.00    +0.000 A 
ATOM     14  C   UNL     1       5.098   4.196  16.780  0.00  0.00    +0.000 A 
ATOM     15  C   UNL     1       3.784   3.977  17.192  0.00  0.00    +0.000 A 
ATOM     16  C   UNL     1       3.014   5.039  17.677  0.00  0.00    +0.000 A 
ATOM     17  C   UNL     1       3.550   6.331  17.767  0.00  0.00    +0.000 A 
ATOM     18  C   UNL     1       4.871   6.550  17.354  0.00  0.00    +0.000 A 
BRANCH  13  20
ATOM     19  O   UNL     1       7.508   6.844  16.659  0.00  0.00    +0.000 OA
ATOM     20  N   UNL     1       7.016   5.732  16.421  0.00  0.00    +0.000 N 
ATOM     21  O   UNL     1       7.606   4.812  15.835  0.00  0.00    +0.000 OA
ENDBRANCH  13  20
ENDBRANCH   1  17
TORSDOF 3
ENDMDL
MODEL 8
REMARK VINA RESULT:      -8.0      4.316      7.709
REMARK  Name = 
REMARK  3 active torsions:
REMARK  status: ('A' for Active; 'I' for Inactive)
REMARK    1  A    between atoms: N_2  and  C_4
REMARK    2  A    between atoms: C_8  and  C_9
REMARK    3  A    between atoms: N_11  and  C_12
REMARK                            x       y       z     vdW  Elec       q    Type
REMARK                         _______ _______ _______ _____ _____    ______ ____
ROOT
ATOM      1  C   UNL     1       4.971   4.778  17.779  0.00  0.00    +0.000 A 
ATOM      2  C   UNL     1       4.805   4.731  16.415  0.00  0.00    +0.000 A 
ATOM      3  N   UNL     1       6.073   4.556  15.912  0.00  0.00    +0.000 N 
ATOM      4  N   UNL     1       6.951   4.436  16.938  0.00  0.00    +0.000 NA
ATOM      5  N   UNL     1       6.287   4.576  18.078  0.00  0.00    +0.000 NA
ENDROOT
BRANCH   3   6
ATOM      6  C   UNL     1       6.484   4.521  14.555  0.00  0.00    +0.000 A 
ATOM      7  C   UNL     1       5.914   3.583  13.679  0.00  0.00    +0.000 A 
ATOM      8  C   UNL     1       6.331   3.525  12.346  0.00  0.00    +0.000 A 
ATOM      9  C   UNL     1       7.315   4.396  11.884  0.00  0.00    +0.000 A 
ATOM     10  C   UNL     1       7.871   5.322  12.756  0.00  0.00    +0.000 A 
ATOM     11  F   UNL     1       8.823   6.155  12.314  0.00  0.00    +0.000 F 
ATOM     12  C   UNL     1       7.467   5.399  14.085  0.00  0.00    +0.000 A 
ENDBRANCH   3   6
BRANCH   1  17
ATOM     13  C   UNL     1       2.438   4.192  20.493  0.00  0.00    +0.000 A 
ATOM     14  C   UNL     1       1.884   5.469  20.637  0.00  0.00    +0.000 A 
ATOM     15  C   UNL     1       2.354   6.513  19.840  0.00  0.00    +0.000 A 
ATOM     16  C   UNL     1       3.367   6.280  18.904  0.00  0.00    +0.000 A 
ATOM     17  C   UNL     1       3.930   5.004  18.759  0.00  0.00    +0.000 A 
ATOM     18  C   UNL     1       3.458   3.956  19.562  0.00  0.00    +0.000 A 
BRANCH  13  20
ATOM     19  O   UNL     1       2.723   2.591  22.148  0.00  0.00    +0.000 OA
ATOM     20  N   UNL     1       1.945   3.082  21.319  0.00  0.00    +0.000 N 
ATOM     21  O   UNL     1       0.780   2.702  21.135  0.00  0.00    +0.000 OA
ENDBRANCH  13  20
ENDBRANCH   1  17
TORSDOF 3
ENDMDL
MODEL 9
REMARK VINA RESULT:      -8.0      0.916      1.138
REMARK  Name = 
REMARK  3 active torsions:
REMARK  status: ('A' for Active; 'I' for Inactive)
REMARK    1  A    between atoms: N_2  and  C_4
REMARK    2  A    between atoms: C_8  and  C_9
REMARK    3  A    between atoms: N_11  and  C_12
REMARK                            x       y       z     vdW  Elec       q    Type
REMARK                         _______ _______ _______ _____ _____    ______ ____
ROOT
ATOM      1  C   UNL     1       5.337   4.842  15.912  0.00  0.00    +0.000 A 
ATOM      2  C   UNL     1       4.536   3.979  16.622  0.00  0.00    +0.000 A 
ATOM      3  N   UNL     1       4.268   4.636  17.799  0.00  0.00    +0.000 N 
ATOM      4  N   UNL     1       4.831   5.869  17.765  0.00  0.00    +0.000 NA
ATOM      5  N   UNL     1       5.489   5.999  16.620  0.00  0.00    +0.000 NA
ENDROOT
BRANCH   3   6
ATOM      6  C   UNL     1       3.548   4.163  18.926  0.00  0.00    +0.000 A 
ATOM      7  C   UNL     1       4.061   3.097  19.683  0.00  0.00    +0.000 A 
ATOM      8  C   UNL     1       3.345   2.609  20.780  0.00  0.00    +0.000 A 
ATOM      9  C   UNL     1       2.121   3.177  21.124  0.00  0.00    +0.000 A 
ATOM     10  C   UNL     1       1.623   4.233  20.373  0.00  0.00    +0.000 A 
ATOM     11  F   UNL     1       0.442   4.775  20.699  0.00  0.00    +0.000 F 
ATOM     12  C   UNL     1       2.321   4.736  19.280  0.00  0.00    +0.000 A 
ENDBRANCH   3   6
BRANCH   1  17
ATOM     13  C   UNL     1       5.934   3.461  12.467  0.00  0.00    +0.000 A 
ATOM     14  C   UNL     1       7.140   4.083  12.124  0.00  0.00    +0.000 A 
ATOM     15  C   UNL     1       7.743   4.955  13.030  0.00  0.00    +0.000 A 
ATOM     16  C   UNL     1       7.147   5.199  14.271  0.00  0.00    +0.000 A 
ATOM     17  C   UNL     1       5.936   4.585  14.619  0.00  0.00    +0.000 A 
ATOM     18  C   UNL     1       5.329   3.710  13.707  0.00  0.00    +0.000 A 
BRANCH  13  20
ATOM     19  O   UNL     1       5.915   1.509  11.212  0.00  0.00    +0.000 OA
ATOM     20  N   UNL     1       5.293   2.534  11.527  0.00  0.00    +0.000 N 
ATOM     21  O   UNL     1       4.167   2.832  11.103  0.00  0.00    +0.000 OA
ENDBRANCH  13  20
ENDBRANCH   1  17
TORSDOF 3
ENDMDL
