MODEL 1
REMARK VINA RESULT:      -6.0      0.000      0.000
REMARK  Name = 
REMARK  11 active torsions:
REMARK  status: ('A' for Active; 'I' for Inactive)
REMARK    1  A    between atoms: C_1  and  C_2
REMARK    2  A    between atoms: C_2  and  C_3
REMARK    3  A    between atoms: C_3  and  C_4
REMARK    4  A    between atoms: C_4  and  C_5
REMARK    5  A    between atoms: C_5  and  C_6
REMARK    6  A    between atoms: C_6  and  C_7
REMARK    7  A    between atoms: C_7  and  C_8
REMARK    8  A    between atoms: C_8  and  C_9
REMARK    9  A    between atoms: C_9  and  C_10
REMARK   10  A    between atoms: C_10  and  N_11
REMARK   11  A    between atoms: C_15  and  O_16
REMARK                            x       y       z     vdW  Elec       q    Type
REMARK                         _______ _______ _______ _____ _____    ______ ____
ROOT
ATOM      1  C   UNL     1       3.246   4.926  17.526  0.00  0.00    +0.000 C 
ENDROOT
BRANCH   1   2
ATOM      2  C   UNL     1       2.030   4.012  17.388  0.00  0.00    +0.000 C 
BRANCH   2   3
ATOM      3  C   UNL     1       2.359   2.607  17.891  0.00  0.00    +0.000 C 
BRANCH   3   4
ATOM      4  C   UNL     1       1.314   2.120  18.889  0.00  0.00    +0.000 C 
BRANCH   4   5
ATOM      5  C   UNL     1       0.837   3.265  19.779  0.00  0.00    +0.000 C 
BRANCH   5   6
ATOM      6  C   UNL     1       1.689   3.366  21.042  0.00  0.00    +0.000 C 
BRANCH   6   7
ATOM      7  C   UNL     1       2.370   4.730  21.135  0.00  0.00    +0.000 C 
BRANCH   7   9
ATOM      8  C   UNL     1       2.199   7.027  20.132  0.00  0.00    +0.000 C 
ATOM      9  C   UNL     1       1.427   5.849  20.698  0.00  0.00    +0.000 C 
ENDBRANCH   7   9
ENDBRANCH   6   7
ENDBRANCH   5   6
ENDBRANCH   4   5
ENDBRANCH   3   4
ENDBRANCH   2   3
ENDBRANCH   1   2
BRANCH   1  10
ATOM     10  C   UNL     1       4.521   4.113  17.674  0.00  0.00    +0.000 C 
BRANCH  10  11
ATOM     11  N   UNL     1       5.648   5.023  17.979  0.00  0.00    +0.000 N 
ATOM     12  C   UNL     1       6.057   5.926  17.057  0.00  0.00    +0.000 A 
ATOM     13  C   UNL     1       7.171   6.725  17.296  0.00  0.00    +0.000 A 
ATOM     14  C   UNL     1       7.875   6.588  18.489  0.00  0.00    +0.000 A 
ATOM     15  C   UNL     1       7.426   5.669  19.423  0.00  0.00    +0.000 A 
ATOM     16  C   UNL     1       6.294   4.907  19.162  0.00  0.00    +0.000 A 
BRANCH  15  17
ATOM     17  O   UNL     1       8.073   5.468  20.603  0.00  0.00    +0.000 OA
ATOM     18  H   UNL     1       8.842   4.883  20.475  0.00  0.00    +0.000 HD
ENDBRANCH  15  17
ENDBRANCH  10  11
ENDBRANCH   1  10
TORSDOF 10
ENDMDL
MODEL 2
REMARK VINA RESULT:      -5.7      0.873      1.088
REMARK  Name = 
REMARK  11 active torsions:
REMARK  status: ('A' for Active; 'I' for Inactive)
REMARK    1  A    between atoms: C_1  and  C_2
REMARK    2  A    between atoms: C_2  and  C_3
REMARK    3  A    between atoms: C_3  and  C_4
REMARK    4  A    between atoms: C_4  and  C_5
REMARK    5  A    between atoms: C_5  and  C_6
REMARK    6  A    between atoms: C_6  and  C_7
REMARK    7  A    between atoms: C_7  and  C_8
REMARK    8  A    between atoms: C_8  and  C_9
REMARK    9  A    between atoms: C_9  and  C_10
REMARK   10  A    between atoms: C_10  and  N_11
REMARK   11  A    between atoms: C_15  and  O_16
REMARK                            x       y       z     vdW  Elec       q    Type
REMARK                         _______ _______ _______ _____ _____    ______ ____
ROOT
ATOM      1  C   UNL     1       4.265   3.827  17.737  0.00  0.00    +0.000 C 
ENDROOT
BRANCH   1   2
ATOM      2  C   UNL     1       2.899   3.510  17.131  0.00  0.00    +0.000 C 
BRANCH   2   3
ATOM      3  C   UNL     1       2.225   2.375  17.901  0.00  0.00    +0.000 C 
BRANCH   3   4
ATOM      4  C   UNL     1       3.120   1.863  19.024  0.00  0.00    +0.000 C 
BRANCH   4   5
ATOM      5  C   UNL     1       2.821   2.594  20.332  0.00  0.00    +0.000 C 
BRANCH   5   6
ATOM      6  C   UNL     1       1.319   2.797  20.513  0.00  0.00    +0.000 C 
BRANCH   6   7
ATOM      7  C   UNL     1       0.959   4.280  20.471  0.00  0.00    +0.000 C 
BRANCH   7   9
ATOM      8  C   UNL     1       1.951   6.579  20.273  0.00  0.00    +0.000 C 
ATOM      9  C   UNL     1       2.181   5.154  20.741  0.00  0.00    +0.000 C 
ENDBRANCH   7   9
ENDBRANCH   6   7
ENDBRANCH   5   6
ENDBRANCH   4   5
ENDBRANCH   3   4
ENDBRANCH   2   3
ENDBRANCH   1   2
BRANCH   1  10
ATOM     10  C   UNL     1       5.169   4.496  16.716  0.00  0.00    +0.000 C 
BRANCH  10  11
ATOM     11  N   UNL     1       6.119   5.389  17.416  0.00  0.00    +0.000 N 
ATOM     12  C   UNL     1       6.565   6.514  16.807  0.00  0.00    +0.000 A 
ATOM     13  C   UNL     1       7.526   7.314  17.418  0.00  0.00    +0.000 A 
ATOM     14  C   UNL     1       8.040   6.950  18.659  0.00  0.00    +0.000 A 
ATOM     15  C   UNL     1       7.555   5.804  19.268  0.00  0.00    +0.000 A 
ATOM     16  C   UNL     1       6.576   5.044  18.642  0.00  0.00    +0.000 A 
BRANCH  15  17
ATOM     17  O   UNL     1       8.022   5.379  20.473  0.00  0.00    +0.000 OA
ATOM     18  H   UNL     1       8.461   4.513  20.382  0.00  0.00    +0.000 HD
ENDBRANCH  15  17
ENDBRANCH  10  11
ENDBRANCH   1  10
TORSDOF 10
ENDMDL
MODEL 3
REMARK VINA RESULT:      -5.7      3.439      6.624
REMARK  Name = 
REMARK  11 active torsions:
REMARK  status: ('A' for Active; 'I' for Inactive)
REMARK    1  A    between atoms: C_1  and  C_2
REMARK    2  A    between atoms: C_2  and  C_3
REMARK    3  A    between atoms: C_3  and  C_4
REMARK    4  A    between atoms: C_4  and  C_5
REMARK    5  A    between atoms: C_5  and  C_6
REMARK    6  A    between atoms: C_6  and  C_7
REMARK    7  A    between atoms: C_7  and  C_8
REMARK    8  A    between atoms: C_8  and  C_9
REMARK    9  A    between atoms: C_9  and  C_10
REMARK   10  A    between atoms: C_10  and  N_11
REMARK   11  A    between atoms: C_15  and  O_16
REMARK                            x       y       z     vdW  Elec       q    Type
REMARK                         _______ _______ _______ _____ _____    ______ ____
ROOT
ATOM      1  C   UNL     1       3.775   6.391  17.732  0.00  0.00    +0.000 C 
ENDROOT
BRANCH   1   2
ATOM      2  C   UNL     1       5.129   6.821  17.171  0.00  0.00    +0.000 C 
BRANCH   2   3
ATOM      3  C   UNL     1       5.515   5.945  15.980  0.00  0.00    +0.000 C 
BRANCH   3   4
ATOM      4  C   UNL     1       5.896   4.539  16.432  0.00  0.00    +0.000 C 
BRANCH   4   5
ATOM      5  C   UNL     1       6.108   3.621  15.230  0.00  0.00    +0.000 C 
BRANCH   5   6
ATOM      6  C   UNL     1       5.624   4.285  13.944  0.00  0.00    +0.000 C 
BRANCH   6   7
ATOM      7  C   UNL     1       6.480   3.858  12.753  0.00  0.00    +0.000 C 
BRANCH   7   9
ATOM      8  C   UNL     1       4.358   3.262  11.548  0.00  0.00    +0.000 C 
ATOM      9  C   UNL     1       5.763   2.811  11.904  0.00  0.00    +0.000 C 
ENDBRANCH   7   9
ENDBRANCH   6   7
ENDBRANCH   5   6
ENDBRANCH   4   5
ENDBRANCH   3   4
ENDBRANCH   2   3
ENDBRANCH   1   2
BRANCH   1  10
ATOM     10  C   UNL     1       3.907   5.930  19.174  0.00  0.00    +0.000 C 
BRANCH  10  11
ATOM     11  N   UNL     1       2.930   4.850  19.433  0.00  0.00    +0.000 N 
ATOM     12  C   UNL     1       2.078   4.945  20.481  0.00  0.00    +0.000 A 
ATOM     13  C   UNL     1       1.217   3.897  20.788  0.00  0.00    +0.000 A 
ATOM     14  C   UNL     1       1.237   2.738  20.018  0.00  0.00    +0.000 A 
ATOM     15  C   UNL     1       2.105   2.672  18.940  0.00  0.00    +0.000 A 
ATOM     16  C   UNL     1       2.932   3.749  18.647  0.00  0.00    +0.000 A 
BRANCH  15  17
ATOM     17  O   UNL     1       2.192   1.566  18.154  0.00  0.00    +0.000 OA
ATOM     18  H   UNL     1       2.068   0.759  18.686  0.00  0.00    +0.000 HD
ENDBRANCH  15  17
ENDBRANCH  10  11
ENDBRANCH   1  10
TORSDOF 10
ENDMDL
MODEL 4
REMARK VINA RESULT:      -5.6      4.030      7.057
REMARK  Name = 
REMARK  11 active torsions:
REMARK  status: ('A' for Active; 'I' for Inactive)
REMARK    1  A    between atoms: C_1  and  C_2
REMARK    2  A    between atoms: C_2  and  C_3
REMARK    3  A    between atoms: C_3  and  C_4
REMARK    4  A    between atoms: C_4  and  C_5
REMARK    5  A    between atoms: C_5  and  C_6
REMARK    6  A    between atoms: C_6  and  C_7
REMARK    7  A    between atoms: C_7  and  C_8
REMARK    8  A    between atoms: C_8  and  C_9
REMARK    9  A    between atoms: C_9  and  C_10
REMARK   10  A    between atoms: C_10  and  N_11
REMARK   11  A    between atoms: C_15  and  O_16
REMARK                            x       y       z     vdW  Elec       q    Type
REMARK                         _______ _______ _______ _____ _____    ______ ____
ROOT
ATOM      1  C   UNL     1       4.485   3.610  17.048  0.00  0.00    +0.000 C 
ENDROOT
BRANCH   1   2
ATOM      2  C   UNL     1       5.051   4.491  15.935  0.00  0.00    +0.000 C 
BRANCH   2   3
ATOM      3  C   UNL     1       6.106   3.727  15.135  0.00  0.00    +0.000 C 
BRANCH   3   4
ATOM      4  C   UNL     1       6.773   4.629  14.102  0.00  0.00    +0.000 C 
BRANCH   4   5
ATOM      5  C   UNL     1       6.610   4.056  12.696  0.00  0.00    +0.000 C 
BRANCH   5   6
ATOM      6  C   UNL     1       5.351   3.199  12.597  0.00  0.00    +0.000 C 
BRANCH   6   7
ATOM      7  C   UNL     1       4.894   3.064  11.146  0.00  0.00    +0.000 C 
BRANCH   7   9
ATOM      8  C   UNL     1       3.074   3.973   9.672  0.00  0.00    +0.000 C 
ATOM      9  C   UNL     1       3.397   3.336  11.011  0.00  0.00    +0.000 C 
ENDBRANCH   7   9
ENDBRANCH   6   7
ENDBRANCH   5   6
ENDBRANCH   4   5
ENDBRANCH   3   4
ENDBRANCH   2   3
ENDBRANCH   1   2
BRANCH   1  10
ATOM     10  C   UNL     1       2.971   3.533  16.961  0.00  0.00    +0.000 C 
BRANCH  10  11
ATOM     11  N   UNL     1       2.397   3.643  18.320  0.00  0.00    +0.000 N 
ATOM     12  C   UNL     1       1.650   2.632  18.825  0.00  0.00    +0.000 A 
ATOM     13  C   UNL     1       1.031   2.762  20.064  0.00  0.00    +0.000 A 
ATOM     14  C   UNL     1       1.174   3.942  20.787  0.00  0.00    +0.000 A 
ATOM     15  C   UNL     1       1.957   4.955  20.258  0.00  0.00    +0.000 A 
ATOM     16  C   UNL     1       2.582   4.781  19.029  0.00  0.00    +0.000 A 
BRANCH  15  17
ATOM     17  O   UNL     1       2.128   6.142  20.899  0.00  0.00    +0.000 OA
ATOM     18  H   UNL     1       1.527   6.205  21.665  0.00  0.00    +0.000 HD
ENDBRANCH  15  17
ENDBRANCH  10  11
ENDBRANCH   1  10
TORSDOF 10
ENDMDL
MODEL 5
REMARK VINA RESULT:      -5.6      0.966      2.598
REMARK  Name = 
REMARK  11 active torsions:
REMARK  status: ('A' for Active; 'I' for Inactive)
REMARK    1  A    between atoms: C_1  and  C_2
REMARK    2  A    between atoms: C_2  and  C_3
REMARK    3  A    between atoms: C_3  and  C_4
REMARK    4  A    between atoms: C_4  and  C_5
REMARK    5  A    between atoms: C_5  and  C_6
REMARK    6  A    between atoms: C_6  and  C_7
REMARK    7  A    between atoms: C_7  and  C_8
REMARK    8  A    between atoms: C_8  and  C_9
REMARK    9  A    between atoms: C_9  and  C_10
REMARK   10  A    between atoms: C_10  and  N_11
REMARK   11  A    between atoms: C_15  and  O_16
REMARK                            x       y       z     vdW  Elec       q    Type
REMARK                         _______ _______ _______ _____ _____    ______ ____
ROOT
ATOM      1  C   UNL     1       3.457   5.391  18.194  0.00  0.00    +0.000 C 
ENDROOT
BRANCH   1   2
ATOM      2  C   UNL     1       2.901   6.769  18.547  0.00  0.00    +0.000 C 
BRANCH   2   3
ATOM      3  C   UNL     1       2.123   6.710  19.861  0.00  0.00    +0.000 C 
BRANCH   3   4
ATOM      4  C   UNL     1       2.338   5.376  20.568  0.00  0.00    +0.000 C 
BRANCH   4   5
ATOM      5  C   UNL     1       1.088   4.504  20.474  0.00  0.00    +0.000 C 
BRANCH   5   6
ATOM      6  C   UNL     1       1.379   3.081  20.945  0.00  0.00    +0.000 C 
BRANCH   6   7
ATOM      7  C   UNL     1       1.299   2.094  19.782  0.00  0.00    +0.000 C 
BRANCH   7   9
ATOM      8  C   UNL     1       2.529   2.073  17.592  0.00  0.00    +0.000 C 
ATOM      9  C   UNL     1       2.655   1.935  19.098  0.00  0.00    +0.000 C 
ENDBRANCH   7   9
ENDBRANCH   6   7
ENDBRANCH   5   6
ENDBRANCH   4   5
ENDBRANCH   3   4
ENDBRANCH   2   3
ENDBRANCH   1   2
BRANCH   1  10
ATOM     10  C   UNL     1       4.525   5.497  17.118  0.00  0.00    +0.000 C 
BRANCH  10  11
ATOM     11  N   UNL     1       5.771   6.023  17.717  0.00  0.00    +0.000 N 
ATOM     12  C   UNL     1       6.436   7.038  17.116  0.00  0.00    +0.000 A 
ATOM     13  C   UNL     1       7.654   7.481  17.620  0.00  0.00    +0.000 A 
ATOM     14  C   UNL     1       8.199   6.870  18.746  0.00  0.00    +0.000 A 
ATOM     15  C   UNL     1       7.491   5.846  19.353  0.00  0.00    +0.000 A 
ATOM     16  C   UNL     1       6.264   5.447  18.838  0.00  0.00    +0.000 A 
BRANCH  15  17
ATOM     17  O   UNL     1       7.969   5.192  20.446  0.00  0.00    +0.000 OA
ATOM     18  H   UNL     1       8.796   4.724  20.229  0.00  0.00    +0.000 HD
ENDBRANCH  15  17
ENDBRANCH  10  11
ENDBRANCH   1  10
TORSDOF 10
ENDMDL
MODEL 6
REMARK VINA RESULT:      -5.6      0.943      1.350
REMARK  Name = 
REMARK  11 active torsions:
REMARK  status: ('A' for Active; 'I' for Inactive)
REMARK    1  A    between atoms: C_1  and  C_2
REMARK    2  A    between atoms: C_2  and  C_3
REMARK    3  A    between atoms: C_3  and  C_4
REMARK    4  A    between atoms: C_4  and  C_5
REMARK    5  A    between atoms: C_5  and  C_6
REMARK    6  A    between atoms: C_6  and  C_7
REMARK    7  A    between atoms: C_7  and  C_8
REMARK    8  A    between atoms: C_8  and  C_9
REMARK    9  A    between atoms: C_9  and  C_10
REMARK   10  A    between atoms: C_10  and  N_11
REMARK   11  A    between atoms: C_15  and  O_16
REMARK                            x       y       z     vdW  Elec       q    Type
REMARK                         _______ _______ _______ _____ _____    ______ ____
ROOT
ATOM      1  C   UNL     1       4.661   3.938  16.816  0.00  0.00    +0.000 C 
ENDROOT
BRANCH   1   2
ATOM      2  C   UNL     1       4.004   2.841  17.653  0.00  0.00    +0.000 C 
BRANCH   2   3
ATOM      3  C   UNL     1       2.499   2.798  17.390  0.00  0.00    +0.000 C 
BRANCH   3   4
ATOM      4  C   UNL     1       1.801   1.831  18.340  0.00  0.00    +0.000 C 
BRANCH   4   5
ATOM      5  C   UNL     1       0.576   2.485  18.976  0.00  0.00    +0.000 C 
BRANCH   5   6
ATOM      6  C   UNL     1       0.908   3.034  20.361  0.00  0.00    +0.000 C 
BRANCH   6   7
ATOM      7  C   UNL     1       0.849   4.560  20.372  0.00  0.00    +0.000 C 
BRANCH   7   9
ATOM      8  C   UNL     1       3.277   4.164  20.879  0.00  0.00    +0.000 C 
ATOM      9  C   UNL     1       2.250   5.167  20.386  0.00  0.00    +0.000 C 
ENDBRANCH   7   9
ENDBRANCH   6   7
ENDBRANCH   5   6
ENDBRANCH   4   5
ENDBRANCH   3   4
ENDBRANCH   2   3
ENDBRANCH   1   2
BRANCH   1  10
ATOM     10  C   UNL     1       4.382   5.310  17.406  0.00  0.00    +0.000 C 
BRANCH  10  11
ATOM     11  N   UNL     1       5.653   5.911  17.865  0.00  0.00    +0.000 N 
ATOM     12  C   UNL     1       6.208   6.935  17.173  0.00  0.00    +0.000 A 
ATOM     13  C   UNL     1       7.447   7.448  17.543  0.00  0.00    +0.000 A 
ATOM     14  C   UNL     1       8.126   6.900  18.628  0.00  0.00    +0.000 A 
ATOM     15  C   UNL     1       7.529   5.865  19.330  0.00  0.00    +0.000 A 
ATOM     16  C   UNL     1       6.279   5.395  18.949  0.00  0.00    +0.000 A 
BRANCH  15  17
ATOM     17  O   UNL     1       8.141   5.270  20.389  0.00  0.00    +0.000 OA
ATOM     18  H   UNL     1       8.138   5.863  21.162  0.00  0.00    +0.000 HD
ENDBRANCH  15  17
ENDBRANCH  10  11
ENDBRANCH   1  10
TORSDOF 10
ENDMDL
MODEL 7
REMARK VINA RESULT:      -5.5      3.593      6.869
REMARK  Name = 
REMARK  11 active torsions:
REMARK  status: ('A' for Active; 'I' for Inactive)
REMARK    1  A    between atoms: C_1  and  C_2
REMARK    2  A    between atoms: C_2  and  C_3
REMARK    3  A    between atoms: C_3  and  C_4
REMARK    4  A    between atoms: C_4  and  C_5
REMARK    5  A    between atoms: C_5  and  C_6
REMARK    6  A    between atoms: C_6  and  C_7
REMARK    7  A    between atoms: C_7  and  C_8
REMARK    8  A    between atoms: C_8  and  C_9
REMARK    9  A    between atoms: C_9  and  C_10
REMARK   10  A    between atoms: C_10  and  N_11
REMARK   11  A    between atoms: C_15  and  O_16
REMARK                            x       y       z     vdW  Elec       q    Type
REMARK                         _______ _______ _______ _____ _____    ______ ____
ROOT
ATOM      1  C   UNL     1       3.957   5.290  17.490  0.00  0.00    +0.000 C 
ENDROOT
BRANCH   1   2
ATOM      2  C   UNL     1       5.147   5.682  16.615  0.00  0.00    +0.000 C 
BRANCH   2   3
ATOM      3  C   UNL     1       5.652   4.474  15.828  0.00  0.00    +0.000 C 
BRANCH   3   4
ATOM      4  C   UNL     1       7.041   4.731  15.254  0.00  0.00    +0.000 C 
BRANCH   4   5
ATOM      5  C   UNL     1       7.002   4.755  13.728  0.00  0.00    +0.000 C 
BRANCH   5   6
ATOM      6  C   UNL     1       5.878   3.871  13.196  0.00  0.00    +0.000 C 
BRANCH   6   7
ATOM      7  C   UNL     1       6.404   2.882  12.158  0.00  0.00    +0.000 C 
BRANCH   7   9
ATOM      8  C   UNL     1       4.075   3.271  11.302  0.00  0.00    +0.000 C 
ATOM      9  C   UNL     1       5.273   2.340  11.287  0.00  0.00    +0.000 C 
ENDBRANCH   7   9
ENDBRANCH   6   7
ENDBRANCH   5   6
ENDBRANCH   4   5
ENDBRANCH   3   4
ENDBRANCH   2   3
ENDBRANCH   1   2
BRANCH   1  10
ATOM     10  C   UNL     1       3.728   3.789  17.451  0.00  0.00    +0.000 C 
BRANCH  10  11
ATOM     11  N   UNL     1       2.804   3.407  18.542  0.00  0.00    +0.000 N 
ATOM     12  C   UNL     1       1.466   3.512  18.364  0.00  0.00    +0.000 A 
ATOM     13  C   UNL     1       0.591   3.243  19.412  0.00  0.00    +0.000 A 
ATOM     14  C   UNL     1       1.095   2.872  20.655  0.00  0.00    +0.000 A 
ATOM     15  C   UNL     1       2.467   2.755  20.806  0.00  0.00    +0.000 A 
ATOM     16  C   UNL     1       3.310   3.006  19.731  0.00  0.00    +0.000 A 
BRANCH  15  17
ATOM     17  O   UNL     1       3.032   2.414  21.996  0.00  0.00    +0.000 OA
ATOM     18  H   UNL     1       2.376   1.983  22.574  0.00  0.00    +0.000 HD
ENDBRANCH  15  17
ENDBRANCH  10  11
ENDBRANCH   1  10
TORSDOF 10
ENDMDL
MODEL 8
REMARK VINA RESULT:      -5.5      3.885      6.814
REMARK  Name = 
REMARK  11 active torsions:
REMARK  status: ('A' for Active; 'I' for Inactive)
REMARK    1  A    between atoms: C_1  and  C_2
REMARK    2  A    between atoms: C_2  and  C_3
REMARK    3  A    between atoms: C_3  and  C_4
REMARK    4  A    between atoms: C_4  and  C_5
REMARK    5  A    between atoms: C_5  and  C_6
REMARK    6  A    between atoms: C_6  and  C_7
REMARK    7  A    between atoms: C_7  and  C_8
REMARK    8  A    between atoms: C_8  and  C_9
REMARK    9  A    between atoms: C_9  and  C_10
REMARK   10  A    between atoms: C_10  and  N_11
REMARK   11  A    between atoms: C_15  and  O_16
REMARK                            x       y       z     vdW  Elec       q    Type
REMARK                         _______ _______ _______ _____ _____    ______ ____
ROOT
ATOM      1  C   UNL     1       6.469   5.193  18.381  0.00  0.00    +0.000 C 
ENDROOT
BRANCH   1   2
ATOM      2  C   UNL     1       6.623   5.468  16.886  0.00  0.00    +0.000 C 
BRANCH   2   3
ATOM      3  C   UNL     1       6.680   4.156  16.105  0.00  0.00    +0.000 C 
BRANCH   3   4
ATOM      4  C   UNL     1       5.893   4.255  14.802  0.00  0.00    +0.000 C 
BRANCH   4   5
ATOM      5  C   UNL     1       6.836   4.381  13.607  0.00  0.00    +0.000 C 
BRANCH   5   6
ATOM      6  C   UNL     1       6.316   3.583  12.415  0.00  0.00    +0.000 C 
BRANCH   6   7
ATOM      7  C   UNL     1       4.792   3.644  12.339  0.00  0.00    +0.000 C 
BRANCH   7   9
ATOM      8  C   UNL     1       3.299   3.755  10.321  0.00  0.00    +0.000 C 
ATOM      9  C   UNL     1       4.269   2.898  11.114  0.00  0.00    +0.000 C 
ENDBRANCH   7   9
ENDBRANCH   6   7
ENDBRANCH   5   6
ENDBRANCH   4   5
ENDBRANCH   3   4
ENDBRANCH   2   3
ENDBRANCH   1   2
BRANCH   1  10
ATOM     10  C   UNL     1       5.102   5.635  18.875  0.00  0.00    +0.000 C 
BRANCH  10  11
ATOM     11  N   UNL     1       4.132   4.536  18.675  0.00  0.00    +0.000 N 
ATOM     12  C   UNL     1       4.471   3.265  18.999  0.00  0.00    +0.000 A 
ATOM     13  C   UNL     1       3.602   2.212  18.732  0.00  0.00    +0.000 A 
ATOM     14  C   UNL     1       2.378   2.465  18.119  0.00  0.00    +0.000 A 
ATOM     15  C   UNL     1       2.047   3.775  17.814  0.00  0.00    +0.000 A 
ATOM     16  C   UNL     1       2.928   4.805  18.119  0.00  0.00    +0.000 A 
BRANCH  15  17
ATOM     17  O   UNL     1       0.877   4.096  17.199  0.00  0.00    +0.000 OA
ATOM     18  H   UNL     1       0.800   5.063  17.096  0.00  0.00    +0.000 HD
ENDBRANCH  15  17
ENDBRANCH  10  11
ENDBRANCH   1  10
TORSDOF 10
ENDMDL
MODEL 9
REMARK VINA RESULT:      -5.5      3.392      6.734
REMARK  Name = 
REMARK  11 active torsions:
REMARK  status: ('A' for Active; 'I' for Inactive)
REMARK    1  A    between atoms: C_1  and  C_2
REMARK    2  A    between atoms: C_2  and  C_3
REMARK    3  A    between atoms: C_3  and  C_4
REMARK    4  A    between atoms: C_4  and  C_5
REMARK    5  A    between atoms: C_5  and  C_6
REMARK    6  A    between atoms: C_6  and  C_7
REMARK    7  A    between atoms: C_7  and  C_8
REMARK    8  A    between atoms: C_8  and  C_9
REMARK    9  A    between atoms: C_9  and  C_10
REMARK   10  A    between atoms: C_10  and  N_11
REMARK   11  A    between atoms: C_15  and  O_16
REMARK                            x       y       z     vdW  Elec       q    Type
REMARK                         _______ _______ _______ _____ _____    ______ ____
ROOT
ATOM      1  C   UNL     1       3.939   5.414  17.326  0.00  0.00    +0.000 C 
ENDROOT
BRANCH   1   2
ATOM      2  C   UNL     1       5.339   5.973  17.574  0.00  0.00    +0.000 C 
BRANCH   2   3
ATOM      3  C   UNL     1       6.271   4.873  18.079  0.00  0.00    +0.000 C 
BRANCH   3   4
ATOM      4  C   UNL     1       7.295   4.487  17.017  0.00  0.00    +0.000 C 
BRANCH   4   5
ATOM      5  C   UNL     1       6.886   5.025  15.647  0.00  0.00    +0.000 C 
BRANCH   5   6
ATOM      6  C   UNL     1       6.361   3.904  14.754  0.00  0.00    +0.000 C 
BRANCH   6   7
ATOM      7  C   UNL     1       6.336   4.337  13.290  0.00  0.00    +0.000 C 
BRANCH   7   9
ATOM      8  C   UNL     1       4.641   3.327  11.735  0.00  0.00    +0.000 C 
ATOM      9  C   UNL     1       6.009   3.162  12.372  0.00  0.00    +0.000 C 
ENDBRANCH   7   9
ENDBRANCH   6   7
ENDBRANCH   5   6
ENDBRANCH   4   5
ENDBRANCH   3   4
ENDBRANCH   2   3
ENDBRANCH   1   2
BRANCH   1  10
ATOM     10  C   UNL     1       2.928   6.046  18.268  0.00  0.00    +0.000 C 
BRANCH  10  11
ATOM     11  N   UNL     1       2.264   4.985  19.055  0.00  0.00    +0.000 N 
ATOM     12  C   UNL     1       2.397   4.956  20.402  0.00  0.00    +0.000 A 
ATOM     13  C   UNL     1       1.853   3.913  21.144  0.00  0.00    +0.000 A 
ATOM     14  C   UNL     1       1.173   2.886  20.496  0.00  0.00    +0.000 A 
ATOM     15  C   UNL     1       1.035   2.947  19.119  0.00  0.00    +0.000 A 
ATOM     16  C   UNL     1       1.569   4.017  18.413  0.00  0.00    +0.000 A 
BRANCH  15  17
ATOM     17  O   UNL     1       0.399   1.971  18.417  0.00  0.00    +0.000 OA
ATOM     18  H   UNL     1       0.984   1.201  18.296  0.00  0.00    +0.000 HD
ENDBRANCH  15  17
ENDBRANCH  10  11
ENDBRANCH   1  10
TORSDOF 10
ENDMDL
