MODEL 1
REMARK VINA RESULT:      -7.7      0.000      0.000
REMARK  Name = 
REMARK  5 active torsions:
REMARK  status: ('A' for Active; 'I' for Inactive)
REMARK    1  A    between atoms: C_1  and  N_2
REMARK    2  A    between atoms: C_3  and  C_5
REMARK    3  A    between atoms: C_9  and  N_10
REMARK    4  A    between atoms: N_10  and  C_11
REMARK    5  A    between atoms: C_11  and  C_12
REMARK                            x       y       z     vdW  Elec       q    Type
REMARK                         _______ _______ _______ _____ _____    ______ ____
ROOT
ATOM      1  C   UNL     1       6.866   5.184  16.204  0.00  0.00    +0.000 A 
ATOM      2  C   UNL     1       7.413   6.344  16.744  0.00  0.00    +0.000 A 
ATOM      3  C   UNL     1       7.282   6.547  18.106  0.00  0.00    +0.000 A 
ATOM      4  C   UNL     1       6.627   5.584  18.871  0.00  0.00    +0.000 A 
ATOM      5  C   UNL     1       6.095   4.446  18.259  0.00  0.00    +0.000 A 
ATOM      6  N   UNL     1       6.201   4.243  16.929  0.00  0.00    +0.000 NA
ENDROOT
BRANCH   1   9
ATOM      7  C   UNL     1       6.220   3.583  12.827  0.00  0.00    +0.000 C 
ATOM      8  N   UNL     1       6.174   3.948  14.219  0.00  0.00    +0.000 N 
ATOM      9  C   UNL     1       7.002   4.919  14.735  0.00  0.00    +0.000 C 
ATOM     10  O   UNL     1       7.814   5.545  14.050  0.00  0.00    +0.000 OA
ATOM     11  H   UNL     1       5.455   3.577  14.831  0.00  0.00    +0.000 HD
ENDBRANCH   1   9
BRANCH   5  12
ATOM     12  N   UNL     1       5.355   3.571  19.035  0.00  0.00    +0.000 N 
ATOM     13  H   UNL     1       5.846   3.103  19.786  0.00  0.00    +0.000 HD
BRANCH  12  14
ATOM     14  C   UNL     1       4.149   2.955  18.523  0.00  0.00    +0.000 C 
BRANCH  14  15
ATOM     15  C   UNL     1       3.114   2.965  19.617  0.00  0.00    +0.000 A 
ATOM     16  C   UNL     1       1.788   3.341  19.385  0.00  0.00    +0.000 A 
ATOM     17  C   UNL     1       0.863   3.295  20.425  0.00  0.00    +0.000 A 
ATOM     18  C   UNL     1       1.294   2.868  21.670  0.00  0.00    +0.000 A 
ATOM     19  N   UNL     1       2.565   2.503  21.938  0.00  0.00    +0.000 NA
ATOM     20  C   UNL     1       3.442   2.553  20.907  0.00  0.00    +0.000 A 
ENDBRANCH  14  15
ENDBRANCH  12  14
ENDBRANCH   5  12
TORSDOF 4
ENDMDL
MODEL 2
REMARK VINA RESULT:      -7.4      1.493      1.724
REMARK  Name = 
REMARK  5 active torsions:
REMARK  status: ('A' for Active; 'I' for Inactive)
REMARK    1  A    between atoms: C_1  and  N_2
REMARK    2  A    between atoms: C_3  and  C_5
REMARK    3  A    between atoms: C_9  and  N_10
REMARK    4  A    between atoms: N_10  and  C_11
REMARK    5  A    between atoms: C_11  and  C_12
REMARK                            x       y       z     vdW  Elec       q    Type
REMARK                         _______ _______ _______ _____ _____    ______ ____
ROOT
ATOM      1  C   UNL     1       5.784   5.150  16.156  0.00  0.00    +0.000 A 
ATOM      2  C   UNL     1       5.069   6.337  16.289  0.00  0.00    +0.000 A 
ATOM      3  C   UNL     1       4.453   6.588  17.502  0.00  0.00    +0.000 A 
ATOM      4  C   UNL     1       4.586   5.658  18.531  0.00  0.00    +0.000 A 
ATOM      5  C   UNL     1       5.313   4.483  18.323  0.00  0.00    +0.000 A 
ATOM      6  N   UNL     1       5.905   4.217  17.140  0.00  0.00    +0.000 NA
ENDROOT
BRANCH   1   9
ATOM      7  C   UNL     1       6.369   3.641  12.726  0.00  0.00    +0.000 C 
ATOM      8  N   UNL     1       5.802   4.025  13.993  0.00  0.00    +0.000 N 
ATOM      9  C   UNL     1       6.479   4.849  14.864  0.00  0.00    +0.000 C 
ATOM     10  O   UNL     1       7.592   5.320  14.617  0.00  0.00    +0.000 OA
ATOM     11  H   UNL     1       4.844   3.788  14.228  0.00  0.00    +0.000 HD
ENDBRANCH   1   9
BRANCH   5  12
ATOM     12  N   UNL     1       5.326   3.536  19.332  0.00  0.00    +0.000 N 
ATOM     13  H   UNL     1       6.106   3.567  19.976  0.00  0.00    +0.000 HD
BRANCH  12  14
ATOM     14  C   UNL     1       4.613   2.284  19.190  0.00  0.00    +0.000 C 
BRANCH  14  15
ATOM     15  C   UNL     1       3.143   2.556  19.371  0.00  0.00    +0.000 A 
ATOM     16  C   UNL     1       2.624   3.094  20.552  0.00  0.00    +0.000 A 
ATOM     17  C   UNL     1       1.261   3.362  20.651  0.00  0.00    +0.000 A 
ATOM     18  C   UNL     1       0.456   3.087  19.559  0.00  0.00    +0.000 A 
ATOM     19  N   UNL     1       0.915   2.562  18.404  0.00  0.00    +0.000 NA
ATOM     20  C   UNL     1       2.245   2.316  18.333  0.00  0.00    +0.000 A 
ENDBRANCH  14  15
ENDBRANCH  12  14
ENDBRANCH   5  12
TORSDOF 4
ENDMDL
MODEL 3
REMARK VINA RESULT:      -7.3      1.513      1.641
REMARK  Name = 
REMARK  5 active torsions:
REMARK  status: ('A' for Active; 'I' for Inactive)
REMARK    1  A    between atoms: C_1  and  N_2
REMARK    2  A    between atoms: C_3  and  C_5
REMARK    3  A    between atoms: C_9  and  N_10
REMARK    4  A    between atoms: N_10  and  C_11
REMARK    5  A    between atoms: C_11  and  C_12
REMARK                            x       y       z     vdW  Elec       q    Type
REMARK                         _______ _______ _______ _____ _____    ______ ____
ROOT
ATOM      1  C   UNL     1       6.573   5.014  16.332  0.00  0.00    +0.000 A 
ATOM      2  C   UNL     1       7.560   4.694  17.260  0.00  0.00    +0.000 A 
ATOM      3  C   UNL     1       7.269   4.876  18.601  0.00  0.00    +0.000 A 
ATOM      4  C   UNL     1       6.010   5.354  18.959  0.00  0.00    +0.000 A 
ATOM      5  C   UNL     1       5.071   5.662  17.971  0.00  0.00    +0.000 A 
ATOM      6  N   UNL     1       5.346   5.505  16.659  0.00  0.00    +0.000 NA
ENDROOT
BRANCH   1   9
ATOM      7  C   UNL     1       6.217   3.591  12.835  0.00  0.00    +0.000 C 
ATOM      8  N   UNL     1       6.046   3.892  14.233  0.00  0.00    +0.000 N 
ATOM      9  C   UNL     1       6.843   4.814  14.872  0.00  0.00    +0.000 C 
ATOM     10  O   UNL     1       7.732   5.449  14.299  0.00  0.00    +0.000 OA
ATOM     11  H   UNL     1       5.263   3.513  14.755  0.00  0.00    +0.000 HD
ENDBRANCH   1   9
BRANCH   5  12
ATOM     12  N   UNL     1       3.876   6.239  18.362  0.00  0.00    +0.000 N 
ATOM     13  H   UNL     1       3.895   6.797  19.205  0.00  0.00    +0.000 HD
BRANCH  12  14
ATOM     14  C   UNL     1       2.606   5.684  17.944  0.00  0.00    +0.000 C 
BRANCH  14  15
ATOM     15  C   UNL     1       2.119   4.754  19.024  0.00  0.00    +0.000 A 
ATOM     16  C   UNL     1       1.345   3.625  18.742  0.00  0.00    +0.000 A 
ATOM     17  C   UNL     1       0.954   2.777  19.776  0.00  0.00    +0.000 A 
ATOM     18  C   UNL     1       1.355   3.084  21.065  0.00  0.00    +0.000 A 
ATOM     19  N   UNL     1       2.096   4.167  21.380  0.00  0.00    +0.000 NA
ATOM     20  C   UNL     1       2.466   4.971  20.355  0.00  0.00    +0.000 A 
ENDBRANCH  14  15
ENDBRANCH  12  14
ENDBRANCH   5  12
TORSDOF 4
ENDMDL
MODEL 4
REMARK VINA RESULT:      -7.3      1.473      1.723
REMARK  Name = 
REMARK  5 active torsions:
REMARK  status: ('A' for Active; 'I' for Inactive)
REMARK    1  A    between atoms: C_1  and  N_2
REMARK    2  A    between atoms: C_3  and  C_5
REMARK    3  A    between atoms: C_9  and  N_10
REMARK    4  A    between atoms: N_10  and  C_11
REMARK    5  A    between atoms: C_11  and  C_12
REMARK                            x       y       z     vdW  Elec       q    Type
REMARK                         _______ _______ _______ _____ _____    ______ ____
ROOT
ATOM      1  C   UNL     1       6.541   4.953  16.229  0.00  0.00    +0.000 A 
ATOM      2  C   UNL     1       7.530   4.678  17.169  0.00  0.00    +0.000 A 
ATOM      3  C   UNL     1       7.221   4.865  18.505  0.00  0.00    +0.000 A 
ATOM      4  C   UNL     1       5.943   5.302  18.847  0.00  0.00    +0.000 A 
ATOM      5  C   UNL     1       5.002   5.566  17.847  0.00  0.00    +0.000 A 
ATOM      6  N   UNL     1       5.295   5.405  16.540  0.00  0.00    +0.000 NA
ENDROOT
BRANCH   1   9
ATOM      7  C   UNL     1       6.282   3.466  12.750  0.00  0.00    +0.000 C 
ATOM      8  N   UNL     1       6.086   3.777  14.142  0.00  0.00    +0.000 N 
ATOM      9  C   UNL     1       6.830   4.748  14.773  0.00  0.00    +0.000 C 
ATOM     10  O   UNL     1       7.690   5.419  14.197  0.00  0.00    +0.000 OA
ATOM     11  H   UNL     1       5.320   3.365  14.665  0.00  0.00    +0.000 HD
ENDBRANCH   1   9
BRANCH   5  12
ATOM     12  N   UNL     1       3.784   6.106  18.222  0.00  0.00    +0.000 N 
ATOM     13  H   UNL     1       3.791   6.747  19.004  0.00  0.00    +0.000 HD
BRANCH  12  14
ATOM     14  C   UNL     1       2.541   5.433  17.907  0.00  0.00    +0.000 C 
BRANCH  14  15
ATOM     15  C   UNL     1       2.255   4.436  19.000  0.00  0.00    +0.000 A 
ATOM     16  C   UNL     1       2.186   4.806  20.346  0.00  0.00    +0.000 A 
ATOM     17  C   UNL     1       1.880   3.850  21.312  0.00  0.00    +0.000 A 
ATOM     18  C   UNL     1       1.647   2.549  20.899  0.00  0.00    +0.000 A 
ATOM     19  N   UNL     1       1.711   2.150  19.611  0.00  0.00    +0.000 NA
ATOM     20  C   UNL     1       2.005   3.101  18.693  0.00  0.00    +0.000 A 
ENDBRANCH  14  15
ENDBRANCH  12  14
ENDBRANCH   5  12
TORSDOF 4
ENDMDL
MODEL 5
REMARK VINA RESULT:      -7.3      1.905      3.086
REMARK  Name = 
REMARK  5 active torsions:
REMARK  status: ('A' for Active; 'I' for Inactive)
REMARK    1  A    between atoms: C_1  and  N_2
REMARK    2  A    between atoms: C_3  and  C_5
REMARK    3  A    between atoms: C_9  and  N_10
REMARK    4  A    between atoms: N_10  and  C_11
REMARK    5  A    between atoms: C_11  and  C_12
REMARK                            x       y       z     vdW  Elec       q    Type
REMARK                         _______ _______ _______ _____ _____    ______ ____
ROOT
ATOM      1  C   UNL     1       6.850   5.613  16.941  0.00  0.00    +0.000 A 
ATOM      2  C   UNL     1       7.191   5.507  15.595  0.00  0.00    +0.000 A 
ATOM      3  C   UNL     1       6.551   4.541  14.840  0.00  0.00    +0.000 A 
ATOM      4  C   UNL     1       5.593   3.733  15.450  0.00  0.00    +0.000 A 
ATOM      5  C   UNL     1       5.308   3.890  16.809  0.00  0.00    +0.000 A 
ATOM      6  N   UNL     1       5.936   4.817  17.562  0.00  0.00    +0.000 NA
ENDROOT
BRANCH   1   9
ATOM      7  C   UNL     1       8.192   9.013  17.951  0.00  0.00    +0.000 C 
ATOM      8  N   UNL     1       7.566   7.922  17.248  0.00  0.00    +0.000 N 
ATOM      9  C   UNL     1       7.509   6.658  17.788  0.00  0.00    +0.000 C 
ATOM     10  O   UNL     1       7.967   6.378  18.899  0.00  0.00    +0.000 OA
ATOM     11  H   UNL     1       7.055   8.084  16.387  0.00  0.00    +0.000 HD
ENDBRANCH   1   9
BRANCH   5  12
ATOM     12  N   UNL     1       4.434   2.995  17.401  0.00  0.00    +0.000 N 
ATOM     13  H   UNL     1       4.740   2.033  17.462  0.00  0.00    +0.000 HD
BRANCH  12  14
ATOM     14  C   UNL     1       3.011   3.259  17.447  0.00  0.00    +0.000 C 
BRANCH  14  15
ATOM     15  C   UNL     1       2.566   3.197  18.884  0.00  0.00    +0.000 A 
ATOM     16  C   UNL     1       1.289   3.600  19.287  0.00  0.00    +0.000 A 
ATOM     17  C   UNL     1       0.917   3.485  20.624  0.00  0.00    +0.000 A 
ATOM     18  C   UNL     1       1.835   2.965  21.520  0.00  0.00    +0.000 A 
ATOM     19  N   UNL     1       3.079   2.571  21.174  0.00  0.00    +0.000 NA
ATOM     20  C   UNL     1       3.412   2.688  19.867  0.00  0.00    +0.000 A 
ENDBRANCH  14  15
ENDBRANCH  12  14
ENDBRANCH   5  12
TORSDOF 4
ENDMDL
MODEL 6
REMARK VINA RESULT:      -7.2      1.193      1.436
REMARK  Name = 
REMARK  5 active torsions:
REMARK  status: ('A' for Active; 'I' for Inactive)
REMARK    1  A    between atoms: C_1  and  N_2
REMARK    2  A    between atoms: C_3  and  C_5
REMARK    3  A    between atoms: C_9  and  N_10
REMARK    4  A    between atoms: N_10  and  C_11
REMARK    5  A    between atoms: C_11  and  C_12
REMARK                            x       y       z     vdW  Elec       q    Type
REMARK                         _______ _______ _______ _____ _____    ______ ____
ROOT
ATOM      1  C   UNL     1       6.854   5.136  16.006  0.00  0.00    +0.000 A 
ATOM      2  C   UNL     1       7.316   6.341  16.529  0.00  0.00    +0.000 A 
ATOM      3  C   UNL     1       7.162   6.558  17.887  0.00  0.00    +0.000 A 
ATOM      4  C   UNL     1       6.569   5.565  18.665  0.00  0.00    +0.000 A 
ATOM      5  C   UNL     1       6.122   4.383  18.070  0.00  0.00    +0.000 A 
ATOM      6  N   UNL     1       6.250   4.164  16.744  0.00  0.00    +0.000 NA
ENDROOT
BRANCH   1   9
ATOM      7  C   UNL     1       6.311   3.465  12.646  0.00  0.00    +0.000 C 
ATOM      8  N   UNL     1       6.235   3.847  14.032  0.00  0.00    +0.000 N 
ATOM      9  C   UNL     1       7.018   4.856  14.543  0.00  0.00    +0.000 C 
ATOM     10  O   UNL     1       7.815   5.503  13.859  0.00  0.00    +0.000 OA
ATOM     11  H   UNL     1       5.522   3.457  14.641  0.00  0.00    +0.000 HD
ENDBRANCH   1   9
BRANCH   5  12
ATOM     12  N   UNL     1       5.438   3.472  18.857  0.00  0.00    +0.000 N 
ATOM     13  H   UNL     1       5.302   2.548  18.469  0.00  0.00    +0.000 HD
BRANCH  12  14
ATOM     14  C   UNL     1       4.530   3.915  19.893  0.00  0.00    +0.000 C 
BRANCH  14  15
ATOM     15  C   UNL     1       3.151   3.408  19.560  0.00  0.00    +0.000 A 
ATOM     16  C   UNL     1       2.060   3.602  20.411  0.00  0.00    +0.000 A 
ATOM     17  C   UNL     1       0.799   3.145  20.036  0.00  0.00    +0.000 A 
ATOM     18  C   UNL     1       0.667   2.510  18.813  0.00  0.00    +0.000 A 
ATOM     19  N   UNL     1       1.696   2.296  17.966  0.00  0.00    +0.000 NA
ATOM     20  C   UNL     1       2.909   2.755  18.354  0.00  0.00    +0.000 A 
ENDBRANCH  14  15
ENDBRANCH  12  14
ENDBRANCH   5  12
TORSDOF 4
ENDMDL
MODEL 7
REMARK VINA RESULT:      -7.2      1.201      1.325
REMARK  Name = 
REMARK  5 active torsions:
REMARK  status: ('A' for Active; 'I' for Inactive)
REMARK    1  A    between atoms: C_1  and  N_2
REMARK    2  A    between atoms: C_3  and  C_5
REMARK    3  A    between atoms: C_9  and  N_10
REMARK    4  A    between atoms: N_10  and  C_11
REMARK    5  A    between atoms: C_11  and  C_12
REMARK                            x       y       z     vdW  Elec       q    Type
REMARK                         _______ _______ _______ _____ _____    ______ ____
ROOT
ATOM      1  C   UNL     1       5.816   5.172  16.001  0.00  0.00    +0.000 A 
ATOM      2  C   UNL     1       5.096   6.358  16.112  0.00  0.00    +0.000 A 
ATOM      3  C   UNL     1       4.484   6.632  17.323  0.00  0.00    +0.000 A 
ATOM      4  C   UNL     1       4.626   5.724  18.371  0.00  0.00    +0.000 A 
ATOM      5  C   UNL     1       5.358   4.549  18.184  0.00  0.00    +0.000 A 
ATOM      6  N   UNL     1       5.946   4.260  17.004  0.00  0.00    +0.000 NA
ENDROOT
BRANCH   1   9
ATOM      7  C   UNL     1       6.396   3.586  12.606  0.00  0.00    +0.000 C 
ATOM      8  N   UNL     1       5.833   3.995  13.867  0.00  0.00    +0.000 N 
ATOM      9  C   UNL     1       6.506   4.846  14.712  0.00  0.00    +0.000 C 
ATOM     10  O   UNL     1       7.612   5.324  14.447  0.00  0.00    +0.000 OA
ATOM     11  H   UNL     1       4.878   3.753  14.113  0.00  0.00    +0.000 HD
ENDBRANCH   1   9
BRANCH   5  12
ATOM     12  N   UNL     1       5.380   3.622  19.213  0.00  0.00    +0.000 N 
ATOM     13  H   UNL     1       6.183   3.645  19.828  0.00  0.00    +0.000 HD
BRANCH  12  14
ATOM     14  C   UNL     1       4.628   2.389  19.123  0.00  0.00    +0.000 C 
BRANCH  14  15
ATOM     15  C   UNL     1       3.192   2.686  19.469  0.00  0.00    +0.000 A 
ATOM     16  C   UNL     1       2.163   2.582  18.528  0.00  0.00    +0.000 A 
ATOM     17  C   UNL     1       0.848   2.832  18.912  0.00  0.00    +0.000 A 
ATOM     18  C   UNL     1       0.601   3.176  20.230  0.00  0.00    +0.000 A 
ATOM     19  N   UNL     1       1.566   3.294  21.166  0.00  0.00    +0.000 NA
ATOM     20  C   UNL     1       2.835   3.040  20.767  0.00  0.00    +0.000 A 
ENDBRANCH  14  15
ENDBRANCH  12  14
ENDBRANCH   5  12
TORSDOF 4
ENDMDL
MODEL 8
REMARK VINA RESULT:      -7.1      1.801      2.173
REMARK  Name = 
REMARK  5 active torsions:
REMARK  status: ('A' for Active; 'I' for Inactive)
REMARK    1  A    between atoms: C_1  and  N_2
REMARK    2  A    between atoms: C_3  and  C_5
REMARK    3  A    between atoms: C_9  and  N_10
REMARK    4  A    between atoms: N_10  and  C_11
REMARK    5  A    between atoms: C_11  and  C_12
REMARK                            x       y       z     vdW  Elec       q    Type
REMARK                         _______ _______ _______ _____ _____    ______ ____
ROOT
ATOM      1  C   UNL     1       6.521   5.038  16.139  0.00  0.00    +0.000 A 
ATOM      2  C   UNL     1       7.442   4.744  17.141  0.00  0.00    +0.000 A 
ATOM      3  C   UNL     1       7.069   4.985  18.452  0.00  0.00    +0.000 A 
ATOM      4  C   UNL     1       5.797   5.494  18.709  0.00  0.00    +0.000 A 
ATOM      5  C   UNL     1       4.928   5.773  17.650  0.00  0.00    +0.000 A 
ATOM      6  N   UNL     1       5.284   5.559  16.366  0.00  0.00    +0.000 NA
ENDROOT
BRANCH   1   9
ATOM      7  C   UNL     1       6.394   3.449  12.698  0.00  0.00    +0.000 C 
ATOM      8  N   UNL     1       6.136   3.812  14.068  0.00  0.00    +0.000 N 
ATOM      9  C   UNL     1       6.881   4.776  14.708  0.00  0.00    +0.000 C 
ATOM     10  O   UNL     1       7.794   5.397  14.160  0.00  0.00    +0.000 OA
ATOM     11  H   UNL     1       5.328   3.445  14.560  0.00  0.00    +0.000 HD
ENDBRANCH   1   9
BRANCH   5  12
ATOM     12  N   UNL     1       3.719   6.382  17.940  0.00  0.00    +0.000 N 
ATOM     13  H   UNL     1       3.520   7.249  17.460  0.00  0.00    +0.000 HD
BRANCH  12  14
ATOM     14  C   UNL     1       3.034   6.124  19.189  0.00  0.00    +0.000 C 
BRANCH  14  15
ATOM     15  C   UNL     1       2.444   4.740  19.126  0.00  0.00    +0.000 A 
ATOM     16  C   UNL     1       2.685   3.782  20.116  0.00  0.00    +0.000 A 
ATOM     17  C   UNL     1       2.083   2.529  20.027  0.00  0.00    +0.000 A 
ATOM     18  C   UNL     1       1.252   2.273  18.950  0.00  0.00    +0.000 A 
ATOM     19  N   UNL     1       0.999   3.167  17.971  0.00  0.00    +0.000 NA
ATOM     20  C   UNL     1       1.593   4.379  18.085  0.00  0.00    +0.000 A 
ENDBRANCH  14  15
ENDBRANCH  12  14
ENDBRANCH   5  12
TORSDOF 4
ENDMDL
MODEL 9
REMARK VINA RESULT:      -7.1      1.478      1.553
REMARK  Name = 
REMARK  5 active torsions:
REMARK  status: ('A' for Active; 'I' for Inactive)
REMARK    1  A    between atoms: C_1  and  N_2
REMARK    2  A    between atoms: C_3  and  C_5
REMARK    3  A    between atoms: C_9  and  N_10
REMARK    4  A    between atoms: N_10  and  C_11
REMARK    5  A    between atoms: C_11  and  C_12
REMARK                            x       y       z     vdW  Elec       q    Type
REMARK                         _______ _______ _______ _____ _____    ______ ____
ROOT
ATOM      1  C   UNL     1       5.768   4.946  15.581  0.00  0.00    +0.000 A 
ATOM      2  C   UNL     1       5.233   6.203  15.852  0.00  0.00    +0.000 A 
ATOM      3  C   UNL     1       4.618   6.392  17.077  0.00  0.00    +0.000 A 
ATOM      4  C   UNL     1       4.573   5.332  17.980  0.00  0.00    +0.000 A 
ATOM      5  C   UNL     1       5.125   4.095  17.636  0.00  0.00    +0.000 A 
ATOM      6  N   UNL     1       5.713   3.891  16.439  0.00  0.00    +0.000 NA
ENDROOT
BRANCH   1   9
ATOM      7  C   UNL     1       8.286   5.389  12.780  0.00  0.00    +0.000 C 
ATOM      8  N   UNL     1       7.548   5.505  14.011  0.00  0.00    +0.000 N 
ATOM      9  C   UNL     1       6.458   4.706  14.273  0.00  0.00    +0.000 C 
ATOM     10  O   UNL     1       6.055   3.839  13.493  0.00  0.00    +0.000 OA
ATOM     11  H   UNL     1       7.879   6.101  14.762  0.00  0.00    +0.000 HD
ENDBRANCH   1   9
BRANCH   5  12
ATOM     12  N   UNL     1       4.960   3.039  18.515  0.00  0.00    +0.000 N 
ATOM     13  H   UNL     1       5.797   2.675  18.951  0.00  0.00    +0.000 HD
BRANCH  12  14
ATOM     14  C   UNL     1       3.806   2.168  18.429  0.00  0.00    +0.000 C 
BRANCH  14  15
ATOM     15  C   UNL     1       2.888   2.488  19.579  0.00  0.00    +0.000 A 
ATOM     16  C   UNL     1       1.553   2.857  19.387  0.00  0.00    +0.000 A 
ATOM     17  C   UNL     1       0.738   3.105  20.489  0.00  0.00    +0.000 A 
ATOM     18  C   UNL     1       1.283   2.971  21.754  0.00  0.00    +0.000 A 
ATOM     19  N   UNL     1       2.567   2.625  21.983  0.00  0.00    +0.000 NA
ATOM     20  C   UNL     1       3.336   2.384  20.894  0.00  0.00    +0.000 A 
ENDBRANCH  14  15
ENDBRANCH  12  14
ENDBRANCH   5  12
TORSDOF 4
ENDMDL
