MODEL 1
REMARK VINA RESULT:      -6.3      0.000      0.000
REMARK  Name = 
REMARK  9 active torsions:
REMARK  status: ('A' for Active; 'I' for Inactive)
REMARK    1  A    between atoms: C_1  and  O_2
REMARK    2  A    between atoms: O_2  and  C_3
REMARK    3  A    between atoms: C_3  and  C_4
REMARK    4  A    between atoms: C_4  and  N_5
REMARK    5  A    between atoms: N_5  and  C_6
REMARK    6  A    between atoms: C_12  and  O_13
REMARK    7  A    between atoms: O_13  and  C_14
REMARK    8  A    between atoms: C_15  and  O_16
REMARK    9  A    between atoms: O_16  and  C_17
REMARK                            x       y       z     vdW  Elec       q    Type
REMARK                         _______ _______ _______ _____ _____    ______ ____
ROOT
ATOM      1  C   UNL     1       6.272   4.554  15.968  0.00  0.00    +0.000 A 
ATOM      2  N   UNL     1       7.206   5.537  15.927  0.00  0.00    +0.000 NA
ATOM      3  C   UNL     1       7.317   6.460  16.916  0.00  0.00    +0.000 A 
ATOM      4  N   UNL     1       6.492   6.408  17.990  0.00  0.00    +0.000 NA
ATOM      5  C   UNL     1       5.550   5.433  18.100  0.00  0.00    +0.000 A 
ATOM      6  C   UNL     1       4.735   5.382  19.234  0.00  0.00    +0.000 A 
ATOM      7  C   UNL     1       3.763   4.361  19.394  0.00  0.00    +0.000 A 
ATOM      8  C   UNL     1       3.638   3.381  18.367  0.00  0.00    +0.000 A 
ATOM      9  C   UNL     1       4.454   3.459  17.239  0.00  0.00    +0.000 A 
ATOM     10  C   UNL     1       5.410   4.473  17.084  0.00  0.00    +0.000 A 
ENDROOT
BRANCH   1  11
ATOM     11  N   UNL     1       6.183   3.628  14.881  0.00  0.00    +0.000 N 
ATOM     12  H   UNL     1       6.572   2.680  14.961  0.00  0.00    +0.000 HD
BRANCH  11  13
ATOM     13  C   UNL     1       5.576   3.974  13.620  0.00  0.00    +0.000 C 
BRANCH  13  14
ATOM     14  C   UNL     1       6.384   3.352  12.479  0.00  0.00    +0.000 C 
BRANCH  14  16
ATOM     15  C   UNL     1       4.312   3.222  11.470  0.00  0.00    +0.000 C 
ATOM     16  O   UNL     1       5.516   2.535  11.718  0.00  0.00    +0.000 OA
ENDBRANCH  14  16
ENDBRANCH  13  14
ENDBRANCH  11  13
ENDBRANCH   1  11
BRANCH   7  17
ATOM     17  O   UNL     1       2.975   4.320  20.504  0.00  0.00    +0.000 OA
ATOM     18  C   UNL     1       1.880   5.144  20.727  0.00  0.00    +0.000 C 
ENDBRANCH   7  17
BRANCH   8  19
ATOM     19  O   UNL     1       2.776   2.328  18.358  0.00  0.00    +0.000 OA
ATOM     20  C   UNL     1       1.405   2.281  18.409  0.00  0.00    +0.000 C 
ENDBRANCH   8  19
TORSDOF 6
ENDMDL
MODEL 2
REMARK VINA RESULT:      -6.2      2.619      5.067
REMARK  Name = 
REMARK  9 active torsions:
REMARK  status: ('A' for Active; 'I' for Inactive)
REMARK    1  A    between atoms: C_1  and  O_2
REMARK    2  A    between atoms: O_2  and  C_3
REMARK    3  A    between atoms: C_3  and  C_4
REMARK    4  A    between atoms: C_4  and  N_5
REMARK    5  A    between atoms: N_5  and  C_6
REMARK    6  A    between atoms: C_12  and  O_13
REMARK    7  A    between atoms: O_13  and  C_14
REMARK    8  A    between atoms: C_15  and  O_16
REMARK    9  A    between atoms: O_16  and  C_17
REMARK                            x       y       z     vdW  Elec       q    Type
REMARK                         _______ _______ _______ _____ _____    ______ ____
ROOT
ATOM      1  C   UNL     1       6.535   6.171  16.492  0.00  0.00    +0.000 A 
ATOM      2  N   UNL     1       7.192   5.581  15.461  0.00  0.00    +0.000 NA
ATOM      3  C   UNL     1       6.878   4.331  15.035  0.00  0.00    +0.000 A 
ATOM      4  N   UNL     1       5.876   3.640  15.630  0.00  0.00    +0.000 NA
ATOM      5  C   UNL     1       5.166   4.187  16.654  0.00  0.00    +0.000 A 
ATOM      6  C   UNL     1       4.115   3.466  17.228  0.00  0.00    +0.000 A 
ATOM      7  C   UNL     1       3.335   4.017  18.277  0.00  0.00    +0.000 A 
ATOM      8  C   UNL     1       3.647   5.331  18.732  0.00  0.00    +0.000 A 
ATOM      9  C   UNL     1       4.707   6.025  18.152  0.00  0.00    +0.000 A 
ATOM     10  C   UNL     1       5.478   5.475  17.119  0.00  0.00    +0.000 A 
ENDROOT
BRANCH   1  11
ATOM     11  N   UNL     1       6.930   7.478  16.916  0.00  0.00    +0.000 N 
ATOM     12  H   UNL     1       6.532   8.319  16.479  0.00  0.00    +0.000 HD
BRANCH  11  13
ATOM     13  C   UNL     1       7.915   7.690  17.947  0.00  0.00    +0.000 C 
BRANCH  13  14
ATOM     14  C   UNL     1       8.259   9.179  18.023  0.00  0.00    +0.000 C 
BRANCH  14  16
ATOM     15  C   UNL     1       9.360  10.746  19.312  0.00  0.00    +0.000 C 
ATOM     16  O   UNL     1       9.158   9.370  19.099  0.00  0.00    +0.000 OA
ENDBRANCH  14  16
ENDBRANCH  13  14
ENDBRANCH  11  13
ENDBRANCH   1  11
BRANCH   7  17
ATOM     17  O   UNL     1       2.311   3.307  18.829  0.00  0.00    +0.000 OA
ATOM     18  C   UNL     1       2.389   2.609  20.027  0.00  0.00    +0.000 C 
ENDBRANCH   7  17
BRANCH   8  19
ATOM     19  O   UNL     1       3.000   6.019  19.713  0.00  0.00    +0.000 OA
ATOM     20  C   UNL     1       2.248   7.166  19.667  0.00  0.00    +0.000 C 
ENDBRANCH   8  19
TORSDOF 6
ENDMDL
MODEL 3
REMARK VINA RESULT:      -6.1      2.341      4.408
REMARK  Name = 
REMARK  9 active torsions:
REMARK  status: ('A' for Active; 'I' for Inactive)
REMARK    1  A    between atoms: C_1  and  O_2
REMARK    2  A    between atoms: O_2  and  C_3
REMARK    3  A    between atoms: C_3  and  C_4
REMARK    4  A    between atoms: C_4  and  N_5
REMARK    5  A    between atoms: N_5  and  C_6
REMARK    6  A    between atoms: C_12  and  O_13
REMARK    7  A    between atoms: O_13  and  C_14
REMARK    8  A    between atoms: C_15  and  O_16
REMARK    9  A    between atoms: O_16  and  C_17
REMARK                            x       y       z     vdW  Elec       q    Type
REMARK                         _______ _______ _______ _____ _____    ______ ____
ROOT
ATOM      1  C   UNL     1       6.874   4.673  17.424  0.00  0.00    +0.000 A 
ATOM      2  N   UNL     1       7.409   4.584  16.180  0.00  0.00    +0.000 NA
ATOM      3  C   UNL     1       6.678   4.161  15.117  0.00  0.00    +0.000 A 
ATOM      4  N   UNL     1       5.374   3.828  15.276  0.00  0.00    +0.000 NA
ATOM      5  C   UNL     1       4.776   3.919  16.495  0.00  0.00    +0.000 A 
ATOM      6  C   UNL     1       3.421   3.602  16.624  0.00  0.00    +0.000 A 
ATOM      7  C   UNL     1       2.758   3.714  17.874  0.00  0.00    +0.000 A 
ATOM      8  C   UNL     1       3.509   4.162  18.999  0.00  0.00    +0.000 A 
ATOM      9  C   UNL     1       4.862   4.461  18.847  0.00  0.00    +0.000 A 
ATOM     10  C   UNL     1       5.513   4.344  17.611  0.00  0.00    +0.000 A 
ENDROOT
BRANCH   1  11
ATOM     11  N   UNL     1       7.701   5.096  18.512  0.00  0.00    +0.000 N 
ATOM     12  H   UNL     1       8.112   4.413  19.161  0.00  0.00    +0.000 HD
BRANCH  11  13
ATOM     13  C   UNL     1       7.981   6.486  18.774  0.00  0.00    +0.000 C 
BRANCH  13  14
ATOM     14  C   UNL     1       7.194   7.357  17.792  0.00  0.00    +0.000 C 
BRANCH  14  16
ATOM     15  C   UNL     1       8.414   9.274  18.197  0.00  0.00    +0.000 C 
ATOM     16  O   UNL     1       8.082   8.304  17.232  0.00  0.00    +0.000 OA
ENDBRANCH  14  16
ENDBRANCH  13  14
ENDBRANCH  11  13
ENDBRANCH   1  11
BRANCH   7  17
ATOM     17  O   UNL     1       1.436   3.405  17.989  0.00  0.00    +0.000 OA
ATOM     18  C   UNL     1       0.937   2.324  18.705  0.00  0.00    +0.000 C 
ENDBRANCH   7  17
BRANCH   8  19
ATOM     19  O   UNL     1       3.037   4.342  20.264  0.00  0.00    +0.000 OA
ATOM     20  C   UNL     1       2.153   5.257  20.777  0.00  0.00    +0.000 C 
ENDBRANCH   8  19
TORSDOF 6
ENDMDL
MODEL 4
REMARK VINA RESULT:      -6.1      3.042      5.332
REMARK  Name = 
REMARK  9 active torsions:
REMARK  status: ('A' for Active; 'I' for Inactive)
REMARK    1  A    between atoms: C_1  and  O_2
REMARK    2  A    between atoms: O_2  and  C_3
REMARK    3  A    between atoms: C_3  and  C_4
REMARK    4  A    between atoms: C_4  and  N_5
REMARK    5  A    between atoms: N_5  and  C_6
REMARK    6  A    between atoms: C_12  and  O_13
REMARK    7  A    between atoms: O_13  and  C_14
REMARK    8  A    between atoms: C_15  and  O_16
REMARK    9  A    between atoms: O_16  and  C_17
REMARK                            x       y       z     vdW  Elec       q    Type
REMARK                         _______ _______ _______ _____ _____    ______ ____
ROOT
ATOM      1  C   UNL     1       6.540   6.436  16.694  0.00  0.00    +0.000 A 
ATOM      2  N   UNL     1       7.372   5.613  16.007  0.00  0.00    +0.000 NA
ATOM      3  C   UNL     1       7.033   4.331  15.720  0.00  0.00    +0.000 A 
ATOM      4  N   UNL     1       5.829   3.842  16.106  0.00  0.00    +0.000 NA
ATOM      5  C   UNL     1       4.942   4.626  16.777  0.00  0.00    +0.000 A 
ATOM      6  C   UNL     1       3.694   4.107  17.134  0.00  0.00    +0.000 A 
ATOM      7  C   UNL     1       2.734   4.906  17.808  0.00  0.00    +0.000 A 
ATOM      8  C   UNL     1       3.073   6.256  18.113  0.00  0.00    +0.000 A 
ATOM      9  C   UNL     1       4.328   6.747  17.757  0.00  0.00    +0.000 A 
ATOM     10  C   UNL     1       5.275   5.952  17.095  0.00  0.00    +0.000 A 
ENDROOT
BRANCH   1  11
ATOM     11  N   UNL     1       6.966   7.768  16.994  0.00  0.00    +0.000 N 
ATOM     12  H   UNL     1       6.527   8.578  16.539  0.00  0.00    +0.000 HD
BRANCH  11  13
ATOM     13  C   UNL     1       8.036   8.046  17.919  0.00  0.00    +0.000 C 
BRANCH  13  14
ATOM     14  C   UNL     1       8.189   9.560  18.078  0.00  0.00    +0.000 C 
BRANCH  14  16
ATOM     15  C   UNL     1       9.245  10.764  19.742  0.00  0.00    +0.000 C 
ATOM     16  O   UNL     1       9.425   9.814  18.719  0.00  0.00    +0.000 OA
ENDBRANCH  14  16
ENDBRANCH  13  14
ENDBRANCH  11  13
ENDBRANCH   1  11
BRANCH   7  17
ATOM     17  O   UNL     1       1.520   4.392  18.150  0.00  0.00    +0.000 OA
ATOM     18  C   UNL     1       1.280   3.054  18.438  0.00  0.00    +0.000 C 
ENDBRANCH   7  17
BRANCH   8  19
ATOM     19  O   UNL     1       2.276   7.166  18.738  0.00  0.00    +0.000 OA
ATOM     20  C   UNL     1       2.026   8.487  18.466  0.00  0.00    +0.000 C 
ENDBRANCH   8  19
TORSDOF 6
ENDMDL
MODEL 5
REMARK VINA RESULT:      -6.0      3.013      6.421
REMARK  Name = 
REMARK  9 active torsions:
REMARK  status: ('A' for Active; 'I' for Inactive)
REMARK    1  A    between atoms: C_1  and  O_2
REMARK    2  A    between atoms: O_2  and  C_3
REMARK    3  A    between atoms: C_3  and  C_4
REMARK    4  A    between atoms: C_4  and  N_5
REMARK    5  A    between atoms: N_5  and  C_6
REMARK    6  A    between atoms: C_12  and  O_13
REMARK    7  A    between atoms: O_13  and  C_14
REMARK    8  A    between atoms: C_15  and  O_16
REMARK    9  A    between atoms: O_16  and  C_17
REMARK                            x       y       z     vdW  Elec       q    Type
REMARK                         _______ _______ _______ _____ _____    ______ ____
ROOT
ATOM      1  C   UNL     1       3.692   4.948  18.994  0.00  0.00    +0.000 A 
ATOM      2  N   UNL     1       2.985   3.797  19.119  0.00  0.00    +0.000 NA
ATOM      3  C   UNL     1       3.159   2.755  18.267  0.00  0.00    +0.000 A 
ATOM      4  N   UNL     1       4.069   2.838  17.267  0.00  0.00    +0.000 NA
ATOM      5  C   UNL     1       4.825   3.958  17.104  0.00  0.00    +0.000 A 
ATOM      6  C   UNL     1       5.780   4.005  16.085  0.00  0.00    +0.000 A 
ATOM      7  C   UNL     1       6.606   5.145  15.906  0.00  0.00    +0.000 A 
ATOM      8  C   UNL     1       6.440   6.246  16.796  0.00  0.00    +0.000 A 
ATOM      9  C   UNL     1       5.472   6.180  17.797  0.00  0.00    +0.000 A 
ATOM     10  C   UNL     1       4.656   5.053  17.967  0.00  0.00    +0.000 A 
ENDROOT
BRANCH   1  11
ATOM     11  N   UNL     1       3.443   6.024  19.904  0.00  0.00    +0.000 N 
ATOM     12  H   UNL     1       4.217   6.507  20.377  0.00  0.00    +0.000 HD
BRANCH  11  13
ATOM     13  C   UNL     1       2.110   6.469  20.226  0.00  0.00    +0.000 C 
BRANCH  13  14
ATOM     14  C   UNL     1       1.931   7.916  19.762  0.00  0.00    +0.000 C 
BRANCH  14  16
ATOM     15  C   UNL     1       1.998   9.281  17.902  0.00  0.00    +0.000 C 
ATOM     16  O   UNL     1       2.097   7.953  18.358  0.00  0.00    +0.000 OA
ENDBRANCH  14  16
ENDBRANCH  13  14
ENDBRANCH  11  13
ENDBRANCH   1  11
BRANCH   7  17
ATOM     17  O   UNL     1       7.536   5.180  14.911  0.00  0.00    +0.000 OA
ATOM     18  C   UNL     1       7.283   4.866  13.582  0.00  0.00    +0.000 C 
ENDBRANCH   7  17
BRANCH   8  19
ATOM     19  O   UNL     1       7.149   7.408  16.782  0.00  0.00    +0.000 OA
ATOM     20  C   UNL     1       7.786   8.091  17.788  0.00  0.00    +0.000 C 
ENDBRANCH   8  19
TORSDOF 6
ENDMDL
MODEL 6
REMARK VINA RESULT:      -6.0      1.148      1.232
REMARK  Name = 
REMARK  9 active torsions:
REMARK  status: ('A' for Active; 'I' for Inactive)
REMARK    1  A    between atoms: C_1  and  O_2
REMARK    2  A    between atoms: O_2  and  C_3
REMARK    3  A    between atoms: C_3  and  C_4
REMARK    4  A    between atoms: C_4  and  N_5
REMARK    5  A    between atoms: N_5  and  C_6
REMARK    6  A    between atoms: C_12  and  O_13
REMARK    7  A    between atoms: O_13  and  C_14
REMARK    8  A    between atoms: C_15  and  O_16
REMARK    9  A    between atoms: O_16  and  C_17
REMARK                            x       y       z     vdW  Elec       q    Type
REMARK                         _______ _______ _______ _____ _____    ______ ____
ROOT
ATOM      1  C   UNL     1       6.243   4.102  16.502  0.00  0.00    +0.000 A 
ATOM      2  N   UNL     1       7.486   4.539  16.827  0.00  0.00    +0.000 NA
ATOM      3  C   UNL     1       7.753   5.105  18.032  0.00  0.00    +0.000 A 
ATOM      4  N   UNL     1       6.770   5.233  18.956  0.00  0.00    +0.000 NA
ATOM      5  C   UNL     1       5.509   4.792  18.698  0.00  0.00    +0.000 A 
ATOM      6  C   UNL     1       4.523   4.905  19.682  0.00  0.00    +0.000 A 
ATOM      7  C   UNL     1       3.205   4.429  19.457  0.00  0.00    +0.000 A 
ATOM      8  C   UNL     1       2.909   3.828  18.199  0.00  0.00    +0.000 A 
ATOM      9  C   UNL     1       3.907   3.737  17.230  0.00  0.00    +0.000 A 
ATOM     10  C   UNL     1       5.207   4.213  17.455  0.00  0.00    +0.000 A 
ENDROOT
BRANCH   1  11
ATOM     11  N   UNL     1       6.015   3.543  15.206  0.00  0.00    +0.000 N 
ATOM     12  H   UNL     1       5.566   2.625  15.097  0.00  0.00    +0.000 HD
BRANCH  11  13
ATOM     13  C   UNL     1       6.421   4.211  13.994  0.00  0.00    +0.000 C 
BRANCH  13  14
ATOM     14  C   UNL     1       5.859   3.460  12.786  0.00  0.00    +0.000 C 
BRANCH  14  16
ATOM     15  C   UNL     1       6.832   1.964  11.322  0.00  0.00    +0.000 C 
ATOM     16  O   UNL     1       6.911   3.261  11.862  0.00  0.00    +0.000 OA
ENDBRANCH  14  16
ENDBRANCH  13  14
ENDBRANCH  11  13
ENDBRANCH   1  11
BRANCH   7  17
ATOM     17  O   UNL     1       2.251   4.542  20.423  0.00  0.00    +0.000 OA
ATOM     18  C   UNL     1       2.157   3.723  21.541  0.00  0.00    +0.000 C 
ENDBRANCH   7  17
BRANCH   8  19
ATOM     19  O   UNL     1       1.712   3.306  17.817  0.00  0.00    +0.000 OA
ATOM     20  C   UNL     1       0.916   2.349  18.395  0.00  0.00    +0.000 C 
ENDBRANCH   8  19
TORSDOF 6
ENDMDL
MODEL 7
REMARK VINA RESULT:      -6.0      3.965      7.617
REMARK  Name = 
REMARK  9 active torsions:
REMARK  status: ('A' for Active; 'I' for Inactive)
REMARK    1  A    between atoms: C_1  and  O_2
REMARK    2  A    between atoms: O_2  and  C_3
REMARK    3  A    between atoms: C_3  and  C_4
REMARK    4  A    between atoms: C_4  and  N_5
REMARK    5  A    between atoms: N_5  and  C_6
REMARK    6  A    between atoms: C_12  and  O_13
REMARK    7  A    between atoms: O_13  and  C_14
REMARK    8  A    between atoms: C_15  and  O_16
REMARK    9  A    between atoms: O_16  and  C_17
REMARK                            x       y       z     vdW  Elec       q    Type
REMARK                         _______ _______ _______ _____ _____    ______ ____
ROOT
ATOM      1  C   UNL     1       1.846   7.806  20.124  0.00  0.00    +0.000 A 
ATOM      2  N   UNL     1       1.805   8.846  19.254  0.00  0.00    +0.000 NA
ATOM      3  C   UNL     1       2.286   8.740  17.989  0.00  0.00    +0.000 A 
ATOM      4  N   UNL     1       2.812   7.569  17.557  0.00  0.00    +0.000 NA
ATOM      5  C   UNL     1       2.860   6.482  18.375  0.00  0.00    +0.000 A 
ATOM      6  C   UNL     1       3.377   5.277  17.894  0.00  0.00    +0.000 A 
ATOM      7  C   UNL     1       3.415   4.117  18.710  0.00  0.00    +0.000 A 
ATOM      8  C   UNL     1       2.909   4.210  20.039  0.00  0.00    +0.000 A 
ATOM      9  C   UNL     1       2.409   5.426  20.501  0.00  0.00    +0.000 A 
ATOM     10  C   UNL     1       2.378   6.571  19.691  0.00  0.00    +0.000 A 
ENDROOT
BRANCH   1  11
ATOM     11  N   UNL     1       1.352   7.986  21.454  0.00  0.00    +0.000 N 
ATOM     12  H   UNL     1       1.067   7.182  22.026  0.00  0.00    +0.000 HD
BRANCH  11  13
ATOM     13  C   UNL     1       1.200   9.290  22.051  0.00  0.00    +0.000 C 
BRANCH  13  14
ATOM     14  C   UNL     1      -0.273   9.525  22.391  0.00  0.00    +0.000 C 
BRANCH  14  16
ATOM     15  C   UNL     1      -1.464  11.362  23.123  0.00  0.00    +0.000 C 
ATOM     16  O   UNL     1      -0.342  10.547  23.366  0.00  0.00    +0.000 OA
ENDBRANCH  14  16
ENDBRANCH  13  14
ENDBRANCH  11  13
ENDBRANCH   1  11
BRANCH   7  17
ATOM     17  O   UNL     1       3.919   2.946  18.231  0.00  0.00    +0.000 OA
ATOM     18  C   UNL     1       3.155   1.839  17.884  0.00  0.00    +0.000 C 
ENDBRANCH   7  17
BRANCH   8  19
ATOM     19  O   UNL     1       2.852   3.202  20.953  0.00  0.00    +0.000 OA
ATOM     20  C   UNL     1       1.791   2.648  21.624  0.00  0.00    +0.000 C 
ENDBRANCH   8  19
TORSDOF 6
ENDMDL
MODEL 8
REMARK VINA RESULT:      -6.0      3.400      6.507
REMARK  Name = 
REMARK  9 active torsions:
REMARK  status: ('A' for Active; 'I' for Inactive)
REMARK    1  A    between atoms: C_1  and  O_2
REMARK    2  A    between atoms: O_2  and  C_3
REMARK    3  A    between atoms: C_3  and  C_4
REMARK    4  A    between atoms: C_4  and  N_5
REMARK    5  A    between atoms: N_5  and  C_6
REMARK    6  A    between atoms: C_12  and  O_13
REMARK    7  A    between atoms: O_13  and  C_14
REMARK    8  A    between atoms: C_15  and  O_16
REMARK    9  A    between atoms: O_16  and  C_17
REMARK                            x       y       z     vdW  Elec       q    Type
REMARK                         _______ _______ _______ _____ _____    ______ ____
ROOT
ATOM      1  C   UNL     1       3.229   5.634  18.632  0.00  0.00    +0.000 A 
ATOM      2  N   UNL     1       2.250   4.697  18.708  0.00  0.00    +0.000 NA
ATOM      3  C   UNL     1       2.255   3.592  17.920  0.00  0.00    +0.000 A 
ATOM      4  N   UNL     1       3.263   3.390  17.037  0.00  0.00    +0.000 NA
ATOM      5  C   UNL     1       4.286   4.282  16.931  0.00  0.00    +0.000 A 
ATOM      6  C   UNL     1       5.330   4.033  16.037  0.00  0.00    +0.000 A 
ATOM      7  C   UNL     1       6.426   4.927  15.923  0.00  0.00    +0.000 A 
ATOM      8  C   UNL     1       6.439   6.089  16.747  0.00  0.00    +0.000 A 
ATOM      9  C   UNL     1       5.380   6.322  17.623  0.00  0.00    +0.000 A 
ATOM     10  C   UNL     1       4.297   5.438  17.729  0.00  0.00    +0.000 A 
ENDROOT
BRANCH   1  11
ATOM     11  N   UNL     1       3.153   6.793  19.467  0.00  0.00    +0.000 N 
ATOM     12  H   UNL     1       3.840   6.952  20.215  0.00  0.00    +0.000 HD
BRANCH  11  13
ATOM     13  C   UNL     1       2.109   7.777  19.328  0.00  0.00    +0.000 C 
BRANCH  13  14
ATOM     14  C   UNL     1       2.130   8.343  17.906  0.00  0.00    +0.000 C 
BRANCH  14  16
ATOM     15  C   UNL     1       0.556   9.948  18.432  0.00  0.00    +0.000 C 
ATOM     16  O   UNL     1       1.871   9.731  17.980  0.00  0.00    +0.000 OA
ENDBRANCH  14  16
ENDBRANCH  13  14
ENDBRANCH  11  13
ENDBRANCH   1  11
BRANCH   7  17
ATOM     17  O   UNL     1       7.441   4.674  15.049  0.00  0.00    +0.000 OA
ATOM     18  C   UNL     1       7.383   4.908  13.681  0.00  0.00    +0.000 C 
ENDBRANCH   7  17
BRANCH   8  19
ATOM     19  O   UNL     1       7.410   7.042  16.782  0.00  0.00    +0.000 OA
ATOM     20  C   UNL     1       7.617   8.092  17.642  0.00  0.00    +0.000 C 
ENDBRANCH   8  19
TORSDOF 6
ENDMDL
MODEL 9
REMARK VINA RESULT:      -5.9      3.310      7.246
REMARK  Name = 
REMARK  9 active torsions:
REMARK  status: ('A' for Active; 'I' for Inactive)
REMARK    1  A    between atoms: C_1  and  O_2
REMARK    2  A    between atoms: O_2  and  C_3
REMARK    3  A    between atoms: C_3  and  C_4
REMARK    4  A    between atoms: C_4  and  N_5
REMARK    5  A    between atoms: N_5  and  C_6
REMARK    6  A    between atoms: C_12  and  O_13
REMARK    7  A    between atoms: O_13  and  C_14
REMARK    8  A    between atoms: C_15  and  O_16
REMARK    9  A    between atoms: O_16  and  C_17
REMARK                            x       y       z     vdW  Elec       q    Type
REMARK                         _______ _______ _______ _____ _____    ______ ____
ROOT
ATOM      1  C   UNL     1       2.626   5.749  18.806  0.00  0.00    +0.000 A 
ATOM      2  N   UNL     1       1.742   4.739  19.011  0.00  0.00    +0.000 NA
ATOM      3  C   UNL     1       1.873   3.539  18.392  0.00  0.00    +0.000 A 
ATOM      4  N   UNL     1       2.914   3.314  17.554  0.00  0.00    +0.000 NA
ATOM      5  C   UNL     1       3.845   4.279  17.325  0.00  0.00    +0.000 A 
ATOM      6  C   UNL     1       4.927   4.010  16.483  0.00  0.00    +0.000 A 
ATOM      7  C   UNL     1       5.932   4.984  16.247  0.00  0.00    +0.000 A 
ATOM      8  C   UNL     1       5.813   6.248  16.893  0.00  0.00    +0.000 A 
ATOM      9  C   UNL     1       4.719   6.497  17.719  0.00  0.00    +0.000 A 
ATOM     10  C   UNL     1       3.726   5.533  17.947  0.00  0.00    +0.000 A 
ENDROOT
BRANCH   1  11
ATOM     11  N   UNL     1       2.419   7.003  19.462  0.00  0.00    +0.000 N 
ATOM     12  H   UNL     1       2.820   7.870  19.084  0.00  0.00    +0.000 HD
BRANCH  11  13
ATOM     13  C   UNL     1       1.671   7.117  20.690  0.00  0.00    +0.000 C 
BRANCH  13  14
ATOM     14  C   UNL     1       1.161   8.552  20.842  0.00  0.00    +0.000 C 
BRANCH  14  16
ATOM     15  C   UNL     1      -0.100   9.264  22.639  0.00  0.00    +0.000 C 
ATOM     16  O   UNL     1      -0.113   8.504  21.455  0.00  0.00    +0.000 OA
ENDBRANCH  14  16
ENDBRANCH  13  14
ENDBRANCH  11  13
ENDBRANCH   1  11
BRANCH   7  17
ATOM     17  O   UNL     1       6.984   4.711  15.425  0.00  0.00    +0.000 OA
ATOM     18  C   UNL     1       6.922   4.700  14.038  0.00  0.00    +0.000 C 
ENDBRANCH   7  17
BRANCH   8  19
ATOM     19  O   UNL     1       6.685   7.289  16.795  0.00  0.00    +0.000 OA
ATOM     20  C   UNL     1       7.706   7.695  17.617  0.00  0.00    +0.000 C 
ENDBRANCH   8  19
TORSDOF 6
ENDMDL
