MODEL 1
REMARK VINA RESULT:      -7.2      0.000      0.000
REMARK  Name = 
REMARK  8 active torsions:
REMARK  status: ('A' for Active; 'I' for Inactive)
REMARK    1  A    between atoms: C_2  and  C_3
REMARK    2  A    between atoms: C_3  and  N_4
REMARK    3  A    between atoms: C_5  and  C_7
REMARK    4  A    between atoms: C_7  and  N_8
REMARK    5  A    between atoms: C_9  and  O_11
REMARK    6  A    between atoms: O_11  and  C_12
REMARK    7  A    between atoms: C_12  and  C_13
REMARK    8  A    between atoms: N_19  and  O_20
REMARK                            x       y       z     vdW  Elec       q    Type
REMARK                         _______ _______ _______ _____ _____    ______ ____
ROOT
ATOM      1  C   UNL     1       7.142   4.580  16.554  0.00  0.00    +0.000 C 
ENDROOT
BRANCH   1   3
ATOM      2  N   UNL     1       5.835   3.991  14.561  0.00  0.00    +0.000 N 
ATOM      3  C   UNL     1       6.854   4.769  15.064  0.00  0.00    +0.000 C 
ATOM      4  O   UNL     1       7.447   5.600  14.381  0.00  0.00    +0.000 OA
ATOM      5  H   UNL     1       5.317   3.367  15.182  0.00  0.00    +0.000 HD
BRANCH   2   6
ATOM      6  C   UNL     1       5.433   4.084  13.172  0.00  0.00    +0.000 C 
BRANCH   6   8
ATOM      7  O   UNL     1       7.356   3.845  11.689  0.00  0.00    +0.000 OA
ATOM      8  C   UNL     1       6.369   3.340  12.221  0.00  0.00    +0.000 C 
ATOM      9  N   UNL     1       6.005   2.031  12.008  0.00  0.00    +0.000 N 
ATOM     10  H   UNL     1       5.200   1.576  12.426  0.00  0.00    +0.000 HD
BRANCH   9  11
ATOM     11  O   UNL     1       6.802   1.250  11.143  0.00  0.00    +0.000 OA
ATOM     12  H   UNL     1       7.473   0.866  11.749  0.00  0.00    +0.000 HD
ENDBRANCH   9  11
ENDBRANCH   6   8
ENDBRANCH   2   6
ENDBRANCH   1   3
BRANCH   1  13
ATOM     13  N   UNL     1       6.281   5.405  17.381  0.00  0.00    +0.000 N 
ATOM     14  C   UNL     1       5.739   4.956  18.542  0.00  0.00    +0.000 C 
ATOM     15  O   UNL     1       5.988   3.860  19.028  0.00  0.00    +0.000 OA
ATOM     16  H   UNL     1       5.999   6.321  17.060  0.00  0.00    +0.000 HD
BRANCH  14  17
ATOM     17  O   UNL     1       4.862   5.861  19.031  0.00  0.00    +0.000 OA
BRANCH  17  18
ATOM     18  C   UNL     1       3.586   5.890  18.371  0.00  0.00    +0.000 C 
BRANCH  18  19
ATOM     19  C   UNL     1       2.613   4.859  18.888  0.00  0.00    +0.000 A 
ATOM     20  C   UNL     1       2.165   4.900  20.219  0.00  0.00    +0.000 A 
ATOM     21  C   UNL     1       1.224   3.979  20.687  0.00  0.00    +0.000 A 
ATOM     22  C   UNL     1       0.709   3.011  19.826  0.00  0.00    +0.000 A 
ATOM     23  C   UNL     1       1.126   2.976  18.497  0.00  0.00    +0.000 A 
ATOM     24  C   UNL     1       2.070   3.895  18.028  0.00  0.00    +0.000 A 
ENDBRANCH  18  19
ENDBRANCH  17  18
ENDBRANCH  14  17
ENDBRANCH   1  13
TORSDOF 8
ENDMDL
MODEL 2
REMARK VINA RESULT:      -7.1      1.248      1.630
REMARK  Name = 
REMARK  8 active torsions:
REMARK  status: ('A' for Active; 'I' for Inactive)
REMARK    1  A    between atoms: C_2  and  C_3
REMARK    2  A    between atoms: C_3  and  N_4
REMARK    3  A    between atoms: C_5  and  C_7
REMARK    4  A    between atoms: C_7  and  N_8
REMARK    5  A    between atoms: C_9  and  O_11
REMARK    6  A    between atoms: O_11  and  C_12
REMARK    7  A    between atoms: C_12  and  C_13
REMARK    8  A    between atoms: N_19  and  O_20
REMARK                            x       y       z     vdW  Elec       q    Type
REMARK                         _______ _______ _______ _____ _____    ______ ____
ROOT
ATOM      1  C   UNL     1       7.071   4.340  16.338  0.00  0.00    +0.000 C 
ENDROOT
BRANCH   1   3
ATOM      2  N   UNL     1       6.414   3.792  14.036  0.00  0.00    +0.000 N 
ATOM      3  C   UNL     1       7.130   4.650  14.842  0.00  0.00    +0.000 C 
ATOM      4  O   UNL     1       7.722   5.630  14.398  0.00  0.00    +0.000 OA
ATOM      5  H   UNL     1       5.875   3.034  14.454  0.00  0.00    +0.000 HD
BRANCH   2   6
ATOM      6  C   UNL     1       6.357   3.981  12.601  0.00  0.00    +0.000 C 
BRANCH   6   8
ATOM      7  O   UNL     1       4.678   2.602  11.489  0.00  0.00    +0.000 OA
ATOM      8  C   UNL     1       5.844   2.752  11.850  0.00  0.00    +0.000 C 
ATOM      9  N   UNL     1       6.817   1.811  11.610  0.00  0.00    +0.000 N 
ATOM     10  H   UNL     1       7.789   1.895  11.890  0.00  0.00    +0.000 HD
BRANCH   9  11
ATOM     11  O   UNL     1       6.452   0.634  10.922  0.00  0.00    +0.000 OA
ATOM     12  H   UNL     1       5.546   0.456  11.257  0.00  0.00    +0.000 HD
ENDBRANCH   9  11
ENDBRANCH   6   8
ENDBRANCH   2   6
ENDBRANCH   1   3
BRANCH   1  13
ATOM     13  N   UNL     1       5.814   4.761  16.929  0.00  0.00    +0.000 N 
ATOM     14  C   UNL     1       5.658   5.976  17.516  0.00  0.00    +0.000 C 
ATOM     15  O   UNL     1       6.524   6.841  17.528  0.00  0.00    +0.000 OA
ATOM     16  H   UNL     1       5.040   4.114  16.986  0.00  0.00    +0.000 HD
BRANCH  14  17
ATOM     17  O   UNL     1       4.449   6.054  18.116  0.00  0.00    +0.000 OA
BRANCH  17  18
ATOM     18  C   UNL     1       4.327   5.306  19.338  0.00  0.00    +0.000 C 
BRANCH  18  19
ATOM     19  C   UNL     1       3.095   4.436  19.395  0.00  0.00    +0.000 A 
ATOM     20  C   UNL     1       3.074   3.182  18.762  0.00  0.00    +0.000 A 
ATOM     21  C   UNL     1       1.954   2.351  18.857  0.00  0.00    +0.000 A 
ATOM     22  C   UNL     1       0.845   2.759  19.595  0.00  0.00    +0.000 A 
ATOM     23  C   UNL     1       0.863   3.990  20.248  0.00  0.00    +0.000 A 
ATOM     24  C   UNL     1       1.982   4.824  20.151  0.00  0.00    +0.000 A 
ENDBRANCH  18  19
ENDBRANCH  17  18
ENDBRANCH  14  17
ENDBRANCH   1  13
TORSDOF 8
ENDMDL
MODEL 3
REMARK VINA RESULT:      -7.0      2.687      4.810
REMARK  Name = 
REMARK  8 active torsions:
REMARK  status: ('A' for Active; 'I' for Inactive)
REMARK    1  A    between atoms: C_2  and  C_3
REMARK    2  A    between atoms: C_3  and  N_4
REMARK    3  A    between atoms: C_5  and  C_7
REMARK    4  A    between atoms: C_7  and  N_8
REMARK    5  A    between atoms: C_9  and  O_11
REMARK    6  A    between atoms: O_11  and  C_12
REMARK    7  A    between atoms: C_12  and  C_13
REMARK    8  A    between atoms: N_19  and  O_20
REMARK                            x       y       z     vdW  Elec       q    Type
REMARK                         _______ _______ _______ _____ _____    ______ ____
ROOT
ATOM      1  C   UNL     1       6.542   4.227  15.312  0.00  0.00    +0.000 C 
ENDROOT
BRANCH   1   3
ATOM      2  N   UNL     1       6.969   6.031  16.921  0.00  0.00    +0.000 N 
ATOM      3  C   UNL     1       7.329   4.769  16.506  0.00  0.00    +0.000 C 
ATOM      4  O   UNL     1       8.177   4.100  17.091  0.00  0.00    +0.000 OA
ATOM      5  H   UNL     1       6.207   6.523  16.453  0.00  0.00    +0.000 HD
BRANCH   2   6
ATOM      6  C   UNL     1       7.610   6.661  18.058  0.00  0.00    +0.000 C 
BRANCH   6   8
ATOM      7  O   UNL     1       6.251   5.600  19.785  0.00  0.00    +0.000 OA
ATOM      8  C   UNL     1       7.363   5.925  19.375  0.00  0.00    +0.000 C 
ATOM      9  N   UNL     1       8.516   5.653  20.073  0.00  0.00    +0.000 N 
ATOM     10  H   UNL     1       9.452   5.902  19.771  0.00  0.00    +0.000 HD
BRANCH   9  11
ATOM     11  O   UNL     1       8.404   4.974  21.306  0.00  0.00    +0.000 OA
ATOM     12  H   UNL     1       9.280   4.540  21.399  0.00  0.00    +0.000 HD
ENDBRANCH   9  11
ENDBRANCH   6   8
ENDBRANCH   2   6
ENDBRANCH   1   3
BRANCH   1  13
ATOM     13  N   UNL     1       5.393   3.445  15.731  0.00  0.00    +0.000 N 
ATOM     14  C   UNL     1       4.384   3.974  16.469  0.00  0.00    +0.000 C 
ATOM     15  O   UNL     1       4.314   5.158  16.775  0.00  0.00    +0.000 OA
ATOM     16  H   UNL     1       5.362   2.452  15.544  0.00  0.00    +0.000 HD
BRANCH  14  17
ATOM     17  O   UNL     1       3.523   3.004  16.851  0.00  0.00    +0.000 OA
BRANCH  17  18
ATOM     18  C   UNL     1       2.263   3.473  17.359  0.00  0.00    +0.000 C 
BRANCH  18  19
ATOM     19  C   UNL     1       2.206   3.544  18.865  0.00  0.00    +0.000 A 
ATOM     20  C   UNL     1       2.043   4.777  19.519  0.00  0.00    +0.000 A 
ATOM     21  C   UNL     1       1.937   4.840  20.911  0.00  0.00    +0.000 A 
ATOM     22  C   UNL     1       1.982   3.671  21.667  0.00  0.00    +0.000 A 
ATOM     23  C   UNL     1       2.118   2.440  21.029  0.00  0.00    +0.000 A 
ATOM     24  C   UNL     1       2.228   2.375  19.636  0.00  0.00    +0.000 A 
ENDBRANCH  18  19
ENDBRANCH  17  18
ENDBRANCH  14  17
ENDBRANCH   1  13
TORSDOF 8
ENDMDL
MODEL 4
REMARK VINA RESULT:      -7.0      1.273      1.771
REMARK  Name = 
REMARK  8 active torsions:
REMARK  status: ('A' for Active; 'I' for Inactive)
REMARK    1  A    between atoms: C_2  and  C_3
REMARK    2  A    between atoms: C_3  and  N_4
REMARK    3  A    between atoms: C_5  and  C_7
REMARK    4  A    between atoms: C_7  and  N_8
REMARK    5  A    between atoms: C_9  and  O_11
REMARK    6  A    between atoms: O_11  and  C_12
REMARK    7  A    between atoms: C_12  and  C_13
REMARK    8  A    between atoms: N_19  and  O_20
REMARK                            x       y       z     vdW  Elec       q    Type
REMARK                         _______ _______ _______ _____ _____    ______ ____
ROOT
ATOM      1  C   UNL     1       7.297   4.370  16.232  0.00  0.00    +0.000 C 
ENDROOT
BRANCH   1   3
ATOM      2  N   UNL     1       6.367   3.811  14.030  0.00  0.00    +0.000 N 
ATOM      3  C   UNL     1       6.474   4.774  15.009  0.00  0.00    +0.000 C 
ATOM      4  O   UNL     1       5.900   5.857  14.934  0.00  0.00    +0.000 OA
ATOM      5  H   UNL     1       6.799   2.897  14.167  0.00  0.00    +0.000 HD
BRANCH   2   6
ATOM      6  C   UNL     1       5.594   4.045  12.827  0.00  0.00    +0.000 C 
BRANCH   6   8
ATOM      7  O   UNL     1       4.512   2.464  11.314  0.00  0.00    +0.000 OA
ATOM      8  C   UNL     1       5.527   2.827  11.905  0.00  0.00    +0.000 C 
ATOM      9  N   UNL     1       6.724   2.160  11.793  0.00  0.00    +0.000 N 
ATOM     10  H   UNL     1       7.584   2.425  12.262  0.00  0.00    +0.000 HD
BRANCH   9  11
ATOM     11  O   UNL     1       6.775   1.017  10.966  0.00  0.00    +0.000 OA
ATOM     12  H   UNL     1       6.018   1.153  10.355  0.00  0.00    +0.000 HD
ENDBRANCH   9  11
ENDBRANCH   6   8
ENDBRANCH   2   6
ENDBRANCH   1   3
BRANCH   1  13
ATOM     13  N   UNL     1       6.461   4.143  17.396  0.00  0.00    +0.000 N 
ATOM     14  C   UNL     1       6.485   4.961  18.480  0.00  0.00    +0.000 C 
ATOM     15  O   UNL     1       7.146   5.991  18.539  0.00  0.00    +0.000 OA
ATOM     16  H   UNL     1       5.891   3.310  17.455  0.00  0.00    +0.000 HD
BRANCH  14  17
ATOM     17  O   UNL     1       5.732   4.443  19.476  0.00  0.00    +0.000 OA
BRANCH  17  18
ATOM     18  C   UNL     1       4.862   3.367  19.085  0.00  0.00    +0.000 C 
BRANCH  18  19
ATOM     19  C   UNL     1       3.420   3.585  19.472  0.00  0.00    +0.000 A 
ATOM     20  C   UNL     1       2.455   2.593  19.227  0.00  0.00    +0.000 A 
ATOM     21  C   UNL     1       1.129   2.769  19.631  0.00  0.00    +0.000 A 
ATOM     22  C   UNL     1       0.753   3.934  20.297  0.00  0.00    +0.000 A 
ATOM     23  C   UNL     1       1.705   4.914  20.568  0.00  0.00    +0.000 A 
ATOM     24  C   UNL     1       3.032   4.741  20.161  0.00  0.00    +0.000 A 
ENDBRANCH  18  19
ENDBRANCH  17  18
ENDBRANCH  14  17
ENDBRANCH   1  13
TORSDOF 8
ENDMDL
MODEL 5
REMARK VINA RESULT:      -6.9      1.335      1.983
REMARK  Name = 
REMARK  8 active torsions:
REMARK  status: ('A' for Active; 'I' for Inactive)
REMARK    1  A    between atoms: C_2  and  C_3
REMARK    2  A    between atoms: C_3  and  N_4
REMARK    3  A    between atoms: C_5  and  C_7
REMARK    4  A    between atoms: C_7  and  N_8
REMARK    5  A    between atoms: C_9  and  O_11
REMARK    6  A    between atoms: O_11  and  C_12
REMARK    7  A    between atoms: C_12  and  C_13
REMARK    8  A    between atoms: N_19  and  O_20
REMARK                            x       y       z     vdW  Elec       q    Type
REMARK                         _______ _______ _______ _____ _____    ______ ____
ROOT
ATOM      1  C   UNL     1       5.213   5.241  15.973  0.00  0.00    +0.000 C 
ENDROOT
BRANCH   1   3
ATOM      2  N   UNL     1       5.704   4.132  13.838  0.00  0.00    +0.000 N 
ATOM      3  C   UNL     1       6.215   4.880  14.875  0.00  0.00    +0.000 C 
ATOM      4  O   UNL     1       7.375   5.283  14.888  0.00  0.00    +0.000 OA
ATOM      5  H   UNL     1       4.714   3.882  13.830  0.00  0.00    +0.000 HD
BRANCH   2   6
ATOM      6  C   UNL     1       6.531   3.740  12.715  0.00  0.00    +0.000 C 
BRANCH   6   8
ATOM      7  O   UNL     1       4.718   2.691  11.462  0.00  0.00    +0.000 OA
ATOM      8  C   UNL     1       5.888   2.665  11.837  0.00  0.00    +0.000 C 
ATOM      9  N   UNL     1       6.750   1.649  11.499  0.00  0.00    +0.000 N 
ATOM     10  H   UNL     1       7.721   1.589  11.786  0.00  0.00    +0.000 HD
BRANCH   9  11
ATOM     11  O   UNL     1       6.260   0.601  10.689  0.00  0.00    +0.000 OA
ATOM     12  H   UNL     1       7.059   0.054  10.529  0.00  0.00    +0.000 HD
ENDBRANCH   9  11
ENDBRANCH   6   8
ENDBRANCH   2   6
ENDBRANCH   1   3
BRANCH   1  13
ATOM     13  N   UNL     1       5.333   4.367  17.124  0.00  0.00    +0.000 N 
ATOM     14  C   UNL     1       5.068   4.787  18.388  0.00  0.00    +0.000 C 
ATOM     15  O   UNL     1       4.635   5.900  18.657  0.00  0.00    +0.000 OA
ATOM     16  H   UNL     1       5.701   3.432  17.013  0.00  0.00    +0.000 HD
BRANCH  14  17
ATOM     17  O   UNL     1       5.405   3.830  19.281  0.00  0.00    +0.000 OA
BRANCH  17  18
ATOM     18  C   UNL     1       4.643   2.614  19.188  0.00  0.00    +0.000 C 
BRANCH  18  19
ATOM     19  C   UNL     1       3.175   2.796  19.486  0.00  0.00    +0.000 A 
ATOM     20  C   UNL     1       2.200   2.417  18.547  0.00  0.00    +0.000 A 
ATOM     21  C   UNL     1       0.839   2.535  18.842  0.00  0.00    +0.000 A 
ATOM     22  C   UNL     1       0.435   3.022  20.083  0.00  0.00    +0.000 A 
ATOM     23  C   UNL     1       1.391   3.378  21.032  0.00  0.00    +0.000 A 
ATOM     24  C   UNL     1       2.754   3.264  20.737  0.00  0.00    +0.000 A 
ENDBRANCH  18  19
ENDBRANCH  17  18
ENDBRANCH  14  17
ENDBRANCH   1  13
TORSDOF 8
ENDMDL
MODEL 6
REMARK VINA RESULT:      -6.8      1.688      2.386
REMARK  Name = 
REMARK  8 active torsions:
REMARK  status: ('A' for Active; 'I' for Inactive)
REMARK    1  A    between atoms: C_2  and  C_3
REMARK    2  A    between atoms: C_3  and  N_4
REMARK    3  A    between atoms: C_5  and  C_7
REMARK    4  A    between atoms: C_7  and  N_8
REMARK    5  A    between atoms: C_9  and  O_11
REMARK    6  A    between atoms: O_11  and  C_12
REMARK    7  A    between atoms: C_12  and  C_13
REMARK    8  A    between atoms: N_19  and  O_20
REMARK                            x       y       z     vdW  Elec       q    Type
REMARK                         _______ _______ _______ _____ _____    ______ ____
ROOT
ATOM      1  C   UNL     1       7.304   4.977  14.094  0.00  0.00    +0.000 C 
ENDROOT
BRANCH   1   3
ATOM      2  N   UNL     1       6.000   3.300  12.863  0.00  0.00    +0.000 N 
ATOM      3  C   UNL     1       6.947   4.295  12.772  0.00  0.00    +0.000 C 
ATOM      4  O   UNL     1       7.426   4.653  11.699  0.00  0.00    +0.000 OA
ATOM      5  H   UNL     1       5.572   3.086  13.764  0.00  0.00    +0.000 HD
BRANCH   2   6
ATOM      6  C   UNL     1       5.544   2.586  11.687  0.00  0.00    +0.000 C 
BRANCH   6   8
ATOM      7  O   UNL     1       7.564   1.478  10.883  0.00  0.00    +0.000 OA
ATOM      8  C   UNL     1       6.422   1.387  11.330  0.00  0.00    +0.000 C 
ATOM      9  N   UNL     1       5.811   0.176  11.555  0.00  0.00    +0.000 N 
ATOM     10  H   UNL     1       4.873   0.057  11.922  0.00  0.00    +0.000 HD
BRANCH   9  11
ATOM     11  O   UNL     1       6.534  -1.000  11.259  0.00  0.00    +0.000 OA
ATOM     12  H   UNL     1       6.797  -0.867  10.322  0.00  0.00    +0.000 HD
ENDBRANCH   9  11
ENDBRANCH   6   8
ENDBRANCH   2   6
ENDBRANCH   1   3
BRANCH   1  13
ATOM     13  N   UNL     1       6.374   4.627  15.151  0.00  0.00    +0.000 N 
ATOM     14  C   UNL     1       6.780   4.377  16.423  0.00  0.00    +0.000 C 
ATOM     15  O   UNL     1       7.937   4.501  16.804  0.00  0.00    +0.000 OA
ATOM     16  H   UNL     1       5.397   4.481  14.938  0.00  0.00    +0.000 HD
BRANCH  14  17
ATOM     17  O   UNL     1       5.744   3.927  17.166  0.00  0.00    +0.000 OA
BRANCH  17  18
ATOM     18  C   UNL     1       4.448   4.092  16.567  0.00  0.00    +0.000 C 
BRANCH  18  19
ATOM     19  C   UNL     1       3.318   3.553  17.410  0.00  0.00    +0.000 A 
ATOM     20  C   UNL     1       3.354   2.237  17.900  0.00  0.00    +0.000 A 
ATOM     21  C   UNL     1       2.336   1.752  18.725  0.00  0.00    +0.000 A 
ATOM     22  C   UNL     1       1.273   2.581  19.080  0.00  0.00    +0.000 A 
ATOM     23  C   UNL     1       1.239   3.896  18.622  0.00  0.00    +0.000 A 
ATOM     24  C   UNL     1       2.256   4.382  17.794  0.00  0.00    +0.000 A 
ENDBRANCH  18  19
ENDBRANCH  17  18
ENDBRANCH  14  17
ENDBRANCH   1  13
TORSDOF 8
ENDMDL
MODEL 7
REMARK VINA RESULT:      -6.8      0.785      1.309
REMARK  Name = 
REMARK  8 active torsions:
REMARK  status: ('A' for Active; 'I' for Inactive)
REMARK    1  A    between atoms: C_2  and  C_3
REMARK    2  A    between atoms: C_3  and  N_4
REMARK    3  A    between atoms: C_5  and  C_7
REMARK    4  A    between atoms: C_7  and  N_8
REMARK    5  A    between atoms: C_9  and  O_11
REMARK    6  A    between atoms: O_11  and  C_12
REMARK    7  A    between atoms: C_12  and  C_13
REMARK    8  A    between atoms: N_19  and  O_20
REMARK                            x       y       z     vdW  Elec       q    Type
REMARK                         _______ _______ _______ _____ _____    ______ ____
ROOT
ATOM      1  C   UNL     1       6.692   4.509  16.879  0.00  0.00    +0.000 C 
ENDROOT
BRANCH   1   3
ATOM      2  N   UNL     1       6.301   3.831  14.552  0.00  0.00    +0.000 N 
ATOM      3  C   UNL     1       5.981   4.732  15.543  0.00  0.00    +0.000 C 
ATOM      4  O   UNL     1       5.140   5.613  15.387  0.00  0.00    +0.000 OA
ATOM      5  H   UNL     1       6.950   3.068  14.747  0.00  0.00    +0.000 HD
BRANCH   2   6
ATOM      6  C   UNL     1       5.684   3.903  13.242  0.00  0.00    +0.000 C 
BRANCH   6   8
ATOM      7  O   UNL     1       7.426   3.586  11.562  0.00  0.00    +0.000 OA
ATOM      8  C   UNL     1       6.455   3.136  12.168  0.00  0.00    +0.000 C 
ATOM      9  N   UNL     1       5.958   1.876  11.934  0.00  0.00    +0.000 N 
ATOM     10  H   UNL     1       5.162   1.467  12.410  0.00  0.00    +0.000 HD
BRANCH   9  11
ATOM     11  O   UNL     1       6.596   1.079  10.959  0.00  0.00    +0.000 OA
ATOM     12  H   UNL     1       6.330   0.167  11.210  0.00  0.00    +0.000 HD
ENDBRANCH   9  11
ENDBRANCH   6   8
ENDBRANCH   2   6
ENDBRANCH   1   3
BRANCH   1  13
ATOM     13  N   UNL     1       6.083   5.276  17.950  0.00  0.00    +0.000 N 
ATOM     14  C   UNL     1       5.531   4.689  19.043  0.00  0.00    +0.000 C 
ATOM     15  O   UNL     1       5.568   3.484  19.258  0.00  0.00    +0.000 OA
ATOM     16  H   UNL     1       5.985   6.279  17.861  0.00  0.00    +0.000 HD
BRANCH  14  17
ATOM     17  O   UNL     1       4.903   5.612  19.805  0.00  0.00    +0.000 OA
BRANCH  17  18
ATOM     18  C   UNL     1       3.606   6.013  19.330  0.00  0.00    +0.000 C 
BRANCH  18  19
ATOM     19  C   UNL     1       2.560   4.932  19.442  0.00  0.00    +0.000 A 
ATOM     20  C   UNL     1       2.082   4.274  18.296  0.00  0.00    +0.000 A 
ATOM     21  C   UNL     1       1.152   3.237  18.402  0.00  0.00    +0.000 A 
ATOM     22  C   UNL     1       0.696   2.835  19.656  0.00  0.00    +0.000 A 
ATOM     23  C   UNL     1       1.181   3.462  20.801  0.00  0.00    +0.000 A 
ATOM     24  C   UNL     1       2.109   4.503  20.697  0.00  0.00    +0.000 A 
ENDBRANCH  18  19
ENDBRANCH  17  18
ENDBRANCH  14  17
ENDBRANCH   1  13
TORSDOF 8
ENDMDL
MODEL 8
REMARK VINA RESULT:      -6.8      1.121      1.303
REMARK  Name = 
REMARK  8 active torsions:
REMARK  status: ('A' for Active; 'I' for Inactive)
REMARK    1  A    between atoms: C_2  and  C_3
REMARK    2  A    between atoms: C_3  and  N_4
REMARK    3  A    between atoms: C_5  and  C_7
REMARK    4  A    between atoms: C_7  and  N_8
REMARK    5  A    between atoms: C_9  and  O_11
REMARK    6  A    between atoms: O_11  and  C_12
REMARK    7  A    between atoms: C_12  and  C_13
REMARK    8  A    between atoms: N_19  and  O_20
REMARK                            x       y       z     vdW  Elec       q    Type
REMARK                         _______ _______ _______ _____ _____    ______ ____
ROOT
ATOM      1  C   UNL     1       7.380   4.229  16.386  0.00  0.00    +0.000 C 
ENDROOT
BRANCH   1   3
ATOM      2  N   UNL     1       5.957   3.917  14.410  0.00  0.00    +0.000 N 
ATOM      3  C   UNL     1       6.996   4.632  14.961  0.00  0.00    +0.000 C 
ATOM      4  O   UNL     1       7.536   5.568  14.377  0.00  0.00    +0.000 OA
ATOM      5  H   UNL     1       5.486   3.197  14.960  0.00  0.00    +0.000 HD
BRANCH   2   6
ATOM      6  C   UNL     1       5.467   4.208  13.077  0.00  0.00    +0.000 C 
BRANCH   6   8
ATOM      7  O   UNL     1       4.737   2.562  11.429  0.00  0.00    +0.000 OA
ATOM      8  C   UNL     1       5.647   3.046  12.100  0.00  0.00    +0.000 C 
ATOM      9  N   UNL     1       6.939   2.579  12.037  0.00  0.00    +0.000 N 
ATOM     10  H   UNL     1       7.717   2.949  12.572  0.00  0.00    +0.000 HD
BRANCH   9  11
ATOM     11  O   UNL     1       7.218   1.505  11.165  0.00  0.00    +0.000 OA
ATOM     12  H   UNL     1       8.199   1.492  11.138  0.00  0.00    +0.000 HD
ENDBRANCH   9  11
ENDBRANCH   6   8
ENDBRANCH   2   6
ENDBRANCH   1   3
BRANCH   1  13
ATOM     13  N   UNL     1       6.264   4.361  17.304  0.00  0.00    +0.000 N 
ATOM     14  C   UNL     1       6.006   5.512  17.976  0.00  0.00    +0.000 C 
ATOM     15  O   UNL     1       6.634   6.551  17.809  0.00  0.00    +0.000 OA
ATOM     16  H   UNL     1       5.694   3.556  17.526  0.00  0.00    +0.000 HD
BRANCH  14  17
ATOM     17  O   UNL     1       5.013   5.320  18.873  0.00  0.00    +0.000 OA
BRANCH  17  18
ATOM     18  C   UNL     1       4.810   3.954  19.273  0.00  0.00    +0.000 C 
BRANCH  18  19
ATOM     19  C   UNL     1       3.357   3.578  19.425  0.00  0.00    +0.000 A 
ATOM     20  C   UNL     1       2.584   4.113  20.470  0.00  0.00    +0.000 A 
ATOM     21  C   UNL     1       1.224   3.808  20.583  0.00  0.00    +0.000 A 
ATOM     22  C   UNL     1       0.617   2.975  19.645  0.00  0.00    +0.000 A 
ATOM     23  C   UNL     1       1.367   2.459  18.590  0.00  0.00    +0.000 A 
ATOM     24  C   UNL     1       2.728   2.760  18.478  0.00  0.00    +0.000 A 
ENDBRANCH  18  19
ENDBRANCH  17  18
ENDBRANCH  14  17
ENDBRANCH   1  13
TORSDOF 8
ENDMDL
MODEL 9
REMARK VINA RESULT:      -6.8      2.847      7.109
REMARK  Name = 
REMARK  8 active torsions:
REMARK  status: ('A' for Active; 'I' for Inactive)
REMARK    1  A    between atoms: C_2  and  C_3
REMARK    2  A    between atoms: C_3  and  N_4
REMARK    3  A    between atoms: C_5  and  C_7
REMARK    4  A    between atoms: C_7  and  N_8
REMARK    5  A    between atoms: C_9  and  O_11
REMARK    6  A    between atoms: O_11  and  C_12
REMARK    7  A    between atoms: C_12  and  C_13
REMARK    8  A    between atoms: N_19  and  O_20
REMARK                            x       y       z     vdW  Elec       q    Type
REMARK                         _______ _______ _______ _____ _____    ______ ____
ROOT
ATOM      1  C   UNL     1       5.221   5.725  19.204  0.00  0.00    +0.000 C 
ENDROOT
BRANCH   1   3
ATOM      2  N   UNL     1       3.123   5.210  20.371  0.00  0.00    +0.000 N 
ATOM      3  C   UNL     1       3.713   5.476  19.156  0.00  0.00    +0.000 C 
ATOM      4  O   UNL     1       3.066   5.568  18.116  0.00  0.00    +0.000 OA
ATOM      5  H   UNL     1       3.687   5.217  21.222  0.00  0.00    +0.000 HD
BRANCH   2   6
ATOM      6  C   UNL     1       1.697   4.982  20.482  0.00  0.00    +0.000 C 
BRANCH   6   8
ATOM      7  O   UNL     1       1.099   2.728  21.203  0.00  0.00    +0.000 OA
ATOM      8  C   UNL     1       1.302   3.519  20.283  0.00  0.00    +0.000 C 
ATOM      9  N   UNL     1       1.191   3.157  18.961  0.00  0.00    +0.000 N 
ATOM     10  H   UNL     1       1.348   3.777  18.173  0.00  0.00    +0.000 HD
BRANCH   9  11
ATOM     11  O   UNL     1       0.831   1.825  18.662  0.00  0.00    +0.000 OA
ATOM     12  H   UNL     1       0.054   1.934  18.071  0.00  0.00    +0.000 HD
ENDBRANCH   9  11
ENDBRANCH   6   8
ENDBRANCH   2   6
ENDBRANCH   1   3
BRANCH   1  13
ATOM     13  N   UNL     1       5.886   5.248  18.006  0.00  0.00    +0.000 N 
ATOM     14  C   UNL     1       7.183   4.846  18.005  0.00  0.00    +0.000 C 
ATOM     15  O   UNL     1       7.873   4.775  19.014  0.00  0.00    +0.000 OA
ATOM     16  H   UNL     1       5.410   5.283  17.115  0.00  0.00    +0.000 HD
BRANCH  14  17
ATOM     17  O   UNL     1       7.597   4.598  16.742  0.00  0.00    +0.000 OA
BRANCH  17  18
ATOM     18  C   UNL     1       7.045   5.467  15.739  0.00  0.00    +0.000 C 
BRANCH  18  19
ATOM     19  C   UNL     1       6.833   4.794  14.405  0.00  0.00    +0.000 A 
ATOM     20  C   UNL     1       5.756   3.912  14.210  0.00  0.00    +0.000 A 
ATOM     21  C   UNL     1       5.527   3.328  12.961  0.00  0.00    +0.000 A 
ATOM     22  C   UNL     1       6.364   3.627  11.888  0.00  0.00    +0.000 A 
ATOM     23  C   UNL     1       7.420   4.519  12.062  0.00  0.00    +0.000 A 
ATOM     24  C   UNL     1       7.653   5.102  13.312  0.00  0.00    +0.000 A 
ENDBRANCH  18  19
ENDBRANCH  17  18
ENDBRANCH  14  17
ENDBRANCH   1  13
TORSDOF 8
ENDMDL
