MODEL 1
REMARK VINA RESULT:      -7.3      0.000      0.000
REMARK  Name = 
REMARK  2 active torsions:
REMARK  status: ('A' for Active; 'I' for Inactive)
REMARK    1  A    between atoms: C_3  and  C_4
REMARK    2  A    between atoms: C_8  and  N_9
REMARK                            x       y       z     vdW  Elec       q    Type
REMARK                         _______ _______ _______ _____ _____    ______ ____
ROOT
ATOM      1  C   UNL     1       1.221   9.371  18.803  0.00  0.00    +0.000 A 
ATOM      2  C   UNL     1       2.089   9.116  17.759  0.00  0.00    +0.000 A 
ATOM      3  C   UNL     1       2.790   7.930  18.087  0.00  0.00    +0.000 A 
ATOM      4  C   UNL     1       3.794   7.162  17.476  0.00  0.00    +0.000 A 
ATOM      5  C   UNL     1       4.266   5.980  18.080  0.00  0.00    +0.000 A 
ATOM      6  C   UNL     1       3.688   5.601  19.305  0.00  0.00    +0.000 A 
ATOM      7  C   UNL     1       2.691   6.354  19.951  0.00  0.00    +0.000 A 
ATOM      8  C   UNL     1       2.280   7.512  19.304  0.00  0.00    +0.000 A 
ATOM      9  O   UNL     1       1.340   8.388  19.749  0.00  0.00    +0.000 OA
ENDROOT
BRANCH   5  10
ATOM     10  N   UNL     1       5.240   5.221  17.467  0.00  0.00    +0.000 N 
ATOM     11  C   UNL     1       6.204   4.398  18.216  0.00  0.00    +0.000 C 
ATOM     12  C   UNL     1       7.624   4.684  17.705  0.00  0.00    +0.000 C 
ATOM     13  O   UNL     1       7.722   4.473  16.285  0.00  0.00    +0.000 OA
ATOM     14  C   UNL     1       6.803   5.332  15.586  0.00  0.00    +0.000 C 
ATOM     15  C   UNL     1       5.344   5.076  16.009  0.00  0.00    +0.000 C 
ENDBRANCH   5  10
BRANCH   1  18
ATOM     16  C   UNL     1      -1.575  11.859  18.509  0.00  0.00    +0.000 A 
ATOM     17  C   UNL     1      -0.939  10.679  18.196  0.00  0.00    +0.000 A 
ATOM     18  C   UNL     1       0.292  10.531  18.901  0.00  0.00    +0.000 A 
ATOM     19  C   UNL     1       0.553  11.611  19.717  0.00  0.00    +0.000 A 
ATOM     20  S   UNL     1      -0.685  12.791  19.634  0.00  0.00    +0.000 S 
ENDBRANCH   1  18
TORSDOF 2
ENDMDL
MODEL 2
REMARK VINA RESULT:      -7.3      2.487      3.345
REMARK  Name = 
REMARK  2 active torsions:
REMARK  status: ('A' for Active; 'I' for Inactive)
REMARK    1  A    between atoms: C_3  and  C_4
REMARK    2  A    between atoms: C_8  and  N_9
REMARK                            x       y       z     vdW  Elec       q    Type
REMARK                         _______ _______ _______ _____ _____    ______ ____
ROOT
ATOM      1  C   UNL     1       0.923   9.154  20.652  0.00  0.00    +0.000 A 
ATOM      2  C   UNL     1       1.138   7.859  21.081  0.00  0.00    +0.000 A 
ATOM      3  C   UNL     1       1.857   7.199  20.055  0.00  0.00    +0.000 A 
ATOM      4  C   UNL     1       2.358   5.901  19.863  0.00  0.00    +0.000 A 
ATOM      5  C   UNL     1       3.077   5.572  18.697  0.00  0.00    +0.000 A 
ATOM      6  C   UNL     1       3.275   6.590  17.747  0.00  0.00    +0.000 A 
ATOM      7  C   UNL     1       2.774   7.894  17.901  0.00  0.00    +0.000 A 
ATOM      8  C   UNL     1       2.068   8.147  19.069  0.00  0.00    +0.000 A 
ATOM      9  O   UNL     1       1.493   9.329  19.419  0.00  0.00    +0.000 OA
ENDROOT
BRANCH   5  10
ATOM     10  N   UNL     1       3.583   4.301  18.522  0.00  0.00    +0.000 N 
ATOM     11  C   UNL     1       3.190   3.430  17.402  0.00  0.00    +0.000 C 
ATOM     12  C   UNL     1       2.815   2.042  17.944  0.00  0.00    +0.000 C 
ATOM     13  O   UNL     1       3.887   1.475  18.718  0.00  0.00    +0.000 OA
ATOM     14  C   UNL     1       4.206   2.329  19.831  0.00  0.00    +0.000 C 
ATOM     15  C   UNL     1       4.638   3.734  19.371  0.00  0.00    +0.000 C 
ENDBRANCH   5  10
BRANCH   1  18
ATOM     16  C   UNL     1      -1.056  11.211  23.092  0.00  0.00    +0.000 A 
ATOM     17  C   UNL     1      -0.477  10.041  22.651  0.00  0.00    +0.000 A 
ATOM     18  C   UNL     1       0.189  10.211  21.401  0.00  0.00    +0.000 A 
ATOM     19  C   UNL     1       0.083  11.503  20.931  0.00  0.00    +0.000 A 
ATOM     20  S   UNL     1      -0.811  12.502  21.996  0.00  0.00    +0.000 S 
ENDBRANCH   1  18
TORSDOF 2
ENDMDL
MODEL 3
REMARK VINA RESULT:      -7.0      2.282      2.914
REMARK  Name = 
REMARK  2 active torsions:
REMARK  status: ('A' for Active; 'I' for Inactive)
REMARK    1  A    between atoms: C_3  and  C_4
REMARK    2  A    between atoms: C_8  and  N_9
REMARK                            x       y       z     vdW  Elec       q    Type
REMARK                         _______ _______ _______ _____ _____    ______ ____
ROOT
ATOM      1  C   UNL     1       1.468   9.941  18.927  0.00  0.00    +0.000 A 
ATOM      2  C   UNL     1       2.063   9.135  17.976  0.00  0.00    +0.000 A 
ATOM      3  C   UNL     1       2.225   7.857  18.563  0.00  0.00    +0.000 A 
ATOM      4  C   UNL     1       2.763   6.628  18.147  0.00  0.00    +0.000 A 
ATOM      5  C   UNL     1       2.741   5.507  18.999  0.00  0.00    +0.000 A 
ATOM      6  C   UNL     1       2.157   5.667  20.269  0.00  0.00    +0.000 A 
ATOM      7  C   UNL     1       1.623   6.886  20.722  0.00  0.00    +0.000 A 
ATOM      8  C   UNL     1       1.686   7.951  19.834  0.00  0.00    +0.000 A 
ATOM      9  O   UNL     1       1.238   9.215  20.064  0.00  0.00    +0.000 OA
ENDROOT
BRANCH   5  10
ATOM     10  N   UNL     1       3.255   4.298  18.580  0.00  0.00    +0.000 N 
ATOM     11  C   UNL     1       2.760   3.586  17.390  0.00  0.00    +0.000 C 
ATOM     12  C   UNL     1       2.484   2.119  17.753  0.00  0.00    +0.000 C 
ATOM     13  O   UNL     1       3.650   1.489  18.312  0.00  0.00    +0.000 OA
ATOM     14  C   UNL     1       4.072   2.182  19.500  0.00  0.00    +0.000 C 
ATOM     15  C   UNL     1       4.414   3.657  19.214  0.00  0.00    +0.000 C 
ENDBRANCH   5  10
BRANCH   1  18
ATOM     16  C   UNL     1       1.417  13.662  18.422  0.00  0.00    +0.000 A 
ATOM     17  C   UNL     1       2.048  12.445  18.551  0.00  0.00    +0.000 A 
ATOM     18  C   UNL     1       1.122  11.380  18.758  0.00  0.00    +0.000 A 
ATOM     19  C   UNL     1      -0.181  11.829  18.791  0.00  0.00    +0.000 A 
ATOM     20  S   UNL     1      -0.282  13.523  18.566  0.00  0.00    +0.000 S 
ENDBRANCH   1  18
TORSDOF 2
ENDMDL
MODEL 4
REMARK VINA RESULT:      -6.9      3.801      7.898
REMARK  Name = 
REMARK  2 active torsions:
REMARK  status: ('A' for Active; 'I' for Inactive)
REMARK    1  A    between atoms: C_3  and  C_4
REMARK    2  A    between atoms: C_8  and  N_9
REMARK                            x       y       z     vdW  Elec       q    Type
REMARK                         _______ _______ _______ _____ _____    ______ ____
ROOT
ATOM      1  C   UNL     1       3.761   6.618  17.604  0.00  0.00    +0.000 A 
ATOM      2  C   UNL     1       3.110   6.412  18.804  0.00  0.00    +0.000 A 
ATOM      3  C   UNL     1       2.332   7.568  19.055  0.00  0.00    +0.000 A 
ATOM      4  C   UNL     1       1.474   7.991  20.083  0.00  0.00    +0.000 A 
ATOM      5  C   UNL     1       0.814   9.233  20.005  0.00  0.00    +0.000 A 
ATOM      6  C   UNL     1       1.043  10.021  18.862  0.00  0.00    +0.000 A 
ATOM      7  C   UNL     1       1.907   9.634  17.823  0.00  0.00    +0.000 A 
ATOM      8  C   UNL     1       2.532   8.403  17.969  0.00  0.00    +0.000 A 
ATOM      9  O   UNL     1       3.407   7.838  17.094  0.00  0.00    +0.000 OA
ENDROOT
BRANCH   5  10
ATOM     10  N   UNL     1      -0.042   9.635  21.009  0.00  0.00    +0.000 N 
ATOM     11  C   UNL     1      -0.791  10.902  20.963  0.00  0.00    +0.000 C 
ATOM     12  C   UNL     1      -0.609  11.650  22.292  0.00  0.00    +0.000 C 
ATOM     13  O   UNL     1      -0.998  10.833  23.411  0.00  0.00    +0.000 OA
ATOM     14  C   UNL     1      -0.208   9.630  23.451  0.00  0.00    +0.000 C 
ATOM     15  C   UNL     1      -0.370   8.794  22.167  0.00  0.00    +0.000 C 
ENDBRANCH   5  10
BRANCH   1  18
ATOM     16  C   UNL     1       5.537   3.679  16.085  0.00  0.00    +0.000 A 
ATOM     17  C   UNL     1       4.475   4.282  16.720  0.00  0.00    +0.000 A 
ATOM     18  C   UNL     1       4.707   5.671  16.950  0.00  0.00    +0.000 A 
ATOM     19  C   UNL     1       5.944   6.070  16.492  0.00  0.00    +0.000 A 
ATOM     20  S   UNL     1       6.814   4.777  15.784  0.00  0.00    +0.000 S 
ENDBRANCH   1  18
TORSDOF 2
ENDMDL
MODEL 5
REMARK VINA RESULT:      -6.9      2.224      3.213
REMARK  Name = 
REMARK  2 active torsions:
REMARK  status: ('A' for Active; 'I' for Inactive)
REMARK    1  A    between atoms: C_3  and  C_4
REMARK    2  A    between atoms: C_8  and  N_9
REMARK                            x       y       z     vdW  Elec       q    Type
REMARK                         _______ _______ _______ _____ _____    ______ ____
ROOT
ATOM      1  C   UNL     1       0.135  10.159  20.787  0.00  0.00    +0.000 A 
ATOM      2  C   UNL     1       0.675   8.980  21.263  0.00  0.00    +0.000 A 
ATOM      3  C   UNL     1       1.393   8.393  20.193  0.00  0.00    +0.000 A 
ATOM      4  C   UNL     1       2.138   7.216  20.016  0.00  0.00    +0.000 A 
ATOM      5  C   UNL     1       2.768   6.939  18.787  0.00  0.00    +0.000 A 
ATOM      6  C   UNL     1       2.627   7.887  17.757  0.00  0.00    +0.000 A 
ATOM      7  C   UNL     1       1.877   9.067  17.895  0.00  0.00    +0.000 A 
ATOM      8  C   UNL     1       1.275   9.272  19.130  0.00  0.00    +0.000 A 
ATOM      9  O   UNL     1       0.504  10.336  19.480  0.00  0.00    +0.000 OA
ENDROOT
BRANCH   5  10
ATOM     10  N   UNL     1       3.512   5.790  18.625  0.00  0.00    +0.000 N 
ATOM     11  C   UNL     1       2.947   4.439  18.784  0.00  0.00    +0.000 C 
ATOM     12  C   UNL     1       3.857   3.612  19.705  0.00  0.00    +0.000 C 
ATOM     13  O   UNL     1       5.208   3.577  19.212  0.00  0.00    +0.000 OA
ATOM     14  C   UNL     1       5.742   4.910  19.120  0.00  0.00    +0.000 C 
ATOM     15  C   UNL     1       4.910   5.798  18.175  0.00  0.00    +0.000 C 
ENDBRANCH   5  10
BRANCH   1  18
ATOM     16  C   UNL     1      -1.959  11.961  23.329  0.00  0.00    +0.000 A 
ATOM     17  C   UNL     1      -1.205  10.898  22.885  0.00  0.00    +0.000 A 
ATOM     18  C   UNL     1      -0.717  11.104  21.560  0.00  0.00    +0.000 A 
ATOM     19  C   UNL     1      -1.128  12.313  21.040  0.00  0.00    +0.000 A 
ATOM     20  S   UNL     1      -2.092  13.193  22.149  0.00  0.00    +0.000 S 
ENDBRANCH   1  18
TORSDOF 2
ENDMDL
MODEL 6
REMARK VINA RESULT:      -6.8      0.759      1.262
REMARK  Name = 
REMARK  2 active torsions:
REMARK  status: ('A' for Active; 'I' for Inactive)
REMARK    1  A    between atoms: C_3  and  C_4
REMARK    2  A    between atoms: C_8  and  N_9
REMARK                            x       y       z     vdW  Elec       q    Type
REMARK                         _______ _______ _______ _____ _____    ______ ____
ROOT
ATOM      1  C   UNL     1       1.003   9.281  18.875  0.00  0.00    +0.000 A 
ATOM      2  C   UNL     1       1.916   9.334  17.841  0.00  0.00    +0.000 A 
ATOM      3  C   UNL     1       2.767   8.211  17.985  0.00  0.00    +0.000 A 
ATOM      4  C   UNL     1       3.879   7.704  17.292  0.00  0.00    +0.000 A 
ATOM      5  C   UNL     1       4.496   6.506  17.698  0.00  0.00    +0.000 A 
ATOM      6  C   UNL     1       3.953   5.840  18.813  0.00  0.00    +0.000 A 
ATOM      7  C   UNL     1       2.851   6.327  19.537  0.00  0.00    +0.000 A 
ATOM      8  C   UNL     1       2.297   7.518  19.087  0.00  0.00    +0.000 A 
ATOM      9  O   UNL     1       1.238   8.169  19.638  0.00  0.00    +0.000 OA
ENDROOT
BRANCH   5  10
ATOM     10  N   UNL     1       5.576   6.004  17.004  0.00  0.00    +0.000 N 
ATOM     11  C   UNL     1       5.467   5.446  15.645  0.00  0.00    +0.000 C 
ATOM     12  C   UNL     1       6.171   4.082  15.597  0.00  0.00    +0.000 C 
ATOM     13  O   UNL     1       7.539   4.182  16.030  0.00  0.00    +0.000 OA
ATOM     14  C   UNL     1       7.601   4.681  17.379  0.00  0.00    +0.000 C 
ATOM     15  C   UNL     1       6.954   6.073  17.507  0.00  0.00    +0.000 C 
ENDBRANCH   5  10
BRANCH   1  18
ATOM     16  C   UNL     1      -1.965  11.578  18.764  0.00  0.00    +0.000 A 
ATOM     17  C   UNL     1      -1.111  10.644  18.224  0.00  0.00    +0.000 A 
ATOM     18  C   UNL     1      -0.078  10.272  19.136  0.00  0.00    +0.000 A 
ATOM     19  C   UNL     1      -0.179  10.948  20.333  0.00  0.00    +0.000 A 
ATOM     20  S   UNL     1      -1.515  12.018  20.355  0.00  0.00    +0.000 S 
ENDBRANCH   1  18
TORSDOF 2
ENDMDL
MODEL 7
REMARK VINA RESULT:      -6.7      2.371      3.349
REMARK  Name = 
REMARK  2 active torsions:
REMARK  status: ('A' for Active; 'I' for Inactive)
REMARK    1  A    between atoms: C_3  and  C_4
REMARK    2  A    between atoms: C_8  and  N_9
REMARK                            x       y       z     vdW  Elec       q    Type
REMARK                         _______ _______ _______ _____ _____    ______ ____
ROOT
ATOM      1  C   UNL     1       0.466   9.843  20.821  0.00  0.00    +0.000 A 
ATOM      2  C   UNL     1       0.792   8.614  21.360  0.00  0.00    +0.000 A 
ATOM      3  C   UNL     1       1.513   7.907  20.367  0.00  0.00    +0.000 A 
ATOM      4  C   UNL     1       2.099   6.635  20.274  0.00  0.00    +0.000 A 
ATOM      5  C   UNL     1       2.790   6.242  19.111  0.00  0.00    +0.000 A 
ATOM      6  C   UNL     1       2.873   7.174  18.059  0.00  0.00    +0.000 A 
ATOM      7  C   UNL     1       2.286   8.449  18.114  0.00  0.00    +0.000 A 
ATOM      8  C   UNL     1       1.613   8.766  19.286  0.00  0.00    +0.000 A 
ATOM      9  O   UNL     1       0.969   9.935  19.551  0.00  0.00    +0.000 OA
ENDROOT
BRANCH   5  10
ATOM     10  N   UNL     1       3.379   4.998  19.032  0.00  0.00    +0.000 N 
ATOM     11  C   UNL     1       4.396   4.655  18.024  0.00  0.00    +0.000 C 
ATOM     12  C   UNL     1       4.015   3.329  17.348  0.00  0.00    +0.000 C 
ATOM     13  O   UNL     1       3.839   2.279  18.315  0.00  0.00    +0.000 OA
ATOM     14  C   UNL     1       2.803   2.630  19.250  0.00  0.00    +0.000 C 
ATOM     15  C   UNL     1       3.129   3.930  20.008  0.00  0.00    +0.000 C 
ENDBRANCH   5  10
BRANCH   1  18
ATOM     16  C   UNL     1      -1.540  11.994  23.155  0.00  0.00    +0.000 A 
ATOM     17  C   UNL     1      -0.892  10.832  22.802  0.00  0.00    +0.000 A 
ATOM     18  C   UNL     1      -0.311  10.916  21.502  0.00  0.00    +0.000 A 
ATOM     19  C   UNL     1      -0.548  12.137  20.908  0.00  0.00    +0.000 A 
ATOM     20  S   UNL     1      -1.462  13.175  21.919  0.00  0.00    +0.000 S 
ENDBRANCH   1  18
TORSDOF 2
ENDMDL
MODEL 8
REMARK VINA RESULT:      -6.7      2.612      3.544
REMARK  Name = 
REMARK  2 active torsions:
REMARK  status: ('A' for Active; 'I' for Inactive)
REMARK    1  A    between atoms: C_3  and  C_4
REMARK    2  A    between atoms: C_8  and  N_9
REMARK                            x       y       z     vdW  Elec       q    Type
REMARK                         _______ _______ _______ _____ _____    ______ ____
ROOT
ATOM      1  C   UNL     1       0.595   9.961  20.963  0.00  0.00    +0.000 A 
ATOM      2  C   UNL     1       0.725   8.707  21.528  0.00  0.00    +0.000 A 
ATOM      3  C   UNL     1       1.339   7.880  20.557  0.00  0.00    +0.000 A 
ATOM      4  C   UNL     1       1.726   6.531  20.494  0.00  0.00    +0.000 A 
ATOM      5  C   UNL     1       2.359   6.015  19.347  0.00  0.00    +0.000 A 
ATOM      6  C   UNL     1       2.592   6.902  18.279  0.00  0.00    +0.000 A 
ATOM      7  C   UNL     1       2.205   8.252  18.303  0.00  0.00    +0.000 A 
ATOM      8  C   UNL     1       1.578   8.692  19.461  0.00  0.00    +0.000 A 
ATOM      9  O   UNL     1       1.117   9.949  19.697  0.00  0.00    +0.000 OA
ENDROOT
BRANCH   5  10
ATOM     10  N   UNL     1       2.752   4.695  19.298  0.00  0.00    +0.000 N 
ATOM     11  C   UNL     1       2.027   3.616  19.989  0.00  0.00    +0.000 C 
ATOM     12  C   UNL     1       3.023   2.763  20.789  0.00  0.00    +0.000 C 
ATOM     13  O   UNL     1       4.072   2.254  19.946  0.00  0.00    +0.000 OA
ATOM     14  C   UNL     1       4.790   3.338  19.330  0.00  0.00    +0.000 C 
ATOM     15  C   UNL     1       3.867   4.221  18.467  0.00  0.00    +0.000 C 
ENDBRANCH   5  10
BRANCH   1  18
ATOM     16  C   UNL     1      -1.328  12.397  23.075  0.00  0.00    +0.000 A 
ATOM     17  C   UNL     1      -0.958  11.130  22.685  0.00  0.00    +0.000 A 
ATOM     18  C   UNL     1      -0.016  11.153  21.614  0.00  0.00    +0.000 A 
ATOM     19  C   UNL     1       0.288  12.439  21.221  0.00  0.00    +0.000 A 
ATOM     20  S   UNL     1      -0.556  13.608  22.145  0.00  0.00    +0.000 S 
ENDBRANCH   1  18
TORSDOF 2
ENDMDL
MODEL 9
REMARK VINA RESULT:      -6.7      2.834      3.394
REMARK  Name = 
REMARK  2 active torsions:
REMARK  status: ('A' for Active; 'I' for Inactive)
REMARK    1  A    between atoms: C_3  and  C_4
REMARK    2  A    between atoms: C_8  and  N_9
REMARK                            x       y       z     vdW  Elec       q    Type
REMARK                         _______ _______ _______ _____ _____    ______ ____
ROOT
ATOM      1  C   UNL     1       0.903   9.352  20.709  0.00  0.00    +0.000 A 
ATOM      2  C   UNL     1       0.852   8.112  21.314  0.00  0.00    +0.000 A 
ATOM      3  C   UNL     1       1.448   7.192  20.418  0.00  0.00    +0.000 A 
ATOM      4  C   UNL     1       1.691   5.809  20.422  0.00  0.00    +0.000 A 
ATOM      5  C   UNL     1       2.355   5.190  19.345  0.00  0.00    +0.000 A 
ATOM      6  C   UNL     1       2.767   6.011  18.279  0.00  0.00    +0.000 A 
ATOM      7  C   UNL     1       2.527   7.395  18.236  0.00  0.00    +0.000 A 
ATOM      8  C   UNL     1       1.860   7.937  19.327  0.00  0.00    +0.000 A 
ATOM      9  O   UNL     1       1.520   9.243  19.491  0.00  0.00    +0.000 OA
ENDROOT
BRANCH   5  10
ATOM     10  N   UNL     1       2.606   3.835  19.362  0.00  0.00    +0.000 N 
ATOM     11  C   UNL     1       3.263   3.155  20.491  0.00  0.00    +0.000 C 
ATOM     12  C   UNL     1       4.399   2.268  19.960  0.00  0.00    +0.000 C 
ATOM     13  O   UNL     1       3.920   1.336  18.975  0.00  0.00    +0.000 OA
ATOM     14  C   UNL     1       3.333   2.040  17.865  0.00  0.00    +0.000 C 
ATOM     15  C   UNL     1       2.150   2.922  18.305  0.00  0.00    +0.000 C 
ENDBRANCH   5  10
BRANCH   1  18
ATOM     16  C   UNL     1      -0.834  12.049  22.661  0.00  0.00    +0.000 A 
ATOM     17  C   UNL     1      -0.545  10.736  22.363  0.00  0.00    +0.000 A 
ATOM     18  C   UNL     1       0.374  10.623  21.277  0.00  0.00    +0.000 A 
ATOM     19  C   UNL     1       0.741  11.856  20.781  0.00  0.00    +0.000 A 
ATOM     20  S   UNL     1      -0.016  13.139  21.626  0.00  0.00    +0.000 S 
ENDBRANCH   1  18
TORSDOF 2
ENDMDL
