MODEL 1
REMARK VINA RESULT:      -7.0      0.000      0.000
REMARK  Name = 
REMARK  10 active torsions:
REMARK  status: ('A' for Active; 'I' for Inactive)
REMARK    1  A    between atoms: C_15  and  N_16
REMARK    2  A    between atoms: N_16  and  C_17
REMARK    3  A    between atoms: C_17  and  C_18
REMARK    4  A    between atoms: C_18  and  N_19
REMARK    5  A    between atoms: N_19  and  C_20
REMARK    6  A    between atoms: C_20  and  C_21
REMARK    7  A    between atoms: C_21  and  O_22
REMARK    8  A    between atoms: N_24  and  C_25
REMARK    9  A    between atoms: C_25  and  C_26
REMARK   10  A    between atoms: C_26  and  O_27
REMARK                            x       y       z     vdW  Elec       q    Type
REMARK                         _______ _______ _______ _____ _____    ______ ____
ROOT
ATOM      1  O   UNL     1       5.088   3.852  19.419  0.00  0.00    +0.000 OA
ATOM      2  C   UNL     1       4.616   4.710  18.680  0.00  0.00    +0.000 C 
ATOM      3  C   UNL     1       5.043   4.741  17.265  0.00  0.00    +0.000 A 
ATOM      4  C   UNL     1       5.724   3.650  16.707  0.00  0.00    +0.000 A 
ATOM      5  C   UNL     1       6.132   3.688  15.371  0.00  0.00    +0.000 A 
ATOM      6  C   UNL     1       5.876   4.816  14.594  0.00  0.00    +0.000 A 
ATOM      7  C   UNL     1       5.208   5.908  15.151  0.00  0.00    +0.000 A 
ATOM      8  C   UNL     1       4.787   5.863  16.488  0.00  0.00    +0.000 A 
ATOM      9  C   UNL     1       4.092   7.019  17.078  0.00  0.00    +0.000 C 
ATOM     10  O   UNL     1       4.121   8.093  16.481  0.00  0.00    +0.000 OA
ATOM     11  C   UNL     1       3.375   6.850  18.376  0.00  0.00    +0.000 A 
ATOM     12  C   UNL     1       2.423   7.820  18.782  0.00  0.00    +0.000 A 
ATOM     13  C   UNL     1       1.740   7.660  20.023  0.00  0.00    +0.000 A 
ATOM     14  C   UNL     1       2.003   6.497  20.759  0.00  0.00    +0.000 A 
ATOM     15  C   UNL     1       2.932   5.520  20.371  0.00  0.00    +0.000 A 
ATOM     16  C   UNL     1       3.633   5.719  19.165  0.00  0.00    +0.000 A 
ATOM     17  N   UNL     1       0.851   8.627  20.489  0.00  0.00    +0.000 N 
ATOM     18  C   UNL     1       0.897   9.924  19.799  0.00  0.00    +0.000 C 
ATOM     19  C   UNL     1       0.954   9.731  18.280  0.00  0.00    +0.000 C 
ATOM     20  N   UNL     1       2.037   8.843  17.903  0.00  0.00    +0.000 N 
ATOM     21  H   UNL     1       2.719   9.124  17.195  0.00  0.00    +0.000 HD
ENDROOT
BRANCH  15  22
ATOM     22  N   UNL     1       3.052   4.365  21.127  0.00  0.00    +0.000 N 
ATOM     23  H   UNL     1       3.971   3.913  21.182  0.00  0.00    +0.000 HD
BRANCH  22  24
ATOM     24  C   UNL     1       1.912   3.643  21.672  0.00  0.00    +0.000 C 
BRANCH  24  25
ATOM     25  C   UNL     1       1.498   2.479  20.754  0.00  0.00    +0.000 C 
BRANCH  25  26
ATOM     26  N   UNL     1       2.569   2.125  19.811  0.00  0.00    +0.000 NA
ATOM     27  H   UNL     1       2.886   1.174  20.031  0.00  0.00    +0.000 HD
BRANCH  26  28
ATOM     28  C   UNL     1       2.072   2.151  18.429  0.00  0.00    +0.000 C 
BRANCH  28  29
ATOM     29  C   UNL     1       0.923   3.154  18.290  0.00  0.00    +0.000 C 
BRANCH  29  30
ATOM     30  O   UNL     1       1.224   4.117  17.281  0.00  0.00    +0.000 OA
ATOM     31  H   UNL     1       0.705   3.847  16.503  0.00  0.00    +0.000 HD
ENDBRANCH  29  30
ENDBRANCH  28  29
ENDBRANCH  26  28
ENDBRANCH  25  26
ENDBRANCH  24  25
ENDBRANCH  22  24
ENDBRANCH  15  22
BRANCH  17  32
ATOM     32  C   UNL     1      -0.128   8.410  21.557  0.00  0.00    +0.000 C 
BRANCH  32  33
ATOM     33  C   UNL     1      -0.366   9.671  22.398  0.00  0.00    +0.000 C 
BRANCH  33  34
ATOM     34  O   UNL     1       0.430   9.662  23.581  0.00  0.00    +0.000 OA
ATOM     35  H   UNL     1       0.574  10.602  23.794  0.00  0.00    +0.000 HD
ENDBRANCH  33  34
ENDBRANCH  32  33
ENDBRANCH  17  32
TORSDOF 10
ENDMDL
MODEL 2
REMARK VINA RESULT:      -6.4      1.785      5.750
REMARK  Name = 
REMARK  10 active torsions:
REMARK  status: ('A' for Active; 'I' for Inactive)
REMARK    1  A    between atoms: C_15  and  N_16
REMARK    2  A    between atoms: N_16  and  C_17
REMARK    3  A    between atoms: C_17  and  C_18
REMARK    4  A    between atoms: C_18  and  N_19
REMARK    5  A    between atoms: N_19  and  C_20
REMARK    6  A    between atoms: C_20  and  C_21
REMARK    7  A    between atoms: C_21  and  O_22
REMARK    8  A    between atoms: N_24  and  C_25
REMARK    9  A    between atoms: C_25  and  C_26
REMARK   10  A    between atoms: C_26  and  O_27
REMARK                            x       y       z     vdW  Elec       q    Type
REMARK                         _______ _______ _______ _____ _____    ______ ____
ROOT
ATOM      1  O   UNL     1       0.663   6.991  21.545  0.00  0.00    +0.000 OA
ATOM      2  C   UNL     1       1.238   7.580  20.635  0.00  0.00    +0.000 C 
ATOM      3  C   UNL     1       0.905   8.998  20.384  0.00  0.00    +0.000 A 
ATOM      4  C   UNL     1       0.188   9.736  21.336  0.00  0.00    +0.000 A 
ATOM      5  C   UNL     1      -0.132  11.074  21.089  0.00  0.00    +0.000 A 
ATOM      6  C   UNL     1       0.249  11.674  19.891  0.00  0.00    +0.000 A 
ATOM      7  C   UNL     1       0.954  10.938  18.937  0.00  0.00    +0.000 A 
ATOM      8  C   UNL     1       1.285   9.599  19.191  0.00  0.00    +0.000 A 
ATOM      9  C   UNL     1       2.019   8.820  18.181  0.00  0.00    +0.000 C 
ATOM     10  O   UNL     1       2.102   9.265  17.038  0.00  0.00    +0.000 OA
ATOM     11  C   UNL     1       2.639   7.521  18.575  0.00  0.00    +0.000 A 
ATOM     12  C   UNL     1       3.628   6.935  17.743  0.00  0.00    +0.000 A 
ATOM     13  C   UNL     1       4.218   5.693  18.118  0.00  0.00    +0.000 A 
ATOM     14  C   UNL     1       3.830   5.138  19.346  0.00  0.00    +0.000 A 
ATOM     15  C   UNL     1       2.863   5.706  20.188  0.00  0.00    +0.000 A 
ATOM     16  C   UNL     1       2.255   6.910  19.778  0.00  0.00    +0.000 A 
ATOM     17  N   UNL     1       5.140   5.052  17.292  0.00  0.00    +0.000 N 
ATOM     18  C   UNL     1       5.227   5.559  15.916  0.00  0.00    +0.000 C 
ATOM     19  C   UNL     1       5.253   7.092  15.900  0.00  0.00    +0.000 C 
ATOM     20  N   UNL     1       4.137   7.643  16.644  0.00  0.00    +0.000 N 
ATOM     21  H   UNL     1       3.522   8.341  16.221  0.00  0.00    +0.000 HD
ENDROOT
BRANCH  15  22
ATOM     22  N   UNL     1       2.617   5.124  21.421  0.00  0.00    +0.000 N 
ATOM     23  H   UNL     1       2.822   5.668  22.266  0.00  0.00    +0.000 HD
BRANCH  22  24
ATOM     24  C   UNL     1       2.282   3.718  21.589  0.00  0.00    +0.000 C 
BRANCH  24  25
ATOM     25  C   UNL     1       1.069   3.327  20.726  0.00  0.00    +0.000 C 
BRANCH  25  26
ATOM     26  N   UNL     1       1.382   2.206  19.826  0.00  0.00    +0.000 NA
ATOM     27  H   UNL     1       0.696   1.461  19.995  0.00  0.00    +0.000 HD
BRANCH  26  28
ATOM     28  C   UNL     1       1.289   2.628  18.422  0.00  0.00    +0.000 C 
BRANCH  28  29
ATOM     29  C   UNL     1       2.556   2.233  17.657  0.00  0.00    +0.000 C 
BRANCH  29  30
ATOM     30  O   UNL     1       3.270   1.222  18.368  0.00  0.00    +0.000 OA
ATOM     31  H   UNL     1       3.941   0.892  17.744  0.00  0.00    +0.000 HD
ENDBRANCH  29  30
ENDBRANCH  28  29
ENDBRANCH  26  28
ENDBRANCH  25  26
ENDBRANCH  24  25
ENDBRANCH  22  24
ENDBRANCH  15  22
BRANCH  17  32
ATOM     32  C   UNL     1       6.033   3.973  17.723  0.00  0.00    +0.000 C 
BRANCH  32  33
ATOM     33  C   UNL     1       7.497   4.422  17.804  0.00  0.00    +0.000 C 
BRANCH  33  34
ATOM     34  O   UNL     1       7.748   5.154  19.002  0.00  0.00    +0.000 OA
ATOM     35  H   UNL     1       6.865   5.348  19.367  0.00  0.00    +0.000 HD
ENDBRANCH  33  34
ENDBRANCH  32  33
ENDBRANCH  17  32
TORSDOF 10
ENDMDL
MODEL 3
REMARK VINA RESULT:      -6.3      2.084      6.595
REMARK  Name = 
REMARK  10 active torsions:
REMARK  status: ('A' for Active; 'I' for Inactive)
REMARK    1  A    between atoms: C_15  and  N_16
REMARK    2  A    between atoms: N_16  and  C_17
REMARK    3  A    between atoms: C_17  and  C_18
REMARK    4  A    between atoms: C_18  and  N_19
REMARK    5  A    between atoms: N_19  and  C_20
REMARK    6  A    between atoms: C_20  and  C_21
REMARK    7  A    between atoms: C_21  and  O_22
REMARK    8  A    between atoms: N_24  and  C_25
REMARK    9  A    between atoms: C_25  and  C_26
REMARK   10  A    between atoms: C_26  and  O_27
REMARK                            x       y       z     vdW  Elec       q    Type
REMARK                         _______ _______ _______ _____ _____    ______ ____
ROOT
ATOM      1  O   UNL     1       3.644   8.745  17.220  0.00  0.00    +0.000 OA
ATOM      2  C   UNL     1       2.902   8.244  18.058  0.00  0.00    +0.000 C 
ATOM      3  C   UNL     1       1.798   9.060  18.607  0.00  0.00    +0.000 A 
ATOM      4  C   UNL     1       1.419  10.253  17.978  0.00  0.00    +0.000 A 
ATOM      5  C   UNL     1       0.380  11.024  18.506  0.00  0.00    +0.000 A 
ATOM      6  C   UNL     1      -0.273  10.616  19.668  0.00  0.00    +0.000 A 
ATOM      7  C   UNL     1       0.110   9.433  20.302  0.00  0.00    +0.000 A 
ATOM      8  C   UNL     1       1.144   8.653  19.764  0.00  0.00    +0.000 A 
ATOM      9  C   UNL     1       1.555   7.411  20.438  0.00  0.00    +0.000 C 
ATOM     10  O   UNL     1       1.173   7.211  21.589  0.00  0.00    +0.000 OA
ATOM     11  C   UNL     1       2.417   6.438  19.706  0.00  0.00    +0.000 A 
ATOM     12  C   UNL     1       2.533   5.106  20.183  0.00  0.00    +0.000 A 
ATOM     13  C   UNL     1       3.358   4.178  19.486  0.00  0.00    +0.000 A 
ATOM     14  C   UNL     1       3.973   4.620  18.305  0.00  0.00    +0.000 A 
ATOM     15  C   UNL     1       3.863   5.927  17.810  0.00  0.00    +0.000 A 
ATOM     16  C   UNL     1       3.081   6.845  18.539  0.00  0.00    +0.000 A 
ATOM     17  N   UNL     1       3.553   2.883  19.963  0.00  0.00    +0.000 N 
ATOM     18  C   UNL     1       3.124   2.640  21.347  0.00  0.00    +0.000 C 
ATOM     19  C   UNL     1       1.746   3.258  21.607  0.00  0.00    +0.000 C 
ATOM     20  N   UNL     1       1.722   4.661  21.237  0.00  0.00    +0.000 N 
ATOM     21  H   UNL     1       1.394   5.368  21.898  0.00  0.00    +0.000 HD
ENDROOT
BRANCH  15  22
ATOM     22  N   UNL     1       4.438   6.236  16.588  0.00  0.00    +0.000 N 
ATOM     23  H   UNL     1       4.186   7.126  16.143  0.00  0.00    +0.000 HD
BRANCH  22  24
ATOM     24  C   UNL     1       5.212   5.286  15.804  0.00  0.00    +0.000 C 
BRANCH  24  25
ATOM     25  C   UNL     1       6.706   5.657  15.795  0.00  0.00    +0.000 C 
BRANCH  25  26
ATOM     26  N   UNL     1       7.380   5.228  17.030  0.00  0.00    +0.000 NA
ATOM     27  H   UNL     1       8.289   4.825  16.774  0.00  0.00    +0.000 HD
BRANCH  26  28
ATOM     28  C   UNL     1       7.602   6.373  17.923  0.00  0.00    +0.000 C 
BRANCH  28  29
ATOM     29  C   UNL     1       7.918   5.893  19.343  0.00  0.00    +0.000 C 
BRANCH  29  30
ATOM     30  O   UNL     1       6.835   5.120  19.858  0.00  0.00    +0.000 OA
ATOM     31  H   UNL     1       6.739   4.370  19.245  0.00  0.00    +0.000 HD
ENDBRANCH  29  30
ENDBRANCH  28  29
ENDBRANCH  26  28
ENDBRANCH  25  26
ENDBRANCH  24  25
ENDBRANCH  22  24
ENDBRANCH  15  22
BRANCH  17  32
ATOM     32  C   UNL     1       4.096   1.777  19.169  0.00  0.00    +0.000 C 
BRANCH  32  33
ATOM     33  C   UNL     1       3.185   1.401  17.993  0.00  0.00    +0.000 C 
BRANCH  33  34
ATOM     34  O   UNL     1       1.809   1.479  18.359  0.00  0.00    +0.000 OA
ATOM     35  H   UNL     1       1.812   1.555  19.331  0.00  0.00    +0.000 HD
ENDBRANCH  33  34
ENDBRANCH  32  33
ENDBRANCH  17  32
TORSDOF 10
ENDMDL
MODEL 4
REMARK VINA RESULT:      -6.2      2.280      6.602
REMARK  Name = 
REMARK  10 active torsions:
REMARK  status: ('A' for Active; 'I' for Inactive)
REMARK    1  A    between atoms: C_15  and  N_16
REMARK    2  A    between atoms: N_16  and  C_17
REMARK    3  A    between atoms: C_17  and  C_18
REMARK    4  A    between atoms: C_18  and  N_19
REMARK    5  A    between atoms: N_19  and  C_20
REMARK    6  A    between atoms: C_20  and  C_21
REMARK    7  A    between atoms: C_21  and  O_22
REMARK    8  A    between atoms: N_24  and  C_25
REMARK    9  A    between atoms: C_25  and  C_26
REMARK   10  A    between atoms: C_26  and  O_27
REMARK                            x       y       z     vdW  Elec       q    Type
REMARK                         _______ _______ _______ _____ _____    ______ ____
ROOT
ATOM      1  O   UNL     1       4.005   8.443  17.110  0.00  0.00    +0.000 OA
ATOM      2  C   UNL     1       3.170   8.019  17.902  0.00  0.00    +0.000 C 
ATOM      3  C   UNL     1       2.174   8.961  18.457  0.00  0.00    +0.000 A 
ATOM      4  C   UNL     1       1.990  10.222  17.873  0.00  0.00    +0.000 A 
ATOM      5  C   UNL     1       1.054  11.111  18.406  0.00  0.00    +0.000 A 
ATOM      6  C   UNL     1       0.309  10.752  19.528  0.00  0.00    +0.000 A 
ATOM      7  C   UNL     1       0.498   9.502  20.118  0.00  0.00    +0.000 A 
ATOM      8  C   UNL     1       1.430   8.605  19.574  0.00  0.00    +0.000 A 
ATOM      9  C   UNL     1       1.636   7.289  20.202  0.00  0.00    +0.000 C 
ATOM     10  O   UNL     1       1.189   7.098  21.331  0.00  0.00    +0.000 OA
ATOM     11  C   UNL     1       2.377   6.234  19.451  0.00  0.00    +0.000 A 
ATOM     12  C   UNL     1       2.286   4.881  19.869  0.00  0.00    +0.000 A 
ATOM     13  C   UNL     1       2.995   3.874  19.153  0.00  0.00    +0.000 A 
ATOM     14  C   UNL     1       3.707   4.272  18.013  0.00  0.00    +0.000 A 
ATOM     15  C   UNL     1       3.801   5.601  17.576  0.00  0.00    +0.000 A 
ATOM     16  C   UNL     1       3.132   6.590  18.323  0.00  0.00    +0.000 A 
ATOM     17  N   UNL     1       2.987   2.545  19.576  0.00  0.00    +0.000 N 
ATOM     18  C   UNL     1       2.480   2.309  20.934  0.00  0.00    +0.000 C 
ATOM     19  C   UNL     1       1.195   3.107  21.183  0.00  0.00    +0.000 C 
ATOM     20  N   UNL     1       1.383   4.513  20.878  0.00  0.00    +0.000 N 
ATOM     21  H   UNL     1       1.137   5.232  21.561  0.00  0.00    +0.000 HD
ENDROOT
BRANCH  15  22
ATOM     22  N   UNL     1       4.456   5.875  16.386  0.00  0.00    +0.000 N 
ATOM     23  H   UNL     1       4.178   6.710  15.858  0.00  0.00    +0.000 HD
BRANCH  22  24
ATOM     24  C   UNL     1       5.366   4.942  15.740  0.00  0.00    +0.000 C 
BRANCH  24  25
ATOM     25  C   UNL     1       6.831   5.381  15.914  0.00  0.00    +0.000 C 
BRANCH  25  26
ATOM     26  N   UNL     1       7.540   4.532  16.885  0.00  0.00    +0.000 NA
ATOM     27  H   UNL     1       8.512   4.432  16.571  0.00  0.00    +0.000 HD
BRANCH  26  28
ATOM     28  C   UNL     1       7.533   5.153  18.217  0.00  0.00    +0.000 C 
BRANCH  28  29
ATOM     29  C   UNL     1       7.577   6.679  18.099  0.00  0.00    +0.000 C 
BRANCH  29  30
ATOM     30  O   UNL     1       8.536   7.219  19.008  0.00  0.00    +0.000 OA
ATOM     31  H   UNL     1       8.028   7.792  19.609  0.00  0.00    +0.000 HD
ENDBRANCH  29  30
ENDBRANCH  28  29
ENDBRANCH  26  28
ENDBRANCH  25  26
ENDBRANCH  24  25
ENDBRANCH  22  24
ENDBRANCH  15  22
BRANCH  17  32
ATOM     32  C   UNL     1       3.395   1.407  18.747  0.00  0.00    +0.000 C 
BRANCH  32  33
ATOM     33  C   UNL     1       4.608   0.668  19.326  0.00  0.00    +0.000 C 
BRANCH  33  34
ATOM     34  O   UNL     1       5.366   1.513  20.188  0.00  0.00    +0.000 OA
ATOM     35  H   UNL     1       4.704   2.055  20.654  0.00  0.00    +0.000 HD
ENDBRANCH  33  34
ENDBRANCH  32  33
ENDBRANCH  17  32
TORSDOF 10
ENDMDL
MODEL 5
REMARK VINA RESULT:      -6.1      2.300      6.810
REMARK  Name = 
REMARK  10 active torsions:
REMARK  status: ('A' for Active; 'I' for Inactive)
REMARK    1  A    between atoms: C_15  and  N_16
REMARK    2  A    between atoms: N_16  and  C_17
REMARK    3  A    between atoms: C_17  and  C_18
REMARK    4  A    between atoms: C_18  and  N_19
REMARK    5  A    between atoms: N_19  and  C_20
REMARK    6  A    between atoms: C_20  and  C_21
REMARK    7  A    between atoms: C_21  and  O_22
REMARK    8  A    between atoms: N_24  and  C_25
REMARK    9  A    between atoms: C_25  and  C_26
REMARK   10  A    between atoms: C_26  and  O_27
REMARK                            x       y       z     vdW  Elec       q    Type
REMARK                         _______ _______ _______ _____ _____    ______ ____
ROOT
ATOM      1  O   UNL     1       3.489   8.940  17.354  0.00  0.00    +0.000 OA
ATOM      2  C   UNL     1       2.754   8.401  18.174  0.00  0.00    +0.000 C 
ATOM      3  C   UNL     1       1.628   9.177  18.737  0.00  0.00    +0.000 A 
ATOM      4  C   UNL     1       1.225  10.377  18.137  0.00  0.00    +0.000 A 
ATOM      5  C   UNL     1       0.166  11.110  18.678  0.00  0.00    +0.000 A 
ATOM      6  C   UNL     1      -0.484  10.657  19.825  0.00  0.00    +0.000 A 
ATOM      7  C   UNL     1      -0.077   9.468  20.431  0.00  0.00    +0.000 A 
ATOM      8  C   UNL     1       0.978   8.726  19.879  0.00  0.00    +0.000 A 
ATOM      9  C   UNL     1       1.413   7.476  20.524  0.00  0.00    +0.000 C 
ATOM     10  O   UNL     1       1.029   7.237  21.667  0.00  0.00    +0.000 OA
ATOM     11  C   UNL     1       2.302   6.543  19.773  0.00  0.00    +0.000 A 
ATOM     12  C   UNL     1       2.446   5.202  20.216  0.00  0.00    +0.000 A 
ATOM     13  C   UNL     1       3.296   4.311  19.500  0.00  0.00    +0.000 A 
ATOM     14  C   UNL     1       3.907   4.797  18.335  0.00  0.00    +0.000 A 
ATOM     15  C   UNL     1       3.770   6.114  17.873  0.00  0.00    +0.000 A 
ATOM     16  C   UNL     1       2.963   6.995  18.620  0.00  0.00    +0.000 A 
ATOM     17  N   UNL     1       3.518   3.009  19.945  0.00  0.00    +0.000 N 
ATOM     18  C   UNL     1       3.087   2.720  21.320  0.00  0.00    +0.000 C 
ATOM     19  C   UNL     1       1.694   3.300  21.587  0.00  0.00    +0.000 C 
ATOM     20  N   UNL     1       1.639   4.711  21.253  0.00  0.00    +0.000 N 
ATOM     21  H   UNL     1       1.292   5.393  21.930  0.00  0.00    +0.000 HD
ENDROOT
BRANCH  15  22
ATOM     22  N   UNL     1       4.344   6.468  16.662  0.00  0.00    +0.000 N 
ATOM     23  H   UNL     1       4.060   7.353  16.230  0.00  0.00    +0.000 HD
BRANCH  22  24
ATOM     24  C   UNL     1       5.165   5.563  15.871  0.00  0.00    +0.000 C 
BRANCH  24  25
ATOM     25  C   UNL     1       6.644   5.644  16.289  0.00  0.00    +0.000 C 
BRANCH  25  26
ATOM     26  N   UNL     1       7.543   5.478  15.137  0.00  0.00    +0.000 NA
ATOM     27  H   UNL     1       8.383   4.983  15.457  0.00  0.00    +0.000 HD
BRANCH  26  28
ATOM     28  C   UNL     1       6.895   4.683  14.085  0.00  0.00    +0.000 C 
BRANCH  28  29
ATOM     29  C   UNL     1       7.607   4.882  12.744  0.00  0.00    +0.000 C 
BRANCH  29  30
ATOM     30  O   UNL     1       8.430   6.047  12.788  0.00  0.00    +0.000 OA
ATOM     31  H   UNL     1       9.346   5.717  12.781  0.00  0.00    +0.000 HD
ENDBRANCH  29  30
ENDBRANCH  28  29
ENDBRANCH  26  28
ENDBRANCH  25  26
ENDBRANCH  24  25
ENDBRANCH  22  24
ENDBRANCH  15  22
BRANCH  17  32
ATOM     32  C   UNL     1       4.090   1.937  19.126  0.00  0.00    +0.000 C 
BRANCH  32  33
ATOM     33  C   UNL     1       3.193   1.566  17.939  0.00  0.00    +0.000 C 
BRANCH  33  34
ATOM     34  O   UNL     1       1.816   1.569  18.311  0.00  0.00    +0.000 OA
ATOM     35  H   UNL     1       1.384   2.161  17.668  0.00  0.00    +0.000 HD
ENDBRANCH  33  34
ENDBRANCH  32  33
ENDBRANCH  17  32
TORSDOF 10
ENDMDL
MODEL 6
REMARK VINA RESULT:      -5.9      2.548      5.059
REMARK  Name = 
REMARK  10 active torsions:
REMARK  status: ('A' for Active; 'I' for Inactive)
REMARK    1  A    between atoms: C_15  and  N_16
REMARK    2  A    between atoms: N_16  and  C_17
REMARK    3  A    between atoms: C_17  and  C_18
REMARK    4  A    between atoms: C_18  and  N_19
REMARK    5  A    between atoms: N_19  and  C_20
REMARK    6  A    between atoms: C_20  and  C_21
REMARK    7  A    between atoms: C_21  and  O_22
REMARK    8  A    between atoms: N_24  and  C_25
REMARK    9  A    between atoms: C_25  and  C_26
REMARK   10  A    between atoms: C_26  and  O_27
REMARK                            x       y       z     vdW  Elec       q    Type
REMARK                         _______ _______ _______ _____ _____    ______ ____
ROOT
ATOM      1  O   UNL     1       4.448   4.249  17.277  0.00  0.00    +0.000 OA
ATOM      2  C   UNL     1       3.848   4.707  18.244  0.00  0.00    +0.000 C 
ATOM      3  C   UNL     1       3.620   3.835  19.417  0.00  0.00    +0.000 A 
ATOM      4  C   UNL     1       4.323   2.630  19.551  0.00  0.00    +0.000 A 
ATOM      5  C   UNL     1       4.097   1.806  20.656  0.00  0.00    +0.000 A 
ATOM      6  C   UNL     1       3.162   2.173  21.622  0.00  0.00    +0.000 A 
ATOM      7  C   UNL     1       2.453   3.367  21.485  0.00  0.00    +0.000 A 
ATOM      8  C   UNL     1       2.690   4.200  20.381  0.00  0.00    +0.000 A 
ATOM      9  C   UNL     1       1.934   5.454  20.232  0.00  0.00    +0.000 C 
ATOM     10  O   UNL     1       0.934   5.627  20.925  0.00  0.00    +0.000 OA
ATOM     11  C   UNL     1       2.406   6.473  19.249  0.00  0.00    +0.000 A 
ATOM     12  C   UNL     1       1.922   7.805  19.333  0.00  0.00    +0.000 A 
ATOM     13  C   UNL     1       2.370   8.777  18.393  0.00  0.00    +0.000 A 
ATOM     14  C   UNL     1       3.334   8.375  17.457  0.00  0.00    +0.000 A 
ATOM     15  C   UNL     1       3.834   7.068  17.364  0.00  0.00    +0.000 A 
ATOM     16  C   UNL     1       3.343   6.108  18.271  0.00  0.00    +0.000 A 
ATOM     17  N   UNL     1       1.864  10.076  18.399  0.00  0.00    +0.000 N 
ATOM     18  C   UNL     1       0.652  10.287  19.203  0.00  0.00    +0.000 C 
ATOM     19  C   UNL     1       0.778   9.601  20.568  0.00  0.00    +0.000 C 
ATOM     20  N   UNL     1       1.134   8.203  20.423  0.00  0.00    +0.000 N 
ATOM     21  H   UNL     1       0.585   7.475  20.885  0.00  0.00    +0.000 HD
ENDROOT
BRANCH  15  22
ATOM     22  N   UNL     1       4.850   6.797  16.461  0.00  0.00    +0.000 N 
ATOM     23  H   UNL     1       4.767   5.962  15.872  0.00  0.00    +0.000 HD
BRANCH  22  24
ATOM     24  C   UNL     1       6.118   7.509  16.447  0.00  0.00    +0.000 C 
BRANCH  24  25
ATOM     25  C   UNL     1       7.103   6.915  17.471  0.00  0.00    +0.000 C 
BRANCH  25  26
ATOM     26  N   UNL     1       7.490   5.541  17.117  0.00  0.00    +0.000 NA
ATOM     27  H   UNL     1       8.380   5.582  16.607  0.00  0.00    +0.000 HD
BRANCH  26  28
ATOM     28  C   UNL     1       7.672   4.727  18.326  0.00  0.00    +0.000 C 
BRANCH  28  29
ATOM     29  C   UNL     1       7.220   5.500  19.569  0.00  0.00    +0.000 C 
BRANCH  29  30
ATOM     30  O   UNL     1       8.176   5.355  20.618  0.00  0.00    +0.000 OA
ATOM     31  H   UNL     1       8.703   4.570  20.381  0.00  0.00    +0.000 HD
ENDBRANCH  29  30
ENDBRANCH  28  29
ENDBRANCH  26  28
ENDBRANCH  25  26
ENDBRANCH  24  25
ENDBRANCH  22  24
ENDBRANCH  15  22
BRANCH  17  32
ATOM     32  C   UNL     1       2.484  11.213  17.713  0.00  0.00    +0.000 C 
BRANCH  32  33
ATOM     33  C   UNL     1       2.337  12.521  18.500  0.00  0.00    +0.000 C 
BRANCH  33  34
ATOM     34  O   UNL     1       2.556  13.655  17.664  0.00  0.00    +0.000 OA
ATOM     35  H   UNL     1       1.664  13.959  17.415  0.00  0.00    +0.000 HD
ENDBRANCH  33  34
ENDBRANCH  32  33
ENDBRANCH  17  32
TORSDOF 10
ENDMDL
MODEL 7
REMARK VINA RESULT:      -5.9      5.966     10.294
REMARK  Name = 
REMARK  10 active torsions:
REMARK  status: ('A' for Active; 'I' for Inactive)
REMARK    1  A    between atoms: C_15  and  N_16
REMARK    2  A    between atoms: N_16  and  C_17
REMARK    3  A    between atoms: C_17  and  C_18
REMARK    4  A    between atoms: C_18  and  N_19
REMARK    5  A    between atoms: N_19  and  C_20
REMARK    6  A    between atoms: C_20  and  C_21
REMARK    7  A    between atoms: C_21  and  O_22
REMARK    8  A    between atoms: N_24  and  C_25
REMARK    9  A    between atoms: C_25  and  C_26
REMARK   10  A    between atoms: C_26  and  O_27
REMARK                            x       y       z     vdW  Elec       q    Type
REMARK                         _______ _______ _______ _____ _____    ______ ____
ROOT
ATOM      1  O   UNL     1      -5.331  11.508  16.714  0.00  0.00    +0.000 OA
ATOM      2  C   UNL     1      -4.783  11.677  17.798  0.00  0.00    +0.000 C 
ATOM      3  C   UNL     1      -5.580  12.216  18.921  0.00  0.00    +0.000 A 
ATOM      4  C   UNL     1      -6.979  12.248  18.845  0.00  0.00    +0.000 A 
ATOM      5  C   UNL     1      -7.727  12.767  19.905  0.00  0.00    +0.000 A 
ATOM      6  C   UNL     1      -7.083  13.267  21.035  0.00  0.00    +0.000 A 
ATOM      7  C   UNL     1      -5.690  13.247  21.108  0.00  0.00    +0.000 A 
ATOM      8  C   UNL     1      -4.941  12.714  20.049  0.00  0.00    +0.000 A 
ATOM      9  C   UNL     1      -3.471  12.702  20.123  0.00  0.00    +0.000 C 
ATOM     10  O   UNL     1      -2.917  13.386  20.980  0.00  0.00    +0.000 OA
ATOM     11  C   UNL     1      -2.703  11.861  19.159  0.00  0.00    +0.000 A 
ATOM     12  C   UNL     1      -1.342  11.556  19.423  0.00  0.00    +0.000 A 
ATOM     13  C   UNL     1      -0.607  10.755  18.502  0.00  0.00    +0.000 A 
ATOM     14  C   UNL     1      -1.300  10.246  17.394  0.00  0.00    +0.000 A 
ATOM     15  C   UNL     1      -2.646  10.525  17.119  0.00  0.00    +0.000 A 
ATOM     16  C   UNL     1      -3.344  11.358  18.016  0.00  0.00    +0.000 A 
ATOM     17  N   UNL     1       0.749  10.494  18.691  0.00  0.00    +0.000 N 
ATOM     18  C   UNL     1       1.426  11.326  19.695  0.00  0.00    +0.000 C 
ATOM     19  C   UNL     1       0.575  11.449  20.964  0.00  0.00    +0.000 C 
ATOM     20  N   UNL     1      -0.767  11.904  20.654  0.00  0.00    +0.000 N 
ATOM     21  H   UNL     1      -1.170  12.707  21.141  0.00  0.00    +0.000 HD
ENDROOT
BRANCH  15  22
ATOM     22  N   UNL     1      -3.260   9.900  16.045  0.00  0.00    +0.000 N 
ATOM     23  H   UNL     1      -3.881   9.107  16.234  0.00  0.00    +0.000 HD
BRANCH  22  24
ATOM     24  C   UNL     1      -2.913  10.170  14.658  0.00  0.00    +0.000 C 
BRANCH  24  25
ATOM     25  C   UNL     1      -4.098   9.878  13.720  0.00  0.00    +0.000 C 
BRANCH  25  26
ATOM     26  N   UNL     1      -3.676   9.826  12.312  0.00  0.00    +0.000 NA
ATOM     27  H   UNL     1      -3.070   9.007  12.190  0.00  0.00    +0.000 HD
BRANCH  26  28
ATOM     28  C   UNL     1      -4.840   9.692  11.426  0.00  0.00    +0.000 C 
BRANCH  28  29
ATOM     29  C   UNL     1      -6.038   9.127  12.195  0.00  0.00    +0.000 C 
BRANCH  29  30
ATOM     30  O   UNL     1      -7.227   9.840  11.855  0.00  0.00    +0.000 OA
ATOM     31  H   UNL     1      -7.365  10.474  12.582  0.00  0.00    +0.000 HD
ENDBRANCH  29  30
ENDBRANCH  28  29
ENDBRANCH  26  28
ENDBRANCH  25  26
ENDBRANCH  24  25
ENDBRANCH  22  24
ENDBRANCH  15  22
BRANCH  17  32
ATOM     32  C   UNL     1       1.496   9.437  18.004  0.00  0.00    +0.000 C 
BRANCH  32  33
ATOM     33  C   UNL     1       1.894   8.295  18.948  0.00  0.00    +0.000 C 
BRANCH  33  34
ATOM     34  O   UNL     1       2.898   7.468  18.364  0.00  0.00    +0.000 OA
ATOM     35  H   UNL     1       2.421   6.680  18.046  0.00  0.00    +0.000 HD
ENDBRANCH  33  34
ENDBRANCH  32  33
ENDBRANCH  17  32
TORSDOF 10
ENDMDL
MODEL 8
REMARK VINA RESULT:      -5.9      6.166     10.233
REMARK  Name = 
REMARK  10 active torsions:
REMARK  status: ('A' for Active; 'I' for Inactive)
REMARK    1  A    between atoms: C_15  and  N_16
REMARK    2  A    between atoms: N_16  and  C_17
REMARK    3  A    between atoms: C_17  and  C_18
REMARK    4  A    between atoms: C_18  and  N_19
REMARK    5  A    between atoms: N_19  and  C_20
REMARK    6  A    between atoms: C_20  and  C_21
REMARK    7  A    between atoms: C_21  and  O_22
REMARK    8  A    between atoms: N_24  and  C_25
REMARK    9  A    between atoms: C_25  and  C_26
REMARK   10  A    between atoms: C_26  and  O_27
REMARK                            x       y       z     vdW  Elec       q    Type
REMARK                         _______ _______ _______ _____ _____    ______ ____
ROOT
ATOM      1  O   UNL     1       0.130  13.099  22.194  0.00  0.00    +0.000 OA
ATOM      2  C   UNL     1      -1.077  13.212  22.003  0.00  0.00    +0.000 C 
ATOM      3  C   UNL     1      -1.906  13.844  23.052  0.00  0.00    +0.000 A 
ATOM      4  C   UNL     1      -1.303  14.564  24.093  0.00  0.00    +0.000 A 
ATOM      5  C   UNL     1      -2.091  15.151  25.086  0.00  0.00    +0.000 A 
ATOM      6  C   UNL     1      -3.477  15.012  25.052  0.00  0.00    +0.000 A 
ATOM      7  C   UNL     1      -4.079  14.286  24.023  0.00  0.00    +0.000 A 
ATOM      8  C   UNL     1      -3.288  13.707  23.019  0.00  0.00    +0.000 A 
ATOM      9  C   UNL     1      -3.921  12.933  21.939  0.00  0.00    +0.000 C 
ATOM     10  O   UNL     1      -5.093  12.586  22.071  0.00  0.00    +0.000 OA
ATOM     11  C   UNL     1      -3.125  12.598  20.723  0.00  0.00    +0.000 A 
ATOM     12  C   UNL     1      -3.791  12.175  19.543  0.00  0.00    +0.000 A 
ATOM     13  C   UNL     1      -3.031  11.852  18.383  0.00  0.00    +0.000 A 
ATOM     14  C   UNL     1      -1.642  12.036  18.448  0.00  0.00    +0.000 A 
ATOM     15  C   UNL     1      -0.965  12.463  19.599  0.00  0.00    +0.000 A 
ATOM     16  C   UNL     1      -1.728  12.732  20.753  0.00  0.00    +0.000 A 
ATOM     17  N   UNL     1      -3.643  11.365  17.229  0.00  0.00    +0.000 N 
ATOM     18  C   UNL     1      -5.036  10.922  17.382  0.00  0.00    +0.000 C 
ATOM     19  C   UNL     1      -5.842  11.935  18.203  0.00  0.00    +0.000 C 
ATOM     20  N   UNL     1      -5.191  12.225  19.466  0.00  0.00    +0.000 N 
ATOM     21  H   UNL     1      -5.704  12.149  20.347  0.00  0.00    +0.000 HD
ENDROOT
BRANCH  15  22
ATOM     22  N   UNL     1       0.400  12.698  19.532  0.00  0.00    +0.000 N 
ATOM     23  H   UNL     1       0.724  13.668  19.466  0.00  0.00    +0.000 HD
BRANCH  22  24
ATOM     24  C   UNL     1       1.384  11.643  19.341  0.00  0.00    +0.000 C 
BRANCH  24  25
ATOM     25  C   UNL     1       0.982  10.362  20.094  0.00  0.00    +0.000 C 
BRANCH  25  26
ATOM     26  N   UNL     1       1.237  10.479  21.538  0.00  0.00    +0.000 NA
ATOM     27  H   UNL     1       0.565  11.149  21.927  0.00  0.00    +0.000 HD
BRANCH  26  28
ATOM     28  C   UNL     1       1.055   9.181  22.202  0.00  0.00    +0.000 C 
BRANCH  28  29
ATOM     29  C   UNL     1      -0.429   8.928  22.489  0.00  0.00    +0.000 C 
BRANCH  29  30
ATOM     30  O   UNL     1      -0.947   9.939  23.353  0.00  0.00    +0.000 OA
ATOM     31  H   UNL     1      -1.746   9.552  23.753  0.00  0.00    +0.000 HD
ENDBRANCH  29  30
ENDBRANCH  28  29
ENDBRANCH  26  28
ENDBRANCH  25  26
ENDBRANCH  24  25
ENDBRANCH  22  24
ENDBRANCH  15  22
BRANCH  17  32
ATOM     32  C   UNL     1      -3.012  11.323  15.907  0.00  0.00    +0.000 C 
BRANCH  32  33
ATOM     33  C   UNL     1      -3.054   9.921  15.285  0.00  0.00    +0.000 C 
BRANCH  33  34
ATOM     34  O   UNL     1      -2.663   9.953  13.914  0.00  0.00    +0.000 OA
ATOM     35  H   UNL     1      -2.894   9.072  13.567  0.00  0.00    +0.000 HD
ENDBRANCH  33  34
ENDBRANCH  32  33
ENDBRANCH  17  32
TORSDOF 10
ENDMDL
MODEL 9
REMARK VINA RESULT:      -5.8      2.475      4.939
REMARK  Name = 
REMARK  10 active torsions:
REMARK  status: ('A' for Active; 'I' for Inactive)
REMARK    1  A    between atoms: C_15  and  N_16
REMARK    2  A    between atoms: N_16  and  C_17
REMARK    3  A    between atoms: C_17  and  C_18
REMARK    4  A    between atoms: C_18  and  N_19
REMARK    5  A    between atoms: N_19  and  C_20
REMARK    6  A    between atoms: C_20  and  C_21
REMARK    7  A    between atoms: C_21  and  O_22
REMARK    8  A    between atoms: N_24  and  C_25
REMARK    9  A    between atoms: C_25  and  C_26
REMARK   10  A    between atoms: C_26  and  O_27
REMARK                            x       y       z     vdW  Elec       q    Type
REMARK                         _______ _______ _______ _____ _____    ______ ____
ROOT
ATOM      1  O   UNL     1       4.437   4.173  17.330  0.00  0.00    +0.000 OA
ATOM      2  C   UNL     1       3.831   4.650  18.283  0.00  0.00    +0.000 C 
ATOM      3  C   UNL     1       3.566   3.792  19.458  0.00  0.00    +0.000 A 
ATOM      4  C   UNL     1       4.243   2.575  19.613  0.00  0.00    +0.000 A 
ATOM      5  C   UNL     1       3.983   1.765  20.721  0.00  0.00    +0.000 A 
ATOM      6  C   UNL     1       3.039   2.158  21.668  0.00  0.00    +0.000 A 
ATOM      7  C   UNL     1       2.355   3.364  21.510  0.00  0.00    +0.000 A 
ATOM      8  C   UNL     1       2.627   4.183  20.404  0.00  0.00    +0.000 A 
ATOM      9  C   UNL     1       1.898   5.450  20.233  0.00  0.00    +0.000 C 
ATOM     10  O   UNL     1       0.890   5.647  20.907  0.00  0.00    +0.000 OA
ATOM     11  C   UNL     1       2.406   6.452  19.250  0.00  0.00    +0.000 A 
ATOM     12  C   UNL     1       1.946   7.794  19.316  0.00  0.00    +0.000 A 
ATOM     13  C   UNL     1       2.429   8.750  18.376  0.00  0.00    +0.000 A 
ATOM     14  C   UNL     1       3.401   8.322  17.460  0.00  0.00    +0.000 A 
ATOM     15  C   UNL     1       3.876   7.005  17.385  0.00  0.00    +0.000 A 
ATOM     16  C   UNL     1       3.352   6.061  18.291  0.00  0.00    +0.000 A 
ATOM     17  N   UNL     1       1.948  10.058  18.364  0.00  0.00    +0.000 N 
ATOM     18  C   UNL     1       0.728  10.298  19.146  0.00  0.00    +0.000 C 
ATOM     19  C   UNL     1       0.818   9.621  20.518  0.00  0.00    +0.000 C 
ATOM     20  N   UNL     1       1.148   8.215  20.389  0.00  0.00    +0.000 N 
ATOM     21  H   UNL     1       0.577   7.501  20.847  0.00  0.00    +0.000 HD
ENDROOT
BRANCH  15  22
ATOM     22  N   UNL     1       4.902   6.707  16.501  0.00  0.00    +0.000 N 
ATOM     23  H   UNL     1       4.735   5.992  15.785  0.00  0.00    +0.000 HD
BRANCH  22  24
ATOM     24  C   UNL     1       6.263   7.196  16.661  0.00  0.00    +0.000 C 
BRANCH  24  25
ATOM     25  C   UNL     1       7.144   6.164  17.389  0.00  0.00    +0.000 C 
BRANCH  25  26
ATOM     26  N   UNL     1       7.170   4.876  16.679  0.00  0.00    +0.000 NA
ATOM     27  H   UNL     1       6.273   4.405  16.842  0.00  0.00    +0.000 HD
BRANCH  26  28
ATOM     28  C   UNL     1       7.342   5.084  15.235  0.00  0.00    +0.000 C 
BRANCH  28  29
ATOM     29  C   UNL     1       6.492   4.085  14.443  0.00  0.00    +0.000 C 
BRANCH  29  30
ATOM     30  O   UNL     1       5.117   4.465  14.480  0.00  0.00    +0.000 OA
ATOM     31  H   UNL     1       4.626   3.690  14.153  0.00  0.00    +0.000 HD
ENDBRANCH  29  30
ENDBRANCH  28  29
ENDBRANCH  26  28
ENDBRANCH  25  26
ENDBRANCH  24  25
ENDBRANCH  22  24
ENDBRANCH  15  22
BRANCH  17  32
ATOM     32  C   UNL     1       2.601  11.177  17.679  0.00  0.00    +0.000 C 
BRANCH  32  33
ATOM     33  C   UNL     1       2.276  12.529  18.328  0.00  0.00    +0.000 C 
BRANCH  33  34
ATOM     34  O   UNL     1       3.044  13.580  17.747  0.00  0.00    +0.000 OA
ATOM     35  H   UNL     1       3.901  13.171  17.525  0.00  0.00    +0.000 HD
ENDBRANCH  33  34
ENDBRANCH  32  33
ENDBRANCH  17  32
TORSDOF 10
ENDMDL
