MODEL 1
REMARK VINA RESULT:      -7.0      0.000      0.000
REMARK  Name = 
REMARK  7 active torsions:
REMARK  status: ('A' for Active; 'I' for Inactive)
REMARK    1  A    between atoms: C_1  and  O_2
REMARK    2  A    between atoms: O_2  and  C_3
REMARK    3  A    between atoms: C_6  and  N_7
REMARK    4  A    between atoms: N_10  and  C_11
REMARK    5  A    between atoms: C_17  and  C_18
REMARK    6  A    between atoms: C_22  and  N_23
REMARK    7  A    between atoms: C_28  and  C_29
REMARK                            x       y       z     vdW  Elec       q    Type
REMARK                         _______ _______ _______ _____ _____    ______ ____
ROOT
ATOM      1  C   UNL     1       0.314  10.591  22.137  0.00  0.00    +0.000 A 
ATOM      2  C   UNL     1      -0.634  10.106  23.040  0.00  0.00    +0.000 A 
ATOM      3  N   UNL     1      -1.754  10.741  23.394  0.00  0.00    +0.000 NA
ATOM      4  C   UNL     1      -1.957  11.946  22.905  0.00  0.00    +0.000 A 
ATOM      5  C   UNL     1      -3.142  12.533  23.329  0.00  0.00    +0.000 A 
ATOM      6  C   UNL     1      -3.514  13.816  22.963  0.00  0.00    +0.000 A 
ATOM      7  C   UNL     1      -2.650  14.554  22.169  0.00  0.00    +0.000 A 
ATOM      8  C   UNL     1      -1.445  13.974  21.730  0.00  0.00    +0.000 A 
ATOM      9  C   UNL     1      -1.060  12.623  22.016  0.00  0.00    +0.000 A 
ATOM     10  C   UNL     1       0.128  11.879  21.546  0.00  0.00    +0.000 A 
ENDROOT
BRANCH  10  11
ATOM     11  N   UNL     1       0.989  12.321  20.499  0.00  0.00    +0.000 N 
ATOM     12  C   UNL     1       0.652  11.874  19.108  0.00  0.00    +0.000 C 
ATOM     13  C   UNL     1       1.892  11.838  18.209  0.00  0.00    +0.000 C 
ATOM     14  O   UNL     1       2.520  13.124  18.146  0.00  0.00    +0.000 OA
ATOM     15  C   UNL     1       2.867  13.559  19.463  0.00  0.00    +0.000 C 
ATOM     16  C   UNL     1       1.613  13.699  20.384  0.00  0.00    +0.000 C 
ATOM     17  C   UNL     1       2.101  14.405  21.630  0.00  0.00    +0.000 C 
ENDBRANCH  10  11
BRANCH   1  21
ATOM     18  N   UNL     1       2.144   7.732  20.852  0.00  0.00    +0.000 N 
ATOM     19  C   UNL     1       1.162   8.709  20.903  0.00  0.00    +0.000 C 
ATOM     20  O   UNL     1       0.124   8.658  20.252  0.00  0.00    +0.000 OA
ATOM     21  N   UNL     1       1.400   9.720  21.842  0.00  0.00    +0.000 N 
ATOM     22  H   UNL     1       2.887   7.768  21.535  0.00  0.00    +0.000 HD
ATOM     23  H   UNL     1       2.011   9.535  22.619  0.00  0.00    +0.000 HD
BRANCH  18  27
ATOM     24  C   UNL     1       2.022   4.316  18.421  0.00  0.00    +0.000 A 
ATOM     25  N   UNL     1       2.484   5.467  17.896  0.00  0.00    +0.000 NA
ATOM     26  C   UNL     1       2.499   6.555  18.698  0.00  0.00    +0.000 A 
ATOM     27  C   UNL     1       2.067   6.577  20.023  0.00  0.00    +0.000 A 
ATOM     28  C   UNL     1       1.558   5.379  20.533  0.00  0.00    +0.000 A 
ATOM     29  C   UNL     1       1.533   4.230  19.724  0.00  0.00    +0.000 A 
ATOM     30 CL   UNL     1       0.921   2.755  20.375  0.00  0.00    +0.000 Cl
BRANCH  24  32
ATOM     31  C   UNL     1       3.349   2.529  17.710  0.00  0.00    +0.000 C 
ATOM     32  O   UNL     1       2.080   3.184  17.633  0.00  0.00    +0.000 OA
ENDBRANCH  24  32
ENDBRANCH  18  27
ENDBRANCH   1  21
BRANCH   7  33
ATOM     33  C   UNL     1      -3.010  15.881  21.761  0.00  0.00    +0.000 C 
ATOM     34  N   UNL     1      -3.310  16.949  21.418  0.00  0.00    +0.000 NA
ENDBRANCH   7  33
TORSDOF 5
ENDMDL
MODEL 2
REMARK VINA RESULT:      -7.0      0.510      1.276
REMARK  Name = 
REMARK  7 active torsions:
REMARK  status: ('A' for Active; 'I' for Inactive)
REMARK    1  A    between atoms: C_1  and  O_2
REMARK    2  A    between atoms: O_2  and  C_3
REMARK    3  A    between atoms: C_6  and  N_7
REMARK    4  A    between atoms: N_10  and  C_11
REMARK    5  A    between atoms: C_17  and  C_18
REMARK    6  A    between atoms: C_22  and  N_23
REMARK    7  A    between atoms: C_28  and  C_29
REMARK                            x       y       z     vdW  Elec       q    Type
REMARK                         _______ _______ _______ _____ _____    ______ ____
ROOT
ATOM      1  C   UNL     1       0.325  10.619  22.049  0.00  0.00    +0.000 A 
ATOM      2  C   UNL     1      -0.568  10.056  22.963  0.00  0.00    +0.000 A 
ATOM      3  N   UNL     1      -1.690  10.637  23.397  0.00  0.00    +0.000 NA
ATOM      4  C   UNL     1      -1.949  11.859  22.985  0.00  0.00    +0.000 A 
ATOM      5  C   UNL     1      -3.131  12.385  23.490  0.00  0.00    +0.000 A 
ATOM      6  C   UNL     1      -3.555  13.674  23.210  0.00  0.00    +0.000 A 
ATOM      7  C   UNL     1      -2.749  14.480  22.423  0.00  0.00    +0.000 A 
ATOM      8  C   UNL     1      -1.547  13.962  21.903  0.00  0.00    +0.000 A 
ATOM      9  C   UNL     1      -1.111  12.611  22.098  0.00  0.00    +0.000 A 
ATOM     10  C   UNL     1       0.077  11.931  21.539  0.00  0.00    +0.000 A 
ENDROOT
BRANCH  10  11
ATOM     11  N   UNL     1       0.879  12.455  20.482  0.00  0.00    +0.000 N 
ATOM     12  C   UNL     1       2.239  12.966  20.851  0.00  0.00    +0.000 C 
ATOM     13  C   UNL     1       2.729  14.033  19.866  0.00  0.00    +0.000 C 
ATOM     14  O   UNL     1       2.770  13.518  18.530  0.00  0.00    +0.000 OA
ATOM     15  C   UNL     1       1.476  13.043  18.152  0.00  0.00    +0.000 C 
ATOM     16  C   UNL     1       0.982  11.887  19.080  0.00  0.00    +0.000 C 
ATOM     17  C   UNL     1      -0.252  11.327  18.408  0.00  0.00    +0.000 C 
ENDBRANCH  10  11
BRANCH   1  21
ATOM     18  N   UNL     1       2.171   7.776  20.751  0.00  0.00    +0.000 N 
ATOM     19  C   UNL     1       1.128   8.683  20.871  0.00  0.00    +0.000 C 
ATOM     20  O   UNL     1       0.010   8.492  20.406  0.00  0.00    +0.000 OA
ATOM     21  N   UNL     1       1.423   9.800  21.662  0.00  0.00    +0.000 N 
ATOM     22  H   UNL     1       3.005   7.935  21.296  0.00  0.00    +0.000 HD
ATOM     23  H   UNL     1       2.161   9.740  22.343  0.00  0.00    +0.000 HD
BRANCH  18  27
ATOM     24  C   UNL     1       1.963   4.121  18.704  0.00  0.00    +0.000 A 
ATOM     25  N   UNL     1       2.329   5.223  18.022  0.00  0.00    +0.000 NA
ATOM     26  C   UNL     1       2.374   6.390  18.704  0.00  0.00    +0.000 A 
ATOM     27  C   UNL     1       2.064   6.538  20.055  0.00  0.00    +0.000 A 
ATOM     28  C   UNL     1       1.652   5.386  20.731  0.00  0.00    +0.000 A 
ATOM     29  C   UNL     1       1.598   4.158  20.049  0.00  0.00    +0.000 A 
ATOM     30 CL   UNL     1       1.106   2.742  20.902  0.00  0.00    +0.000 Cl
BRANCH  24  32
ATOM     31  C   UNL     1       3.283   2.298  18.077  0.00  0.00    +0.000 C 
ATOM     32  O   UNL     1       1.993   2.915  18.034  0.00  0.00    +0.000 OA
ENDBRANCH  24  32
ENDBRANCH  18  27
ENDBRANCH   1  21
BRANCH   7  33
ATOM     33  C   UNL     1      -3.164  15.815  22.104  0.00  0.00    +0.000 C 
ATOM     34  N   UNL     1      -3.515  16.893  21.852  0.00  0.00    +0.000 NA
ENDBRANCH   7  33
TORSDOF 5
ENDMDL
MODEL 3
REMARK VINA RESULT:      -6.7      3.595      4.393
REMARK  Name = 
REMARK  7 active torsions:
REMARK  status: ('A' for Active; 'I' for Inactive)
REMARK    1  A    between atoms: C_1  and  O_2
REMARK    2  A    between atoms: O_2  and  C_3
REMARK    3  A    between atoms: C_6  and  N_7
REMARK    4  A    between atoms: N_10  and  C_11
REMARK    5  A    between atoms: C_17  and  C_18
REMARK    6  A    between atoms: C_22  and  N_23
REMARK    7  A    between atoms: C_28  and  C_29
REMARK                            x       y       z     vdW  Elec       q    Type
REMARK                         _______ _______ _______ _____ _____    ______ ____
ROOT
ATOM      1  C   UNL     1      -1.530  11.492  18.213  0.00  0.00    +0.000 A 
ATOM      2  C   UNL     1      -2.166  11.223  17.000  0.00  0.00    +0.000 A 
ATOM      3  N   UNL     1      -3.466  11.409  16.755  0.00  0.00    +0.000 NA
ATOM      4  C   UNL     1      -4.225  11.819  17.749  0.00  0.00    +0.000 A 
ATOM      5  C   UNL     1      -5.561  11.981  17.407  0.00  0.00    +0.000 A 
ATOM      6  C   UNL     1      -6.527  12.360  18.324  0.00  0.00    +0.000 A 
ATOM      7  C   UNL     1      -6.149  12.551  19.643  0.00  0.00    +0.000 A 
ATOM      8  C   UNL     1      -4.798  12.392  20.007  0.00  0.00    +0.000 A 
ATOM      9  C   UNL     1      -3.753  12.082  19.076  0.00  0.00    +0.000 A 
ATOM     10  C   UNL     1      -2.298  11.973  19.319  0.00  0.00    +0.000 A 
ENDROOT
BRANCH  10  11
ATOM     11  N   UNL     1      -1.648  12.413  20.509  0.00  0.00    +0.000 N 
ATOM     12  C   UNL     1      -1.177  11.352  21.458  0.00  0.00    +0.000 C 
ATOM     13  C   UNL     1      -1.099  11.874  22.897  0.00  0.00    +0.000 C 
ATOM     14  O   UNL     1      -0.223  13.004  22.987  0.00  0.00    +0.000 OA
ATOM     15  C   UNL     1      -0.668  14.035  22.103  0.00  0.00    +0.000 C 
ATOM     16  C   UNL     1      -0.671  13.568  20.612  0.00  0.00    +0.000 C 
ATOM     17  C   UNL     1      -0.904  14.820  19.795  0.00  0.00    +0.000 C 
ENDBRANCH  10  11
BRANCH   1  21
ATOM     18  N   UNL     1       1.675   9.806  18.454  0.00  0.00    +0.000 N 
ATOM     19  C   UNL     1       0.332   9.972  18.152  0.00  0.00    +0.000 C 
ATOM     20  O   UNL     1      -0.428   9.038  17.916  0.00  0.00    +0.000 OA
ATOM     21  N   UNL     1      -0.121  11.293  18.239  0.00  0.00    +0.000 N 
ATOM     22  H   UNL     1       2.189  10.606  18.793  0.00  0.00    +0.000 HD
ATOM     23  H   UNL     1       0.384  11.950  18.810  0.00  0.00    +0.000 HD
BRANCH  18  27
ATOM     24  C   UNL     1       3.493   6.027  18.561  0.00  0.00    +0.000 A 
ATOM     25  N   UNL     1       2.682   6.383  19.576  0.00  0.00    +0.000 NA
ATOM     26  C   UNL     1       2.120   7.611  19.522  0.00  0.00    +0.000 A 
ATOM     27  C   UNL     1       2.323   8.539  18.501  0.00  0.00    +0.000 A 
ATOM     28  C   UNL     1       3.198   8.160  17.479  0.00  0.00    +0.000 A 
ATOM     29  C   UNL     1       3.794   6.887  17.506  0.00  0.00    +0.000 A 
ATOM     30 CL   UNL     1       4.855   6.427  16.226  0.00  0.00    +0.000 Cl
BRANCH  24  32
ATOM     31  C   UNL     1       5.241   4.656  19.283  0.00  0.00    +0.000 C 
ATOM     32  O   UNL     1       4.004   4.745  18.570  0.00  0.00    +0.000 OA
ENDBRANCH  24  32
ENDBRANCH  18  27
ENDBRANCH   1  21
BRANCH   7  33
ATOM     33  C   UNL     1      -7.121  12.957  20.616  0.00  0.00    +0.000 C 
ATOM     34  N   UNL     1      -7.915  13.296  21.393  0.00  0.00    +0.000 NA
ENDBRANCH   7  33
TORSDOF 5
ENDMDL
MODEL 4
REMARK VINA RESULT:      -6.6      1.080      1.261
REMARK  Name = 
REMARK  7 active torsions:
REMARK  status: ('A' for Active; 'I' for Inactive)
REMARK    1  A    between atoms: C_1  and  O_2
REMARK    2  A    between atoms: O_2  and  C_3
REMARK    3  A    between atoms: C_6  and  N_7
REMARK    4  A    between atoms: N_10  and  C_11
REMARK    5  A    between atoms: C_17  and  C_18
REMARK    6  A    between atoms: C_22  and  N_23
REMARK    7  A    between atoms: C_28  and  C_29
REMARK                            x       y       z     vdW  Elec       q    Type
REMARK                         _______ _______ _______ _____ _____    ______ ____
ROOT
ATOM      1  C   UNL     1       0.270  10.533  22.123  0.00  0.00    +0.000 A 
ATOM      2  C   UNL     1      -0.682  10.105  23.050  0.00  0.00    +0.000 A 
ATOM      3  N   UNL     1      -1.813  10.752  23.346  0.00  0.00    +0.000 NA
ATOM      4  C   UNL     1      -2.023  11.915  22.769  0.00  0.00    +0.000 A 
ATOM      5  C   UNL     1      -3.219  12.519  23.137  0.00  0.00    +0.000 A 
ATOM      6  C   UNL     1      -3.599  13.767  22.674  0.00  0.00    +0.000 A 
ATOM      7  C   UNL     1      -2.735  14.455  21.838  0.00  0.00    +0.000 A 
ATOM      8  C   UNL     1      -1.520  13.858  21.454  0.00  0.00    +0.000 A 
ATOM      9  C   UNL     1      -1.124  12.536  21.842  0.00  0.00    +0.000 A 
ATOM     10  C   UNL     1       0.077  11.773  21.439  0.00  0.00    +0.000 A 
ENDROOT
BRANCH  10  11
ATOM     11  N   UNL     1       0.945  12.148  20.370  0.00  0.00    +0.000 N 
ATOM     12  C   UNL     1       0.622  11.604  19.011  0.00  0.00    +0.000 C 
ATOM     13  C   UNL     1       1.871  11.514  18.127  0.00  0.00    +0.000 C 
ATOM     14  O   UNL     1       2.491  12.796  17.981  0.00  0.00    +0.000 OA
ATOM     15  C   UNL     1       2.824  13.323  19.267  0.00  0.00    +0.000 C 
ATOM     16  C   UNL     1       1.562  13.518  20.166  0.00  0.00    +0.000 C 
ATOM     17  C   UNL     1       2.035  14.311  21.365  0.00  0.00    +0.000 C 
ENDBRANCH  10  11
BRANCH   1  21
ATOM     18  N   UNL     1       2.152   7.629  21.030  0.00  0.00    +0.000 N 
ATOM     19  C   UNL     1       1.164   8.602  21.005  0.00  0.00    +0.000 C 
ATOM     20  O   UNL     1       0.148   8.516  20.324  0.00  0.00    +0.000 OA
ATOM     21  N   UNL     1       1.369   9.656  21.903  0.00  0.00    +0.000 N 
ATOM     22  H   UNL     1       2.872   7.700  21.734  0.00  0.00    +0.000 HD
ATOM     23  H   UNL     1       1.956   9.510  22.707  0.00  0.00    +0.000 HD
BRANCH  18  27
ATOM     24  C   UNL     1       1.921   4.149  18.700  0.00  0.00    +0.000 A 
ATOM     25  N   UNL     1       1.144   4.246  19.795  0.00  0.00    +0.000 NA
ATOM     26  C   UNL     1       1.248   5.372  20.535  0.00  0.00    +0.000 A 
ATOM     27  C   UNL     1       2.105   6.436  20.254  0.00  0.00    +0.000 A 
ATOM     28  C   UNL     1       2.927   6.295  19.133  0.00  0.00    +0.000 A 
ATOM     29  C   UNL     1       2.838   5.136  18.342  0.00  0.00    +0.000 A 
ATOM     30 CL   UNL     1       3.847   4.987  16.951  0.00  0.00    +0.000 Cl
BRANCH  24  32
ATOM     31  C   UNL     1       2.611   1.955  18.285  0.00  0.00    +0.000 C 
ATOM     32  O   UNL     1       1.760   3.038  17.897  0.00  0.00    +0.000 OA
ENDBRANCH  24  32
ENDBRANCH  18  27
ENDBRANCH   1  21
BRANCH   7  33
ATOM     33  C   UNL     1      -3.105  15.745  21.331  0.00  0.00    +0.000 C 
ATOM     34  N   UNL     1      -3.409  16.782  20.907  0.00  0.00    +0.000 NA
ENDBRANCH   7  33
TORSDOF 5
ENDMDL
MODEL 5
REMARK VINA RESULT:      -6.6      3.384      4.471
REMARK  Name = 
REMARK  7 active torsions:
REMARK  status: ('A' for Active; 'I' for Inactive)
REMARK    1  A    between atoms: C_1  and  O_2
REMARK    2  A    between atoms: O_2  and  C_3
REMARK    3  A    between atoms: C_6  and  N_7
REMARK    4  A    between atoms: N_10  and  C_11
REMARK    5  A    between atoms: C_17  and  C_18
REMARK    6  A    between atoms: C_22  and  N_23
REMARK    7  A    between atoms: C_28  and  C_29
REMARK                            x       y       z     vdW  Elec       q    Type
REMARK                         _______ _______ _______ _____ _____    ______ ____
ROOT
ATOM      1  C   UNL     1      -2.790  12.001  18.855  0.00  0.00    +0.000 A 
ATOM      2  C   UNL     1      -3.785  11.521  18.003  0.00  0.00    +0.000 A 
ATOM      3  N   UNL     1      -5.099  11.656  18.203  0.00  0.00    +0.000 NA
ATOM      4  C   UNL     1      -5.494  12.228  19.320  0.00  0.00    +0.000 A 
ATOM      5  C   UNL     1      -6.875  12.322  19.447  0.00  0.00    +0.000 A 
ATOM      6  C   UNL     1      -7.488  12.851  20.571  0.00  0.00    +0.000 A 
ATOM      7  C   UNL     1      -6.691  13.272  21.623  0.00  0.00    +0.000 A 
ATOM      8  C   UNL     1      -5.291  13.185  21.510  0.00  0.00    +0.000 A 
ATOM      9  C   UNL     1      -4.613  12.722  20.336  0.00  0.00    +0.000 A 
ATOM     10  C   UNL     1      -3.160  12.663  20.067  0.00  0.00    +0.000 A 
ENDROOT
BRANCH  10  11
ATOM     11  N   UNL     1      -2.169  13.308  20.865  0.00  0.00    +0.000 N 
ATOM     12  C   UNL     1      -1.946  14.771  20.621  0.00  0.00    +0.000 C 
ATOM     13  C   UNL     1      -0.527  15.199  21.013  0.00  0.00    +0.000 C 
ATOM     14  O   UNL     1      -0.265  14.911  22.391  0.00  0.00    +0.000 OA
ATOM     15  C   UNL     1      -0.455  13.517  22.640  0.00  0.00    +0.000 C 
ATOM     16  C   UNL     1      -1.919  13.060  22.341  0.00  0.00    +0.000 C 
ATOM     17  C   UNL     1      -2.028  11.656  22.892  0.00  0.00    +0.000 C 
ENDBRANCH  10  11
BRANCH   1  21
ATOM     18  N   UNL     1       0.506  10.529  18.481  0.00  0.00    +0.000 N 
ATOM     19  C   UNL     1      -0.866  10.570  18.673  0.00  0.00    +0.000 C 
ATOM     20  O   UNL     1      -1.514   9.628  19.118  0.00  0.00    +0.000 OA
ATOM     21  N   UNL     1      -1.448  11.816  18.417  0.00  0.00    +0.000 N 
ATOM     22  H   UNL     1       0.983  11.392  18.267  0.00  0.00    +0.000 HD
ATOM     23  H   UNL     1      -0.877  12.644  18.457  0.00  0.00    +0.000 HD
BRANCH  18  27
ATOM     24  C   UNL     1       2.781   7.095  19.277  0.00  0.00    +0.000 A 
ATOM     25  N   UNL     1       1.992   7.588  20.251  0.00  0.00    +0.000 NA
ATOM     26  C   UNL     1       1.281   8.703  19.971  0.00  0.00    +0.000 A 
ATOM     27  C   UNL     1       1.308   9.384  18.755  0.00  0.00    +0.000 A 
ATOM     28  C   UNL     1       2.163   8.874  17.773  0.00  0.00    +0.000 A 
ATOM     29  C   UNL     1       2.912   7.714  18.034  0.00  0.00    +0.000 A 
ATOM     30 CL   UNL     1       3.947   7.086  16.805  0.00  0.00    +0.000 Cl
BRANCH  24  32
ATOM     31  C   UNL     1       2.663   5.000  20.303  0.00  0.00    +0.000 C 
ATOM     32  O   UNL     1       3.447   5.913  19.529  0.00  0.00    +0.000 OA
ENDBRANCH  24  32
ENDBRANCH  18  27
ENDBRANCH   1  21
BRANCH   7  33
ATOM     33  C   UNL     1      -7.293  13.836  22.796  0.00  0.00    +0.000 C 
ATOM     34  N   UNL     1      -7.773  14.307  23.742  0.00  0.00    +0.000 NA
ENDBRANCH   7  33
TORSDOF 5
ENDMDL
MODEL 6
REMARK VINA RESULT:      -6.6      3.368      4.111
REMARK  Name = 
REMARK  7 active torsions:
REMARK  status: ('A' for Active; 'I' for Inactive)
REMARK    1  A    between atoms: C_1  and  O_2
REMARK    2  A    between atoms: O_2  and  C_3
REMARK    3  A    between atoms: C_6  and  N_7
REMARK    4  A    between atoms: N_10  and  C_11
REMARK    5  A    between atoms: C_17  and  C_18
REMARK    6  A    between atoms: C_22  and  N_23
REMARK    7  A    between atoms: C_28  and  C_29
REMARK                            x       y       z     vdW  Elec       q    Type
REMARK                         _______ _______ _______ _____ _____    ______ ____
ROOT
ATOM      1  C   UNL     1      -1.317  11.281  18.201  0.00  0.00    +0.000 A 
ATOM      2  C   UNL     1      -1.880  10.977  16.961  0.00  0.00    +0.000 A 
ATOM      3  N   UNL     1      -3.153  11.196  16.621  0.00  0.00    +0.000 NA
ATOM      4  C   UNL     1      -3.960  11.679  17.541  0.00  0.00    +0.000 A 
ATOM      5  C   UNL     1      -5.264  11.871  17.102  0.00  0.00    +0.000 A 
ATOM      6  C   UNL     1      -6.273  12.327  17.934  0.00  0.00    +0.000 A 
ATOM      7  C   UNL     1      -5.975  12.568  19.266  0.00  0.00    +0.000 A 
ATOM      8  C   UNL     1      -4.659  12.380  19.727  0.00  0.00    +0.000 A 
ATOM      9  C   UNL     1      -3.567  11.989  18.884  0.00  0.00    +0.000 A 
ATOM     10  C   UNL     1      -2.137  11.841  19.229  0.00  0.00    +0.000 A 
ENDROOT
BRANCH  10  11
ATOM     11  N   UNL     1      -1.551  12.315  20.440  0.00  0.00    +0.000 N 
ATOM     12  C   UNL     1      -1.135  11.282  21.443  0.00  0.00    +0.000 C 
ATOM     13  C   UNL     1      -1.133  11.847  22.868  0.00  0.00    +0.000 C 
ATOM     14  O   UNL     1      -0.259  12.977  22.973  0.00  0.00    +0.000 OA
ATOM     15  C   UNL     1      -0.651  13.982  22.035  0.00  0.00    +0.000 C 
ATOM     16  C   UNL     1      -0.576  13.471  20.561  0.00  0.00    +0.000 C 
ATOM     17  C   UNL     1      -0.760  14.699  19.696  0.00  0.00    +0.000 C 
ENDBRANCH  10  11
BRANCH   1  21
ATOM     18  N   UNL     1       1.813   9.476  18.549  0.00  0.00    +0.000 N 
ATOM     19  C   UNL     1       0.508   9.716  18.148  0.00  0.00    +0.000 C 
ATOM     20  O   UNL     1      -0.249   8.836  17.749  0.00  0.00    +0.000 OA
ATOM     21  N   UNL     1       0.079  11.036  18.331  0.00  0.00    +0.000 N 
ATOM     22  H   UNL     1       2.312  10.221  19.013  0.00  0.00    +0.000 HD
ATOM     23  H   UNL     1       0.545  11.614  19.010  0.00  0.00    +0.000 HD
BRANCH  18  27
ATOM     24  C   UNL     1       3.708   5.735  18.496  0.00  0.00    +0.000 A 
ATOM     25  N   UNL     1       3.948   6.595  17.488  0.00  0.00    +0.000 NA
ATOM     26  C   UNL     1       3.313   7.788  17.524  0.00  0.00    +0.000 A 
ATOM     27  C   UNL     1       2.425   8.191  18.520  0.00  0.00    +0.000 A 
ATOM     28  C   UNL     1       2.165   7.266  19.535  0.00  0.00    +0.000 A 
ATOM     29  C   UNL     1       2.813   6.018  19.526  0.00  0.00    +0.000 A 
ATOM     30 CL   UNL     1       2.495   4.896  20.797  0.00  0.00    +0.000 Cl
BRANCH  24  32
ATOM     31  C   UNL     1       3.914   3.606  17.554  0.00  0.00    +0.000 C 
ATOM     32  O   UNL     1       4.414   4.549  18.508  0.00  0.00    +0.000 OA
ENDBRANCH  24  32
ENDBRANCH  18  27
ENDBRANCH   1  21
BRANCH   7  33
ATOM     33  C   UNL     1      -6.994  13.054  20.151  0.00  0.00    +0.000 C 
ATOM     34  N   UNL     1      -7.809  13.446  20.879  0.00  0.00    +0.000 NA
ENDBRANCH   7  33
TORSDOF 5
ENDMDL
MODEL 7
REMARK VINA RESULT:      -6.4      1.148      1.775
REMARK  Name = 
REMARK  7 active torsions:
REMARK  status: ('A' for Active; 'I' for Inactive)
REMARK    1  A    between atoms: C_1  and  O_2
REMARK    2  A    between atoms: O_2  and  C_3
REMARK    3  A    between atoms: C_6  and  N_7
REMARK    4  A    between atoms: N_10  and  C_11
REMARK    5  A    between atoms: C_17  and  C_18
REMARK    6  A    between atoms: C_22  and  N_23
REMARK    7  A    between atoms: C_28  and  C_29
REMARK                            x       y       z     vdW  Elec       q    Type
REMARK                         _______ _______ _______ _____ _____    ______ ____
ROOT
ATOM      1  C   UNL     1       0.206  10.703  22.081  0.00  0.00    +0.000 A 
ATOM      2  C   UNL     1      -0.701  10.160  22.992  0.00  0.00    +0.000 A 
ATOM      3  N   UNL     1      -1.842  10.737  23.377  0.00  0.00    +0.000 NA
ATOM      4  C   UNL     1      -2.108  11.939  22.914  0.00  0.00    +0.000 A 
ATOM      5  C   UNL     1      -3.311  12.465  23.370  0.00  0.00    +0.000 A 
ATOM      6  C   UNL     1      -3.747  13.736  23.032  0.00  0.00    +0.000 A 
ATOM      7  C   UNL     1      -2.933  14.525  22.236  0.00  0.00    +0.000 A 
ATOM      8  C   UNL     1      -1.712  14.008  21.765  0.00  0.00    +0.000 A 
ATOM      9  C   UNL     1      -1.261  12.672  22.021  0.00  0.00    +0.000 A 
ATOM     10  C   UNL     1      -0.049  11.991  21.516  0.00  0.00    +0.000 A 
ENDROOT
BRANCH  10  11
ATOM     11  N   UNL     1       0.771  12.489  20.461  0.00  0.00    +0.000 N 
ATOM     12  C   UNL     1       2.107  13.052  20.846  0.00  0.00    +0.000 C 
ATOM     13  C   UNL     1       2.599  14.086  19.827  0.00  0.00    +0.000 C 
ATOM     14  O   UNL     1       2.694  13.514  18.518  0.00  0.00    +0.000 OA
ATOM     15  C   UNL     1       1.424  12.988  18.125  0.00  0.00    +0.000 C 
ATOM     16  C   UNL     1       0.931  11.862  19.089  0.00  0.00    +0.000 C 
ATOM     17  C   UNL     1      -0.267  11.240  18.407  0.00  0.00    +0.000 C 
ENDBRANCH  10  11
BRANCH   1  21
ATOM     18  N   UNL     1       2.126   7.841  20.942  0.00  0.00    +0.000 N 
ATOM     19  C   UNL     1       1.067   8.733  21.003  0.00  0.00    +0.000 C 
ATOM     20  O   UNL     1      -0.039   8.503  20.523  0.00  0.00    +0.000 OA
ATOM     21  N   UNL     1       1.325   9.887  21.751  0.00  0.00    +0.000 N 
ATOM     22  H   UNL     1       2.946   8.037  21.497  0.00  0.00    +0.000 HD
ATOM     23  H   UNL     1       2.050   9.869  22.448  0.00  0.00    +0.000 HD
BRANCH  18  27
ATOM     24  C   UNL     1       1.821   4.133  19.004  0.00  0.00    +0.000 A 
ATOM     25  N   UNL     1       1.104   4.337  20.126  0.00  0.00    +0.000 NA
ATOM     26  C   UNL     1       1.232   5.536  20.737  0.00  0.00    +0.000 A 
ATOM     27  C   UNL     1       2.055   6.573  20.298  0.00  0.00    +0.000 A 
ATOM     28  C   UNL     1       2.816   6.322  19.153  0.00  0.00    +0.000 A 
ATOM     29  C   UNL     1       2.701   5.086  18.494  0.00  0.00    +0.000 A 
ATOM     30 CL   UNL     1       3.633   4.801  17.071  0.00  0.00    +0.000 Cl
BRANCH  24  32
ATOM     31  C   UNL     1       2.474   1.897  18.828  0.00  0.00    +0.000 C 
ATOM     32  O   UNL     1       1.632   2.942  18.332  0.00  0.00    +0.000 OA
ENDBRANCH  24  32
ENDBRANCH  18  27
ENDBRANCH   1  21
BRANCH   7  33
ATOM     33  C   UNL     1      -3.361  15.840  21.858  0.00  0.00    +0.000 C 
ATOM     34  N   UNL     1      -3.722  16.902  21.556  0.00  0.00    +0.000 NA
ENDBRANCH   7  33
TORSDOF 5
ENDMDL
MODEL 8
REMARK VINA RESULT:      -6.3      4.969      8.273
REMARK  Name = 
REMARK  7 active torsions:
REMARK  status: ('A' for Active; 'I' for Inactive)
REMARK    1  A    between atoms: C_1  and  O_2
REMARK    2  A    between atoms: O_2  and  C_3
REMARK    3  A    between atoms: C_6  and  N_7
REMARK    4  A    between atoms: N_10  and  C_11
REMARK    5  A    between atoms: C_17  and  C_18
REMARK    6  A    between atoms: C_22  and  N_23
REMARK    7  A    between atoms: C_28  and  C_29
REMARK                            x       y       z     vdW  Elec       q    Type
REMARK                         _______ _______ _______ _____ _____    ______ ____
ROOT
ATOM      1  C   UNL     1       1.129  12.466  19.960  0.00  0.00    +0.000 A 
ATOM      2  C   UNL     1       1.547  11.332  19.263  0.00  0.00    +0.000 A 
ATOM      3  N   UNL     1       0.761  10.564  18.502  0.00  0.00    +0.000 NA
ATOM      4  C   UNL     1      -0.520  10.857  18.452  0.00  0.00    +0.000 A 
ATOM      5  C   UNL     1      -1.261  10.005  17.643  0.00  0.00    +0.000 A 
ATOM      6  C   UNL     1      -2.634  10.120  17.496  0.00  0.00    +0.000 A 
ATOM      7  C   UNL     1      -3.296  11.104  18.212  0.00  0.00    +0.000 A 
ATOM      8  C   UNL     1      -2.560  11.976  19.036  0.00  0.00    +0.000 A 
ATOM      9  C   UNL     1      -1.132  11.946  19.154  0.00  0.00    +0.000 A 
ATOM     10  C   UNL     1      -0.246  12.854  19.913  0.00  0.00    +0.000 A 
ENDROOT
BRANCH  10  11
ATOM     11  N   UNL     1      -0.662  14.098  20.475  0.00  0.00    +0.000 N 
ATOM     12  C   UNL     1      -0.785  15.260  19.535  0.00  0.00    +0.000 C 
ATOM     13  C   UNL     1      -0.602  16.597  20.263  0.00  0.00    +0.000 C 
ATOM     14  O   UNL     1      -1.561  16.745  21.316  0.00  0.00    +0.000 OA
ATOM     15  C   UNL     1      -1.447  15.654  22.233  0.00  0.00    +0.000 C 
ATOM     16  C   UNL     1      -1.720  14.278  21.546  0.00  0.00    +0.000 C 
ATOM     17  C   UNL     1      -1.821  13.274  22.674  0.00  0.00    +0.000 C 
ENDBRANCH  10  11
BRANCH   1  21
ATOM     18  N   UNL     1       4.027  14.573  20.537  0.00  0.00    +0.000 N 
ATOM     19  C   UNL     1       2.887  14.106  19.902  0.00  0.00    +0.000 C 
ATOM     20  O   UNL     1       2.590  14.395  18.748  0.00  0.00    +0.000 OA
ATOM     21  N   UNL     1       2.145  13.185  20.651  0.00  0.00    +0.000 N 
ATOM     22  H   UNL     1       4.281  14.162  21.424  0.00  0.00    +0.000 HD
ATOM     23  H   UNL     1       2.599  12.668  21.384  0.00  0.00    +0.000 HD
BRANCH  18  27
ATOM     24  C   UNL     1       6.826  17.198  18.844  0.00  0.00    +0.000 A 
ATOM     25  N   UNL     1       5.747  17.715  19.463  0.00  0.00    +0.000 NA
ATOM     26  C   UNL     1       4.855  16.846  19.987  0.00  0.00    +0.000 A 
ATOM     27  C   UNL     1       4.964  15.457  19.929  0.00  0.00    +0.000 A 
ATOM     28  C   UNL     1       6.073  14.946  19.250  0.00  0.00    +0.000 A 
ATOM     29  C   UNL     1       7.020  15.826  18.697  0.00  0.00    +0.000 A 
ATOM     30 CL   UNL     1       8.393  15.178  17.878  0.00  0.00    +0.000 Cl
BRANCH  24  32
ATOM     31  C   UNL     1       8.738  18.430  19.381  0.00  0.00    +0.000 C 
ATOM     32  O   UNL     1       7.780  18.080  18.377  0.00  0.00    +0.000 OA
ENDBRANCH  24  32
ENDBRANCH  18  27
ENDBRANCH   1  21
BRANCH   7  33
ATOM     33  C   UNL     1      -4.715  11.259  18.073  0.00  0.00    +0.000 C 
ATOM     34  N   UNL     1      -5.862  11.387  17.945  0.00  0.00    +0.000 NA
ENDBRANCH   7  33
TORSDOF 5
ENDMDL
MODEL 9
REMARK VINA RESULT:      -6.2      3.634      4.493
REMARK  Name = 
REMARK  7 active torsions:
REMARK  status: ('A' for Active; 'I' for Inactive)
REMARK    1  A    between atoms: C_1  and  O_2
REMARK    2  A    between atoms: O_2  and  C_3
REMARK    3  A    between atoms: C_6  and  N_7
REMARK    4  A    between atoms: N_10  and  C_11
REMARK    5  A    between atoms: C_17  and  C_18
REMARK    6  A    between atoms: C_22  and  N_23
REMARK    7  A    between atoms: C_28  and  C_29
REMARK                            x       y       z     vdW  Elec       q    Type
REMARK                         _______ _______ _______ _____ _____    ______ ____
ROOT
ATOM      1  C   UNL     1      -1.615  11.430  18.007  0.00  0.00    +0.000 A 
ATOM      2  C   UNL     1      -2.280  11.008  16.855  0.00  0.00    +0.000 A 
ATOM      3  N   UNL     1      -3.590  11.146  16.630  0.00  0.00    +0.000 NA
ATOM      4  C   UNL     1      -4.326  11.663  17.589  0.00  0.00    +0.000 A 
ATOM      5  C   UNL     1      -5.675  11.765  17.271  0.00  0.00    +0.000 A 
ATOM      6  C   UNL     1      -6.620  12.241  18.165  0.00  0.00    +0.000 A 
ATOM      7  C   UNL     1      -6.207  12.597  19.438  0.00  0.00    +0.000 A 
ATOM      8  C   UNL     1      -4.844  12.500  19.777  0.00  0.00    +0.000 A 
ATOM      9  C   UNL     1      -3.821  12.092  18.859  0.00  0.00    +0.000 A 
ATOM     10  C   UNL     1      -2.358  12.032  19.069  0.00  0.00    +0.000 A 
ENDROOT
BRANCH  10  11
ATOM     11  N   UNL     1      -1.682  12.623  20.176  0.00  0.00    +0.000 N 
ATOM     12  C   UNL     1      -2.035  14.041  20.511  0.00  0.00    +0.000 C 
ATOM     13  C   UNL     1      -0.884  14.758  21.225  0.00  0.00    +0.000 C 
ATOM     14  O   UNL     1      -0.519  14.072  22.428  0.00  0.00    +0.000 OA
ATOM     15  C   UNL     1      -0.160  12.722  22.128  0.00  0.00    +0.000 C 
ATOM     16  C   UNL     1      -1.342  11.930  21.482  0.00  0.00    +0.000 C 
ATOM     17  C   UNL     1      -0.901  10.483  21.467  0.00  0.00    +0.000 C 
ENDBRANCH  10  11
BRANCH   1  21
ATOM     18  N   UNL     1       1.622   9.817  18.308  0.00  0.00    +0.000 N 
ATOM     19  C   UNL     1       0.270   9.937  18.027  0.00  0.00    +0.000 C 
ATOM     20  O   UNL     1      -0.480   8.976  17.891  0.00  0.00    +0.000 OA
ATOM     21  N   UNL     1      -0.202  11.255  18.013  0.00  0.00    +0.000 N 
ATOM     22  H   UNL     1       2.131  10.650  18.564  0.00  0.00    +0.000 HD
ATOM     23  H   UNL     1       0.306  11.965  18.514  0.00  0.00    +0.000 HD
BRANCH  18  27
ATOM     24  C   UNL     1       3.505   6.087  18.684  0.00  0.00    +0.000 A 
ATOM     25  N   UNL     1       2.676   6.495  19.665  0.00  0.00    +0.000 NA
ATOM     26  C   UNL     1       2.094   7.706  19.523  0.00  0.00    +0.000 A 
ATOM     27  C   UNL     1       2.292   8.568  18.445  0.00  0.00    +0.000 A 
ATOM     28  C   UNL     1       3.185   8.137  17.459  0.00  0.00    +0.000 A 
ATOM     29  C   UNL     1       3.803   6.880  17.577  0.00  0.00    +0.000 A 
ATOM     30 CL   UNL     1       4.886   6.356  16.341  0.00  0.00    +0.000 Cl
BRANCH  24  32
ATOM     31  C   UNL     1       3.150   3.901  19.429  0.00  0.00    +0.000 C 
ATOM     32  O   UNL     1       4.038   4.818  18.783  0.00  0.00    +0.000 OA
ENDBRANCH  24  32
ENDBRANCH  18  27
ENDBRANCH   1  21
BRANCH   7  33
ATOM     33  C   UNL     1      -7.157  13.106  20.384  0.00  0.00    +0.000 C 
ATOM     34  N   UNL     1      -7.916  13.517  21.161  0.00  0.00    +0.000 NA
ENDBRANCH   7  33
TORSDOF 5
ENDMDL
