MODEL 1
REMARK VINA RESULT:      -8.5      0.000      0.000
REMARK  Name = 
REMARK  11 active torsions:
REMARK  status: ('A' for Active; 'I' for Inactive)
REMARK    1  A    between atoms: C_1  and  O_2
REMARK    2  A    between atoms: O_2  and  C_3
REMARK    3  A    between atoms: C_5  and  C_6
REMARK    4  A    between atoms: C_7  and  C_8
REMARK    5  A    between atoms: C_10  and  C_11
REMARK    6  A    between atoms: C_12  and  C_13
REMARK    7  A    between atoms: C_16  and  O_17
REMARK    8  A    between atoms: C_18  and  O_19
REMARK    9  A    between atoms: O_19  and  C_20
REMARK   10  A    between atoms: C_23  and  C_25
REMARK   11  A    between atoms: C_30  and  O_31
REMARK                            x       y       z     vdW  Elec       q    Type
REMARK                         _______ _______ _______ _____ _____    ______ ____
ROOT
ATOM      1  C   UNL     1       1.087   9.448  18.373  0.00  0.00    +0.000 A 
ATOM      2  C   UNL     1       1.099  10.208  19.561  0.00  0.00    +0.000 A 
ATOM      3  C   UNL     1      -0.082  10.921  19.582  0.00  0.00    +0.000 A 
ATOM      4  N   UNL     1      -0.775  10.528  18.431  0.00  0.00    +0.000 N 
ATOM      5  C   UNL     1      -2.047  10.924  17.963  0.00  0.00    +0.000 C 
ATOM      6  O   UNL     1      -2.525  12.001  18.301  0.00  0.00    +0.000 OA
ATOM      7  N   UNL     1      -0.059   9.611  17.707  0.00  0.00    +0.000 NA
ENDROOT
BRANCH   1   9
ATOM      8  C   UNL     1       2.285   7.279  18.253  0.00  0.00    +0.000 C 
ATOM      9  C   UNL     1       2.172   8.593  17.979  0.00  0.00    +0.000 C 
BRANCH   8  12
ATOM     10  C   UNL     1       5.720   6.262  16.973  0.00  0.00    +0.000 A 
ATOM     11  C   UNL     1       4.615   7.029  17.396  0.00  0.00    +0.000 A 
ATOM     12  C   UNL     1       3.429   6.436  17.856  0.00  0.00    +0.000 A 
ATOM     13  C   UNL     1       3.351   5.036  17.855  0.00  0.00    +0.000 A 
ATOM     14  C   UNL     1       4.434   4.261  17.438  0.00  0.00    +0.000 A 
ATOM     15  C   UNL     1       5.613   4.866  16.999  0.00  0.00    +0.000 A 
BRANCH  10  17
ATOM     16  C   UNL     1       7.613   7.598  17.573  0.00  0.00    +0.000 C 
ATOM     17  O   UNL     1       6.789   7.015  16.569  0.00  0.00    +0.000 OA
ENDBRANCH  10  17
BRANCH  15  18
ATOM     18  O   UNL     1       6.638   4.060  16.594  0.00  0.00    +0.000 OA
ATOM     19  H   UNL     1       6.541   3.866  15.647  0.00  0.00    +0.000 HD
ENDBRANCH  15  18
ENDBRANCH   8  12
ENDBRANCH   1   9
BRANCH   3  20
ATOM     20  C   UNL     1      -0.654  11.813  20.531  0.00  0.00    +0.000 C 
ATOM     21  C   UNL     1      -1.021  11.423  21.763  0.00  0.00    +0.000 C 
BRANCH  21  22
ATOM     22  C   UNL     1      -1.676  12.333  22.721  0.00  0.00    +0.000 A 
ATOM     23  C   UNL     1      -1.109  13.566  23.063  0.00  0.00    +0.000 A 
ATOM     24  C   UNL     1      -1.742  14.416  23.969  0.00  0.00    +0.000 A 
ATOM     25  C   UNL     1      -2.967  14.055  24.530  0.00  0.00    +0.000 A 
ATOM     26  C   UNL     1      -3.575  12.844  24.182  0.00  0.00    +0.000 A 
ATOM     27  C   UNL     1      -2.919  11.994  23.273  0.00  0.00    +0.000 A 
BRANCH  25  28
ATOM     28  O   UNL     1      -3.543  14.925  25.415  0.00  0.00    +0.000 OA
ATOM     29  H   UNL     1      -3.509  14.538  26.305  0.00  0.00    +0.000 HD
ENDBRANCH  25  28
BRANCH  26  30
ATOM     30  O   UNL     1      -4.771  12.339  24.619  0.00  0.00    +0.000 OA
ATOM     31  C   UNL     1      -5.955  12.790  23.976  0.00  0.00    +0.000 C 
ENDBRANCH  26  30
ENDBRANCH  21  22
ENDBRANCH   3  20
BRANCH   5  32
ATOM     32  C   UNL     1      -2.699   9.901  17.073  0.00  0.00    +0.000 C 
ATOM     33 CL   UNL     1      -2.685  10.493  15.386  0.00  0.00    +0.000 Cl
ENDBRANCH   5  32
TORSDOF 9
ENDMDL
MODEL 2
REMARK VINA RESULT:      -8.2      0.821      1.718
REMARK  Name = 
REMARK  11 active torsions:
REMARK  status: ('A' for Active; 'I' for Inactive)
REMARK    1  A    between atoms: C_1  and  O_2
REMARK    2  A    between atoms: O_2  and  C_3
REMARK    3  A    between atoms: C_5  and  C_6
REMARK    4  A    between atoms: C_7  and  C_8
REMARK    5  A    between atoms: C_10  and  C_11
REMARK    6  A    between atoms: C_12  and  C_13
REMARK    7  A    between atoms: C_16  and  O_17
REMARK    8  A    between atoms: C_18  and  O_19
REMARK    9  A    between atoms: O_19  and  C_20
REMARK   10  A    between atoms: C_23  and  C_25
REMARK   11  A    between atoms: C_30  and  O_31
REMARK                            x       y       z     vdW  Elec       q    Type
REMARK                         _______ _______ _______ _____ _____    ______ ____
ROOT
ATOM      1  C   UNL     1       1.094   9.383  18.681  0.00  0.00    +0.000 A 
ATOM      2  C   UNL     1       0.867  10.064  19.896  0.00  0.00    +0.000 A 
ATOM      3  C   UNL     1      -0.297  10.786  19.730  0.00  0.00    +0.000 A 
ATOM      4  N   UNL     1      -0.747  10.475  18.442  0.00  0.00    +0.000 N 
ATOM      5  C   UNL     1      -1.903  10.912  17.759  0.00  0.00    +0.000 C 
ATOM      6  O   UNL     1      -2.442  11.970  18.066  0.00  0.00    +0.000 OA
ATOM      7  N   UNL     1       0.101   9.600  17.814  0.00  0.00    +0.000 NA
ENDROOT
BRANCH   1   9
ATOM      8  C   UNL     1       2.224   7.319  17.898  0.00  0.00    +0.000 C 
ATOM      9  C   UNL     1       2.238   8.545  18.455  0.00  0.00    +0.000 C 
BRANCH   8  12
ATOM     10  C   UNL     1       4.513   4.281  17.934  0.00  0.00    +0.000 A 
ATOM     11  C   UNL     1       3.386   5.117  18.067  0.00  0.00    +0.000 A 
ATOM     12  C   UNL     1       3.417   6.473  17.705  0.00  0.00    +0.000 A 
ATOM     13  C   UNL     1       4.627   6.997  17.228  0.00  0.00    +0.000 A 
ATOM     14  C   UNL     1       5.753   6.184  17.090  0.00  0.00    +0.000 A 
ATOM     15  C   UNL     1       5.700   4.834  17.439  0.00  0.00    +0.000 A 
BRANCH  10  17
ATOM     16  C   UNL     1       4.339   2.696  19.720  0.00  0.00    +0.000 C 
ATOM     17  O   UNL     1       4.288   2.989  18.327  0.00  0.00    +0.000 OA
ENDBRANCH  10  17
BRANCH  15  18
ATOM     18  O   UNL     1       6.834   4.086  17.293  0.00  0.00    +0.000 OA
ATOM     19  H   UNL     1       7.102   3.735  18.158  0.00  0.00    +0.000 HD
ENDBRANCH  15  18
ENDBRANCH   8  12
ENDBRANCH   1   9
BRANCH   3  20
ATOM     20  C   UNL     1      -1.047  11.619  20.603  0.00  0.00    +0.000 C 
ATOM     21  C   UNL     1      -0.736  11.777  21.901  0.00  0.00    +0.000 C 
BRANCH  21  22
ATOM     22  C   UNL     1      -1.555  12.588  22.821  0.00  0.00    +0.000 A 
ATOM     23  C   UNL     1      -1.119  13.835  23.283  0.00  0.00    +0.000 A 
ATOM     24  C   UNL     1      -1.907  14.591  24.151  0.00  0.00    +0.000 A 
ATOM     25  C   UNL     1      -3.156  14.119  24.553  0.00  0.00    +0.000 A 
ATOM     26  C   UNL     1      -3.634  12.891  24.081  0.00  0.00    +0.000 A 
ATOM     27  C   UNL     1      -2.823  12.137  23.213  0.00  0.00    +0.000 A 
BRANCH  25  28
ATOM     28  O   UNL     1      -3.886  14.899  25.408  0.00  0.00    +0.000 OA
ATOM     29  H   UNL     1      -3.702  15.833  25.217  0.00  0.00    +0.000 HD
ENDBRANCH  25  28
BRANCH  26  30
ATOM     30  O   UNL     1      -4.831  12.284  24.357  0.00  0.00    +0.000 OA
ATOM     31  C   UNL     1      -6.000  12.820  23.751  0.00  0.00    +0.000 C 
ENDBRANCH  26  30
ENDBRANCH  21  22
ENDBRANCH   3  20
BRANCH   5  32
ATOM     32  C   UNL     1      -2.363   9.956  16.692  0.00  0.00    +0.000 C 
ATOM     33 CL   UNL     1      -2.963  10.884  15.287  0.00  0.00    +0.000 Cl
ENDBRANCH   5  32
TORSDOF 9
ENDMDL
MODEL 3
REMARK VINA RESULT:      -8.0      0.696      1.688
REMARK  Name = 
REMARK  11 active torsions:
REMARK  status: ('A' for Active; 'I' for Inactive)
REMARK    1  A    between atoms: C_1  and  O_2
REMARK    2  A    between atoms: O_2  and  C_3
REMARK    3  A    between atoms: C_5  and  C_6
REMARK    4  A    between atoms: C_7  and  C_8
REMARK    5  A    between atoms: C_10  and  C_11
REMARK    6  A    between atoms: C_12  and  C_13
REMARK    7  A    between atoms: C_16  and  O_17
REMARK    8  A    between atoms: C_18  and  O_19
REMARK    9  A    between atoms: O_19  and  C_20
REMARK   10  A    between atoms: C_23  and  C_25
REMARK   11  A    between atoms: C_30  and  O_31
REMARK                            x       y       z     vdW  Elec       q    Type
REMARK                         _______ _______ _______ _____ _____    ______ ____
ROOT
ATOM      1  C   UNL     1       1.063   9.477  18.575  0.00  0.00    +0.000 A 
ATOM      2  C   UNL     1       0.939  10.230  19.761  0.00  0.00    +0.000 A 
ATOM      3  C   UNL     1      -0.245  10.931  19.660  0.00  0.00    +0.000 A 
ATOM      4  N   UNL     1      -0.807  10.537  18.441  0.00  0.00    +0.000 N 
ATOM      5  C   UNL     1      -2.027  10.921  17.842  0.00  0.00    +0.000 C 
ATOM      6  O   UNL     1      -2.551  11.991  18.133  0.00  0.00    +0.000 OA
ATOM      7  N   UNL     1      -0.008   9.632  17.792  0.00  0.00    +0.000 NA
ENDROOT
BRANCH   1   9
ATOM      8  C   UNL     1       2.170   7.297  18.160  0.00  0.00    +0.000 C 
ATOM      9  C   UNL     1       2.193   8.636  18.295  0.00  0.00    +0.000 C 
BRANCH   8  12
ATOM     10  C   UNL     1       5.672   6.273  17.084  0.00  0.00    +0.000 A 
ATOM     11  C   UNL     1       4.526   7.039  17.382  0.00  0.00    +0.000 A 
ATOM     12  C   UNL     1       3.357   6.460  17.899  0.00  0.00    +0.000 A 
ATOM     13  C   UNL     1       3.340   5.071  18.087  0.00  0.00    +0.000 A 
ATOM     14  C   UNL     1       4.464   4.297  17.796  0.00  0.00    +0.000 A 
ATOM     15  C   UNL     1       5.625   4.890  17.298  0.00  0.00    +0.000 A 
BRANCH  10  17
ATOM     16  C   UNL     1       7.647   7.550  17.533  0.00  0.00    +0.000 C 
ATOM     17  O   UNL     1       6.716   7.013  16.598  0.00  0.00    +0.000 OA
ENDBRANCH  10  17
BRANCH  15  18
ATOM     18  O   UNL     1       6.692   4.084  17.022  0.00  0.00    +0.000 OA
ATOM     19  H   UNL     1       7.487   4.445  17.449  0.00  0.00    +0.000 HD
ENDBRANCH  15  18
ENDBRANCH   8  12
ENDBRANCH   1   9
BRANCH   3  20
ATOM     20  C   UNL     1      -0.924  11.810  20.547  0.00  0.00    +0.000 C 
ATOM     21  C   UNL     1      -0.956  11.617  21.876  0.00  0.00    +0.000 C 
BRANCH  21  22
ATOM     22  C   UNL     1      -1.718  12.492  22.787  0.00  0.00    +0.000 A 
ATOM     23  C   UNL     1      -2.987  12.132  23.255  0.00  0.00    +0.000 A 
ATOM     24  C   UNL     1      -3.694  12.969  24.118  0.00  0.00    +0.000 A 
ATOM     25  C   UNL     1      -3.130  14.171  24.545  0.00  0.00    +0.000 A 
ATOM     26  C   UNL     1      -1.850  14.543  24.121  0.00  0.00    +0.000 A 
ATOM     27  C   UNL     1      -1.154  13.691  23.244  0.00  0.00    +0.000 A 
BRANCH  25  28
ATOM     28  O   UNL     1      -3.868  14.956  25.389  0.00  0.00    +0.000 OA
ATOM     29  H   UNL     1      -3.518  15.861  25.365  0.00  0.00    +0.000 HD
ENDBRANCH  25  28
BRANCH  26  30
ATOM     30  O   UNL     1      -1.141  15.669  24.448  0.00  0.00    +0.000 OA
ATOM     31  C   UNL     1      -0.800  15.864  25.813  0.00  0.00    +0.000 C 
ENDBRANCH  26  30
ENDBRANCH  21  22
ENDBRANCH   3  20
BRANCH   5  32
ATOM     32  C   UNL     1      -2.569   9.897  16.883  0.00  0.00    +0.000 C 
ATOM     33 CL   UNL     1      -2.721  10.631  15.260  0.00  0.00    +0.000 Cl
ENDBRANCH   5  32
TORSDOF 9
ENDMDL
MODEL 4
REMARK VINA RESULT:      -8.0      0.876      1.038
REMARK  Name = 
REMARK  11 active torsions:
REMARK  status: ('A' for Active; 'I' for Inactive)
REMARK    1  A    between atoms: C_1  and  O_2
REMARK    2  A    between atoms: O_2  and  C_3
REMARK    3  A    between atoms: C_5  and  C_6
REMARK    4  A    between atoms: C_7  and  C_8
REMARK    5  A    between atoms: C_10  and  C_11
REMARK    6  A    between atoms: C_12  and  C_13
REMARK    7  A    between atoms: C_16  and  O_17
REMARK    8  A    between atoms: C_18  and  O_19
REMARK    9  A    between atoms: O_19  and  C_20
REMARK   10  A    between atoms: C_23  and  C_25
REMARK   11  A    between atoms: C_30  and  O_31
REMARK                            x       y       z     vdW  Elec       q    Type
REMARK                         _______ _______ _______ _____ _____    ______ ____
ROOT
ATOM      1  C   UNL     1       1.044   9.252  18.551  0.00  0.00    +0.000 A 
ATOM      2  C   UNL     1       0.773   9.811  19.817  0.00  0.00    +0.000 A 
ATOM      3  C   UNL     1      -0.363  10.582  19.672  0.00  0.00    +0.000 A 
ATOM      4  N   UNL     1      -0.754  10.419  18.338  0.00  0.00    +0.000 N 
ATOM      5  C   UNL     1      -1.862  10.960  17.649  0.00  0.00    +0.000 C 
ATOM      6  O   UNL     1      -2.389  11.997  18.038  0.00  0.00    +0.000 OA
ATOM      7  N   UNL     1       0.102   9.588  17.664  0.00  0.00    +0.000 NA
ENDROOT
BRANCH   1   9
ATOM      8  C   UNL     1       2.470   7.259  18.933  0.00  0.00    +0.000 C 
ATOM      9  C   UNL     1       2.176   8.407  18.293  0.00  0.00    +0.000 C 
BRANCH   8  12
ATOM     10  C   UNL     1       5.512   5.820  17.159  0.00  0.00    +0.000 A 
ATOM     11  C   UNL     1       4.391   6.615  17.478  0.00  0.00    +0.000 A 
ATOM     12  C   UNL     1       3.659   6.429  18.661  0.00  0.00    +0.000 A 
ATOM     13  C   UNL     1       4.053   5.395  19.522  0.00  0.00    +0.000 A 
ATOM     14  C   UNL     1       5.158   4.598  19.222  0.00  0.00    +0.000 A 
ATOM     15  C   UNL     1       5.886   4.807  18.050  0.00  0.00    +0.000 A 
BRANCH  10  17
ATOM     16  C   UNL     1       5.998   5.236  14.889  0.00  0.00    +0.000 C 
ATOM     17  O   UNL     1       6.102   6.156  15.971  0.00  0.00    +0.000 OA
ENDBRANCH  10  17
BRANCH  15  18
ATOM     18  O   UNL     1       6.955   3.992  17.802  0.00  0.00    +0.000 OA
ATOM     19  H   UNL     1       7.527   4.406  17.135  0.00  0.00    +0.000 HD
ENDBRANCH  15  18
ENDBRANCH   8  12
ENDBRANCH   1   9
BRANCH   3  20
ATOM     20  C   UNL     1      -1.135  11.344  20.590  0.00  0.00    +0.000 C 
ATOM     21  C   UNL     1      -0.601  11.935  21.672  0.00  0.00    +0.000 C 
BRANCH  21  22
ATOM     22  C   UNL     1      -1.415  12.667  22.660  0.00  0.00    +0.000 A 
ATOM     23  C   UNL     1      -0.972  13.868  23.227  0.00  0.00    +0.000 A 
ATOM     24  C   UNL     1      -1.755  14.550  24.158  0.00  0.00    +0.000 A 
ATOM     25  C   UNL     1      -3.006  14.051  24.520  0.00  0.00    +0.000 A 
ATOM     26  C   UNL     1      -3.491  12.870  23.945  0.00  0.00    +0.000 A 
ATOM     27  C   UNL     1      -2.685  12.191  23.014  0.00  0.00    +0.000 A 
BRANCH  25  28
ATOM     28  O   UNL     1      -3.731  14.758  25.440  0.00  0.00    +0.000 OA
ATOM     29  H   UNL     1      -3.672  15.704  25.229  0.00  0.00    +0.000 HD
ENDBRANCH  25  28
BRANCH  26  30
ATOM     30  O   UNL     1      -4.690  12.248  24.170  0.00  0.00    +0.000 OA
ATOM     31  C   UNL     1      -5.858  12.844  23.622  0.00  0.00    +0.000 C 
ENDBRANCH  26  30
ENDBRANCH  21  22
ENDBRANCH   3  20
BRANCH   5  32
ATOM     32  C   UNL     1      -2.291  10.133  16.468  0.00  0.00    +0.000 C 
ATOM     33 CL   UNL     1      -3.685  10.920  15.673  0.00  0.00    +0.000 Cl
ENDBRANCH   5  32
TORSDOF 9
ENDMDL
MODEL 5
REMARK VINA RESULT:      -8.0      1.897      2.191
REMARK  Name = 
REMARK  11 active torsions:
REMARK  status: ('A' for Active; 'I' for Inactive)
REMARK    1  A    between atoms: C_1  and  O_2
REMARK    2  A    between atoms: O_2  and  C_3
REMARK    3  A    between atoms: C_5  and  C_6
REMARK    4  A    between atoms: C_7  and  C_8
REMARK    5  A    between atoms: C_10  and  C_11
REMARK    6  A    between atoms: C_12  and  C_13
REMARK    7  A    between atoms: C_16  and  O_17
REMARK    8  A    between atoms: C_18  and  O_19
REMARK    9  A    between atoms: O_19  and  C_20
REMARK   10  A    between atoms: C_23  and  C_25
REMARK   11  A    between atoms: C_30  and  O_31
REMARK                            x       y       z     vdW  Elec       q    Type
REMARK                         _______ _______ _______ _____ _____    ______ ____
ROOT
ATOM      1  C   UNL     1       1.292   8.671  19.904  0.00  0.00    +0.000 A 
ATOM      2  C   UNL     1       1.073   9.375  21.107  0.00  0.00    +0.000 A 
ATOM      3  C   UNL     1       0.279  10.457  20.789  0.00  0.00    +0.000 A 
ATOM      4  N   UNL     1       0.016  10.336  19.420  0.00  0.00    +0.000 N 
ATOM      5  C   UNL     1      -0.764  11.154  18.574  0.00  0.00    +0.000 C 
ATOM      6  O   UNL     1      -0.964  12.330  18.859  0.00  0.00    +0.000 OA
ATOM      7  N   UNL     1       0.624   9.228  18.890  0.00  0.00    +0.000 NA
ENDROOT
BRANCH   1   9
ATOM      8  C   UNL     1       1.791   6.275  20.312  0.00  0.00    +0.000 C 
ATOM      9  C   UNL     1       2.106   7.490  19.824  0.00  0.00    +0.000 C 
BRANCH   8  12
ATOM     10  C   UNL     1       4.744   4.044  19.434  0.00  0.00    +0.000 A 
ATOM     11  C   UNL     1       3.894   5.162  19.562  0.00  0.00    +0.000 A 
ATOM     12  C   UNL     1       2.665   5.089  20.236  0.00  0.00    +0.000 A 
ATOM     13  C   UNL     1       2.277   3.849  20.762  0.00  0.00    +0.000 A 
ATOM     14  C   UNL     1       3.105   2.732  20.644  0.00  0.00    +0.000 A 
ATOM     15  C   UNL     1       4.332   2.825  19.985  0.00  0.00    +0.000 A 
BRANCH  10  17
ATOM     16  C   UNL     1       6.740   5.353  19.244  0.00  0.00    +0.000 C 
ATOM     17  O   UNL     1       5.902   4.311  18.754  0.00  0.00    +0.000 OA
ENDBRANCH  10  17
BRANCH  15  18
ATOM     18  O   UNL     1       5.099   1.699  19.891  0.00  0.00    +0.000 OA
ATOM     19  H   UNL     1       5.882   1.887  19.347  0.00  0.00    +0.000 HD
ENDBRANCH  15  18
ENDBRANCH   8  12
ENDBRANCH   1   9
BRANCH   3  20
ATOM     20  C   UNL     1      -0.303  11.490  21.573  0.00  0.00    +0.000 C 
ATOM     21  C   UNL     1      -1.332  11.272  22.410  0.00  0.00    +0.000 C 
BRANCH  21  22
ATOM     22  C   UNL     1      -1.979  12.357  23.171  0.00  0.00    +0.000 A 
ATOM     23  C   UNL     1      -1.305  13.550  23.461  0.00  0.00    +0.000 A 
ATOM     24  C   UNL     1      -1.931  14.567  24.180  0.00  0.00    +0.000 A 
ATOM     25  C   UNL     1      -3.252  14.416  24.601  0.00  0.00    +0.000 A 
ATOM     26  C   UNL     1      -3.963  13.249  24.298  0.00  0.00    +0.000 A 
ATOM     27  C   UNL     1      -3.313  12.229  23.579  0.00  0.00    +0.000 A 
BRANCH  25  28
ATOM     28  O   UNL     1      -3.817  15.444  25.306  0.00  0.00    +0.000 OA
ATOM     29  H   UNL     1      -4.000  15.143  26.211  0.00  0.00    +0.000 HD
ENDBRANCH  25  28
BRANCH  26  30
ATOM     30  O   UNL     1      -5.259  12.939  24.615  0.00  0.00    +0.000 OA
ATOM     31  C   UNL     1      -6.215  12.932  23.564  0.00  0.00    +0.000 C 
ENDBRANCH  26  30
ENDBRANCH  21  22
ENDBRANCH   3  20
BRANCH   5  32
ATOM     32  C   UNL     1      -1.299  10.429  17.369  0.00  0.00    +0.000 C 
ATOM     33 CL   UNL     1      -2.899   9.734  17.761  0.00  0.00    +0.000 Cl
ENDBRANCH   5  32
TORSDOF 9
ENDMDL
MODEL 6
REMARK VINA RESULT:      -7.9      1.076      2.457
REMARK  Name = 
REMARK  11 active torsions:
REMARK  status: ('A' for Active; 'I' for Inactive)
REMARK    1  A    between atoms: C_1  and  O_2
REMARK    2  A    between atoms: O_2  and  C_3
REMARK    3  A    between atoms: C_5  and  C_6
REMARK    4  A    between atoms: C_7  and  C_8
REMARK    5  A    between atoms: C_10  and  C_11
REMARK    6  A    between atoms: C_12  and  C_13
REMARK    7  A    between atoms: C_16  and  O_17
REMARK    8  A    between atoms: C_18  and  O_19
REMARK    9  A    between atoms: O_19  and  C_20
REMARK   10  A    between atoms: C_23  and  C_25
REMARK   11  A    between atoms: C_30  and  O_31
REMARK                            x       y       z     vdW  Elec       q    Type
REMARK                         _______ _______ _______ _____ _____    ______ ____
ROOT
ATOM      1  C   UNL     1       0.887   9.389  18.362  0.00  0.00    +0.000 A 
ATOM      2  C   UNL     1       0.781  10.122  19.562  0.00  0.00    +0.000 A 
ATOM      3  C   UNL     1      -0.410  10.816  19.493  0.00  0.00    +0.000 A 
ATOM      4  N   UNL     1      -0.991  10.438  18.278  0.00  0.00    +0.000 N 
ATOM      5  C   UNL     1      -2.224  10.824  17.708  0.00  0.00    +0.000 C 
ATOM      6  O   UNL     1      -2.749  11.886  18.024  0.00  0.00    +0.000 OA
ATOM      7  N   UNL     1      -0.199   9.549  17.601  0.00  0.00    +0.000 NA
ENDROOT
BRANCH   1   9
ATOM      8  C   UNL     1       2.093   7.226  18.216  0.00  0.00    +0.000 C 
ATOM      9  C   UNL     1       2.017   8.560  18.048  0.00  0.00    +0.000 C 
BRANCH   8  12
ATOM     10  C   UNL     1       4.433   4.235  17.998  0.00  0.00    +0.000 A 
ATOM     11  C   UNL     1       3.305   5.046  18.242  0.00  0.00    +0.000 A 
ATOM     12  C   UNL     1       3.282   6.408  17.908  0.00  0.00    +0.000 A 
ATOM     13  C   UNL     1       4.437   6.967  17.345  0.00  0.00    +0.000 A 
ATOM     14  C   UNL     1       5.564   6.180  17.098  0.00  0.00    +0.000 A 
ATOM     15  C   UNL     1       5.565   4.822  17.420  0.00  0.00    +0.000 A 
BRANCH  10  17
ATOM     16  C   UNL     1       4.351   2.626  19.770  0.00  0.00    +0.000 C 
ATOM     17  O   UNL     1       4.266   2.932  18.381  0.00  0.00    +0.000 OA
ENDBRANCH  10  17
BRANCH  15  18
ATOM     18  O   UNL     1       6.697   4.101  17.165  0.00  0.00    +0.000 OA
ATOM     19  H   UNL     1       6.456   3.178  16.982  0.00  0.00    +0.000 HD
ENDBRANCH  15  18
ENDBRANCH   8  12
ENDBRANCH   1   9
BRANCH   3  20
ATOM     20  C   UNL     1      -1.078  11.678  20.406  0.00  0.00    +0.000 C 
ATOM     21  C   UNL     1      -0.781  11.717  21.716  0.00  0.00    +0.000 C 
BRANCH  21  22
ATOM     22  C   UNL     1      -1.522  12.560  22.672  0.00  0.00    +0.000 A 
ATOM     23  C   UNL     1      -2.840  12.265  23.040  0.00  0.00    +0.000 A 
ATOM     24  C   UNL     1      -3.526  13.071  23.947  0.00  0.00    +0.000 A 
ATOM     25  C   UNL     1      -2.894  14.174  24.520  0.00  0.00    +0.000 A 
ATOM     26  C   UNL     1      -1.566  14.476  24.199  0.00  0.00    +0.000 A 
ATOM     27  C   UNL     1      -0.891  13.658  23.275  0.00  0.00    +0.000 A 
BRANCH  25  28
ATOM     28  O   UNL     1      -3.614  14.933  25.403  0.00  0.00    +0.000 OA
ATOM     29  H   UNL     1      -3.991  15.693  24.930  0.00  0.00    +0.000 HD
ENDBRANCH  25  28
BRANCH  26  30
ATOM     30  O   UNL     1      -0.791  15.502  24.671  0.00  0.00    +0.000 OA
ATOM     31  C   UNL     1      -0.182  16.364  23.721  0.00  0.00    +0.000 C 
ENDBRANCH  26  30
ENDBRANCH  21  22
ENDBRANCH   3  20
BRANCH   5  32
ATOM     32  C   UNL     1      -2.778   9.811  16.742  0.00  0.00    +0.000 C 
ATOM     33 CL   UNL     1      -2.762  10.500  15.092  0.00  0.00    +0.000 Cl
ENDBRANCH   5  32
TORSDOF 9
ENDMDL
MODEL 7
REMARK VINA RESULT:      -7.7      1.889      2.739
REMARK  Name = 
REMARK  11 active torsions:
REMARK  status: ('A' for Active; 'I' for Inactive)
REMARK    1  A    between atoms: C_1  and  O_2
REMARK    2  A    between atoms: O_2  and  C_3
REMARK    3  A    between atoms: C_5  and  C_6
REMARK    4  A    between atoms: C_7  and  C_8
REMARK    5  A    between atoms: C_10  and  C_11
REMARK    6  A    between atoms: C_12  and  C_13
REMARK    7  A    between atoms: C_16  and  O_17
REMARK    8  A    between atoms: C_18  and  O_19
REMARK    9  A    between atoms: O_19  and  C_20
REMARK   10  A    between atoms: C_23  and  C_25
REMARK   11  A    between atoms: C_30  and  O_31
REMARK                            x       y       z     vdW  Elec       q    Type
REMARK                         _______ _______ _______ _____ _____    ______ ____
ROOT
ATOM      1  C   UNL     1       1.149   8.684  20.564  0.00  0.00    +0.000 A 
ATOM      2  C   UNL     1       0.857   9.452  21.711  0.00  0.00    +0.000 A 
ATOM      3  C   UNL     1       0.158  10.558  21.274  0.00  0.00    +0.000 A 
ATOM      4  N   UNL     1       0.018  10.388  19.892  0.00  0.00    +0.000 N 
ATOM      5  C   UNL     1      -0.633  11.207  18.943  0.00  0.00    +0.000 C 
ATOM      6  O   UNL     1      -0.793  12.403  19.160  0.00  0.00    +0.000 OA
ATOM      7  N   UNL     1       0.611   9.228  19.469  0.00  0.00    +0.000 NA
ENDROOT
BRANCH   1   9
ATOM      8  C   UNL     1       2.286   6.726  19.550  0.00  0.00    +0.000 C 
ATOM      9  C   UNL     1       1.900   7.460  20.611  0.00  0.00    +0.000 C 
BRANCH   8  12
ATOM     10  C   UNL     1       5.108   4.195  19.230  0.00  0.00    +0.000 A 
ATOM     11  C   UNL     1       4.366   5.394  19.199  0.00  0.00    +0.000 A 
ATOM     12  C   UNL     1       3.034   5.457  19.636  0.00  0.00    +0.000 A 
ATOM     13  C   UNL     1       2.433   4.273  20.084  0.00  0.00    +0.000 A 
ATOM     14  C   UNL     1       3.150   3.077  20.120  0.00  0.00    +0.000 A 
ATOM     15  C   UNL     1       4.480   3.034  19.698  0.00  0.00    +0.000 A 
BRANCH  10  17
ATOM     16  C   UNL     1       6.584   4.613  17.392  0.00  0.00    +0.000 C 
ATOM     17  O   UNL     1       6.391   4.331  18.775  0.00  0.00    +0.000 OA
ENDBRANCH  10  17
BRANCH  15  18
ATOM     18  O   UNL     1       5.133   1.835  19.747  0.00  0.00    +0.000 OA
ATOM     19  H   UNL     1       6.060   1.962  19.486  0.00  0.00    +0.000 HD
ENDBRANCH  15  18
ENDBRANCH   8  12
ENDBRANCH   1   9
BRANCH   3  20
ATOM     20  C   UNL     1      -0.437  11.654  21.957  0.00  0.00    +0.000 C 
ATOM     21  C   UNL     1      -1.545  11.527  22.705  0.00  0.00    +0.000 C 
BRANCH  21  22
ATOM     22  C   UNL     1      -2.199  12.677  23.357  0.00  0.00    +0.000 A 
ATOM     23  C   UNL     1      -3.555  12.647  23.705  0.00  0.00    +0.000 A 
ATOM     24  C   UNL     1      -4.159  13.741  24.323  0.00  0.00    +0.000 A 
ATOM     25  C   UNL     1      -3.408  14.877  24.623  0.00  0.00    +0.000 A 
ATOM     26  C   UNL     1      -2.043  14.925  24.317  0.00  0.00    +0.000 A 
ATOM     27  C   UNL     1      -1.452  13.816  23.686  0.00  0.00    +0.000 A 
BRANCH  25  28
ATOM     28  O   UNL     1      -4.051  15.924  25.226  0.00  0.00    +0.000 OA
ATOM     29  H   UNL     1      -4.735  16.262  24.626  0.00  0.00    +0.000 HD
ENDBRANCH  25  28
BRANCH  26  30
ATOM     30  O   UNL     1      -1.157  15.944  24.550  0.00  0.00    +0.000 OA
ATOM     31  C   UNL     1      -0.922  16.871  23.499  0.00  0.00    +0.000 C 
ENDBRANCH  26  30
ENDBRANCH  21  22
ENDBRANCH   3  20
BRANCH   5  32
ATOM     32  C   UNL     1      -1.092  10.455  17.723  0.00  0.00    +0.000 C 
ATOM     33 CL   UNL     1      -2.538  11.259  17.045  0.00  0.00    +0.000 Cl
ENDBRANCH   5  32
TORSDOF 9
ENDMDL
MODEL 8
REMARK VINA RESULT:      -7.6      3.731     11.639
REMARK  Name = 
REMARK  11 active torsions:
REMARK  status: ('A' for Active; 'I' for Inactive)
REMARK    1  A    between atoms: C_1  and  O_2
REMARK    2  A    between atoms: O_2  and  C_3
REMARK    3  A    between atoms: C_5  and  C_6
REMARK    4  A    between atoms: C_7  and  C_8
REMARK    5  A    between atoms: C_10  and  C_11
REMARK    6  A    between atoms: C_12  and  C_13
REMARK    7  A    between atoms: C_16  and  O_17
REMARK    8  A    between atoms: C_18  and  O_19
REMARK    9  A    between atoms: O_19  and  C_20
REMARK   10  A    between atoms: C_23  and  C_25
REMARK   11  A    between atoms: C_30  and  O_31
REMARK                            x       y       z     vdW  Elec       q    Type
REMARK                         _______ _______ _______ _____ _____    ______ ____
ROOT
ATOM      1  C   UNL     1       2.505   6.909  19.348  0.00  0.00    +0.000 A 
ATOM      2  C   UNL     1       3.058   6.891  18.050  0.00  0.00    +0.000 A 
ATOM      3  C   UNL     1       3.656   5.657  17.896  0.00  0.00    +0.000 A 
ATOM      4  N   UNL     1       3.399   4.967  19.086  0.00  0.00    +0.000 N 
ATOM      5  C   UNL     1       3.756   3.655  19.464  0.00  0.00    +0.000 C 
ATOM      6  O   UNL     1       4.719   3.100  18.947  0.00  0.00    +0.000 OA
ATOM      7  N   UNL     1       2.676   5.735  19.962  0.00  0.00    +0.000 NA
ENDROOT
BRANCH   1   9
ATOM      8  C   UNL     1       1.218   8.111  21.095  0.00  0.00    +0.000 C 
ATOM      9  C   UNL     1       1.820   8.048  19.892  0.00  0.00    +0.000 C 
BRANCH   8  12
ATOM     10  C   UNL     1       0.079  11.715  21.524  0.00  0.00    +0.000 A 
ATOM     11  C   UNL     1       0.717  10.554  21.040  0.00  0.00    +0.000 A 
ATOM     12  C   UNL     1       0.499   9.291  21.611  0.00  0.00    +0.000 A 
ATOM     13  C   UNL     1      -0.360   9.209  22.716  0.00  0.00    +0.000 A 
ATOM     14  C   UNL     1      -0.999  10.348  23.210  0.00  0.00    +0.000 A 
ATOM     15  C   UNL     1      -0.784  11.594  22.620  0.00  0.00    +0.000 A 
BRANCH  10  17
ATOM     16  C   UNL     1       1.653  12.877  20.144  0.00  0.00    +0.000 C 
ATOM     17  O   UNL     1       0.408  12.850  20.834  0.00  0.00    +0.000 OA
ENDBRANCH  10  17
BRANCH  15  18
ATOM     18  O   UNL     1      -1.428  12.676  23.148  0.00  0.00    +0.000 OA
ATOM     19  H   UNL     1      -1.004  12.928  23.985  0.00  0.00    +0.000 HD
ENDBRANCH  15  18
ENDBRANCH   8  12
ENDBRANCH   1   9
BRANCH   3  20
ATOM     20  C   UNL     1       4.329   5.041  16.805  0.00  0.00    +0.000 C 
ATOM     21  C   UNL     1       5.101   5.729  15.947  0.00  0.00    +0.000 C 
BRANCH  21  22
ATOM     22  C   UNL     1       5.742   5.102  14.778  0.00  0.00    +0.000 A 
ATOM     23  C   UNL     1       7.089   5.329  14.472  0.00  0.00    +0.000 A 
ATOM     24  C   UNL     1       7.682   4.726  13.363  0.00  0.00    +0.000 A 
ATOM     25  C   UNL     1       6.941   3.866  12.555  0.00  0.00    +0.000 A 
ATOM     26  C   UNL     1       5.601   3.592  12.853  0.00  0.00    +0.000 A 
ATOM     27  C   UNL     1       5.016   4.215  13.970  0.00  0.00    +0.000 A 
BRANCH  25  28
ATOM     28  O   UNL     1       7.571   3.303  11.478  0.00  0.00    +0.000 OA
ATOM     29  H   UNL     1       8.459   3.018  11.747  0.00  0.00    +0.000 HD
ENDBRANCH  25  28
BRANCH  26  30
ATOM     30  O   UNL     1       4.734   2.769  12.184  0.00  0.00    +0.000 OA
ATOM     31  C   UNL     1       3.977   3.329  11.120  0.00  0.00    +0.000 C 
ENDBRANCH  26  30
ENDBRANCH  21  22
ENDBRANCH   3  20
BRANCH   5  32
ATOM     32  C   UNL     1       2.841   3.063  20.502  0.00  0.00    +0.000 C 
ATOM     33 CL   UNL     1       1.304   2.582  19.727  0.00  0.00    +0.000 Cl
ENDBRANCH   5  32
TORSDOF 9
ENDMDL
MODEL 9
REMARK VINA RESULT:      -7.6      2.942      4.001
REMARK  Name = 
REMARK  11 active torsions:
REMARK  status: ('A' for Active; 'I' for Inactive)
REMARK    1  A    between atoms: C_1  and  O_2
REMARK    2  A    between atoms: O_2  and  C_3
REMARK    3  A    between atoms: C_5  and  C_6
REMARK    4  A    between atoms: C_7  and  C_8
REMARK    5  A    between atoms: C_10  and  C_11
REMARK    6  A    between atoms: C_12  and  C_13
REMARK    7  A    between atoms: C_16  and  O_17
REMARK    8  A    between atoms: C_18  and  O_19
REMARK    9  A    between atoms: O_19  and  C_20
REMARK   10  A    between atoms: C_23  and  C_25
REMARK   11  A    between atoms: C_30  and  O_31
REMARK                            x       y       z     vdW  Elec       q    Type
REMARK                         _______ _______ _______ _____ _____    ______ ____
ROOT
ATOM      1  C   UNL     1       1.546   9.751  18.100  0.00  0.00    +0.000 A 
ATOM      2  C   UNL     1       0.157   9.532  18.208  0.00  0.00    +0.000 A 
ATOM      3  C   UNL     1      -0.397  10.726  18.624  0.00  0.00    +0.000 A 
ATOM      4  N   UNL     1       0.673  11.624  18.705  0.00  0.00    +0.000 N 
ATOM      5  C   UNL     1       0.679  12.992  19.057  0.00  0.00    +0.000 C 
ATOM      6  O   UNL     1      -0.214  13.456  19.758  0.00  0.00    +0.000 OA
ATOM      7  N   UNL     1       1.856  11.024  18.363  0.00  0.00    +0.000 NA
ENDROOT
BRANCH   1   9
ATOM      8  C   UNL     1       2.432   7.434  18.104  0.00  0.00    +0.000 C 
ATOM      9  C   UNL     1       2.474   8.724  17.718  0.00  0.00    +0.000 C 
BRANCH   8  12
ATOM     10  C   UNL     1       5.657   5.852  16.851  0.00  0.00    +0.000 A 
ATOM     11  C   UNL     1       4.694   6.794  17.268  0.00  0.00    +0.000 A 
ATOM     12  C   UNL     1       3.420   6.410  17.713  0.00  0.00    +0.000 A 
ATOM     13  C   UNL     1       3.105   5.044  17.704  0.00  0.00    +0.000 A 
ATOM     14  C   UNL     1       4.045   4.097  17.294  0.00  0.00    +0.000 A 
ATOM     15  C   UNL     1       5.314   4.495  16.870  0.00  0.00    +0.000 A 
BRANCH  10  17
ATOM     16  C   UNL     1       7.577   7.161  17.427  0.00  0.00    +0.000 C 
ATOM     17  O   UNL     1       6.843   6.414  16.462  0.00  0.00    +0.000 OA
ENDBRANCH  10  17
BRANCH  15  18
ATOM     18  O   UNL     1       6.191   3.527  16.470  0.00  0.00    +0.000 OA
ATOM     19  H   UNL     1       6.862   3.921  15.888  0.00  0.00    +0.000 HD
ENDBRANCH  15  18
ENDBRANCH   8  12
ENDBRANCH   1   9
BRANCH   3  20
ATOM     20  C   UNL     1      -1.737  11.135  18.864  0.00  0.00    +0.000 C 
ATOM     21  C   UNL     1      -2.638  11.281  17.877  0.00  0.00    +0.000 C 
BRANCH  21  22
ATOM     22  C   UNL     1      -4.007  11.772  18.119  0.00  0.00    +0.000 A 
ATOM     23  C   UNL     1      -4.982  11.745  17.115  0.00  0.00    +0.000 A 
ATOM     24  C   UNL     1      -6.273  12.211  17.360  0.00  0.00    +0.000 A 
ATOM     25  C   UNL     1      -6.617  12.690  18.624  0.00  0.00    +0.000 A 
ATOM     26  C   UNL     1      -5.674  12.698  19.658  0.00  0.00    +0.000 A 
ATOM     27  C   UNL     1      -4.373  12.233  19.391  0.00  0.00    +0.000 A 
BRANCH  25  28
ATOM     28  O   UNL     1      -7.896  13.137  18.809  0.00  0.00    +0.000 OA
ATOM     29  H   UNL     1      -8.004  13.985  18.348  0.00  0.00    +0.000 HD
ENDBRANCH  25  28
BRANCH  26  30
ATOM     30  O   UNL     1      -5.838  13.115  20.952  0.00  0.00    +0.000 OA
ATOM     31  C   UNL     1      -5.581  14.481  21.246  0.00  0.00    +0.000 C 
ENDBRANCH  26  30
ENDBRANCH  21  22
ENDBRANCH   3  20
BRANCH   5  32
ATOM     32  C   UNL     1       1.840  13.752  18.476  0.00  0.00    +0.000 C 
ATOM     33 CL   UNL     1       3.048  14.055  19.758  0.00  0.00    +0.000 Cl
ENDBRANCH   5  32
TORSDOF 9
ENDMDL
