MODEL 1
REMARK VINA RESULT:      -8.2      0.000      0.000
REMARK  Name = 
REMARK  9 active torsions:
REMARK  status: ('A' for Active; 'I' for Inactive)
REMARK    1  A    between atoms: N_1  and  S_2
REMARK    2  A    between atoms: S_2  and  O_5
REMARK    3  A    between atoms: O_5  and  C_6
REMARK    4  A    between atoms: C_6  and  C_7
REMARK    5  A    between atoms: C_9  and  N_10
REMARK    6  A    between atoms: N_15  and  S_16
REMARK    7  A    between atoms: S_16  and  C_19
REMARK    8  A    between atoms: C_29  and  O_30
REMARK    9  A    between atoms: C_31  and  O_32
REMARK                            x       y       z     vdW  Elec       q    Type
REMARK                         _______ _______ _______ _____ _____    ______ ____
ROOT
ATOM      1  N   UNL     1       2.162   5.938  19.799  0.00  0.00    +0.000 N 
ATOM      2  C   UNL     1       1.545   6.403  20.929  0.00  0.00    +0.000 A 
ATOM      3  N   UNL     1       1.344   7.698  20.894  0.00  0.00    +0.000 NA
ATOM      4  C   UNL     1       1.826   8.101  19.668  0.00  0.00    +0.000 A 
ATOM      5  C   UNL     1       1.849   9.328  19.006  0.00  0.00    +0.000 A 
ATOM      6  N   UNL     1       1.284  10.496  19.561  0.00  0.00    +0.000 N 
ATOM      7  N   UNL     1       2.405   9.427  17.784  0.00  0.00    +0.000 NA
ATOM      8  C   UNL     1       2.889   8.291  17.229  0.00  0.00    +0.000 A 
ATOM      9  N   UNL     1       2.908   7.048  17.754  0.00  0.00    +0.000 NA
ATOM     10  C   UNL     1       2.359   7.019  18.978  0.00  0.00    +0.000 A 
ATOM     11  H   UNL     1       1.886  11.230  19.921  0.00  0.00    +0.000 HD
ENDROOT
BRANCH   1  14
ATOM     12  C   UNL     1       4.446   3.589  18.693  0.00  0.00    +0.000 C 
ATOM     13  O   UNL     1       3.800   4.212  19.826  0.00  0.00    +0.000 OA
ATOM     14  C   UNL     1       2.430   4.546  19.481  0.00  0.00    +0.000 C 
ATOM     15  C   UNL     1       2.216   4.164  18.017  0.00  0.00    +0.000 C 
ATOM     16  C   UNL     1       3.301   3.118  17.789  0.00  0.00    +0.000 C 
BRANCH  15  17
ATOM     17  O   UNL     1       0.912   3.630  17.793  0.00  0.00    +0.000 OA
ATOM     18  H   UNL     1       0.504   4.156  17.076  0.00  0.00    +0.000 HD
ENDBRANCH  15  17
BRANCH  16  19
ATOM     19  O   UNL     1       2.785   1.840  18.206  0.00  0.00    +0.000 OA
ATOM     20  H   UNL     1       2.581   1.869  19.159  0.00  0.00    +0.000 HD
ENDBRANCH  16  19
BRANCH  12  21
ATOM     21  C   UNL     1       5.367   4.617  18.019  0.00  0.00    +0.000 C 
BRANCH  21  22
ATOM     22  O   UNL     1       5.952   5.519  18.962  0.00  0.00    +0.000 OA
BRANCH  22  23
ATOM     23  S   UNL     1       7.575   5.607  18.912  0.00  0.00    +0.000 S 
ATOM     24  O   UNL     1       7.960   6.941  18.519  0.00  0.00    +0.000 OA
ATOM     25  O   UNL     1       8.061   4.437  18.214  0.00  0.00    +0.000 OA
BRANCH  23  26
ATOM     26  N   UNL     1       8.061   5.399  20.498  0.00  0.00    +0.000 NA
ATOM     27  H   UNL     1       8.739   4.636  20.525  0.00  0.00    +0.000 HD
ATOM     28  H   UNL     1       7.255   5.197  21.085  0.00  0.00    +0.000 HD
ENDBRANCH  23  26
ENDBRANCH  22  23
ENDBRANCH  21  22
ENDBRANCH  12  21
ENDBRANCH   1  14
BRANCH   6  29
ATOM     29  S   UNL     1      -0.311  10.841  19.205  0.00  0.00    +0.000 S 
ATOM     30  O   UNL     1      -0.337  12.014  18.371  0.00  0.00    +0.000 OA
ATOM     31  O   UNL     1      -0.972   9.618  18.776  0.00  0.00    +0.000 OA
BRANCH  29  32
ATOM     32  C   UNL     1      -1.036  11.294  20.765  0.00  0.00    +0.000 A 
ATOM     33  C   UNL     1      -0.623  10.667  21.942  0.00  0.00    +0.000 A 
ATOM     34  C   UNL     1      -1.256  10.992  23.146  0.00  0.00    +0.000 A 
ATOM     35  C   UNL     1      -2.284  11.938  23.168  0.00  0.00    +0.000 A 
ATOM     36  C   UNL     1      -2.684  12.567  21.990  0.00  0.00    +0.000 A 
ATOM     37  C   UNL     1      -2.057  12.251  20.786  0.00  0.00    +0.000 A 
ENDBRANCH  29  32
ENDBRANCH   6  29
TORSDOF 9
ENDMDL
MODEL 2
REMARK VINA RESULT:      -8.2      2.711      3.492
REMARK  Name = 
REMARK  9 active torsions:
REMARK  status: ('A' for Active; 'I' for Inactive)
REMARK    1  A    between atoms: N_1  and  S_2
REMARK    2  A    between atoms: S_2  and  O_5
REMARK    3  A    between atoms: O_5  and  C_6
REMARK    4  A    between atoms: C_6  and  C_7
REMARK    5  A    between atoms: C_9  and  N_10
REMARK    6  A    between atoms: N_15  and  S_16
REMARK    7  A    between atoms: S_16  and  C_19
REMARK    8  A    between atoms: C_29  and  O_30
REMARK    9  A    between atoms: C_31  and  O_32
REMARK                            x       y       z     vdW  Elec       q    Type
REMARK                         _______ _______ _______ _____ _____    ______ ____
ROOT
ATOM      1  N   UNL     1       2.356   7.286  19.218  0.00  0.00    +0.000 N 
ATOM      2  C   UNL     1       2.626   7.962  18.057  0.00  0.00    +0.000 A 
ATOM      3  N   UNL     1       2.077   9.152  18.029  0.00  0.00    +0.000 NA
ATOM      4  C   UNL     1       1.439   9.279  19.244  0.00  0.00    +0.000 A 
ATOM      5  C   UNL     1       0.734  10.318  19.849  0.00  0.00    +0.000 A 
ATOM      6  N   UNL     1       0.566  11.577  19.231  0.00  0.00    +0.000 N 
ATOM      7  N   UNL     1       0.203  10.152  21.074  0.00  0.00    +0.000 NA
ATOM      8  C   UNL     1       0.421   8.965  21.689  0.00  0.00    +0.000 A 
ATOM      9  N   UNL     1       1.098   7.895  21.221  0.00  0.00    +0.000 NA
ATOM     10  C   UNL     1       1.585   8.116  19.992  0.00  0.00    +0.000 A 
ATOM     11  H   UNL     1      -0.338  11.837  18.849  0.00  0.00    +0.000 HD
ENDROOT
BRANCH   1  14
ATOM     12  C   UNL     1       4.464   4.660  18.432  0.00  0.00    +0.000 C 
ATOM     13  O   UNL     1       4.281   5.890  19.172  0.00  0.00    +0.000 OA
ATOM     14  C   UNL     1       2.899   5.996  19.603  0.00  0.00    +0.000 C 
ATOM     15  C   UNL     1       2.147   4.786  19.048  0.00  0.00    +0.000 C 
ATOM     16  C   UNL     1       3.269   3.781  18.818  0.00  0.00    +0.000 C 
BRANCH  15  17
ATOM     17  O   UNL     1       1.179   4.294  19.973  0.00  0.00    +0.000 OA
ATOM     18  H   UNL     1       0.372   4.082  19.461  0.00  0.00    +0.000 HD
ENDBRANCH  15  17
BRANCH  16  19
ATOM     19  O   UNL     1       3.502   3.079  20.054  0.00  0.00    +0.000 OA
ATOM     20  H   UNL     1       3.349   2.126  19.919  0.00  0.00    +0.000 HD
ENDBRANCH  16  19
BRANCH  12  21
ATOM     21  C   UNL     1       4.517   4.987  16.933  0.00  0.00    +0.000 C 
BRANCH  21  22
ATOM     22  O   UNL     1       5.731   5.649  16.565  0.00  0.00    +0.000 OA
BRANCH  22  23
ATOM     23  S   UNL     1       6.834   4.703  15.834  0.00  0.00    +0.000 S 
ATOM     24  O   UNL     1       7.607   5.508  14.919  0.00  0.00    +0.000 OA
ATOM     25  O   UNL     1       6.167   3.492  15.409  0.00  0.00    +0.000 OA
BRANCH  23  26
ATOM     26  N   UNL     1       7.863   4.225  17.062  0.00  0.00    +0.000 NA
ATOM     27  H   UNL     1       7.372   3.539  17.639  0.00  0.00    +0.000 HD
ATOM     28  H   UNL     1       8.147   5.032  17.612  0.00  0.00    +0.000 HD
ENDBRANCH  23  26
ENDBRANCH  22  23
ENDBRANCH  21  22
ENDBRANCH  12  21
ENDBRANCH   1  14
BRANCH   6  29
ATOM     29  S   UNL     1       1.700  12.761  19.544  0.00  0.00    +0.000 S 
ATOM     30  O   UNL     1       2.079  12.660  20.929  0.00  0.00    +0.000 OA
ATOM     31  O   UNL     1       2.712  12.731  18.499  0.00  0.00    +0.000 OA
BRANCH  29  32
ATOM     32  C   UNL     1       0.818  14.295  19.356  0.00  0.00    +0.000 A 
ATOM     33  C   UNL     1       1.404  15.366  18.679  0.00  0.00    +0.000 A 
ATOM     34  C   UNL     1       0.719  16.582  18.603  0.00  0.00    +0.000 A 
ATOM     35  C   UNL     1      -0.540  16.718  19.193  0.00  0.00    +0.000 A 
ATOM     36  C   UNL     1      -1.123  15.642  19.860  0.00  0.00    +0.000 A 
ATOM     37  C   UNL     1      -0.449  14.425  19.937  0.00  0.00    +0.000 A 
ENDBRANCH  29  32
ENDBRANCH   6  29
TORSDOF 9
ENDMDL
MODEL 3
REMARK VINA RESULT:      -8.1      2.703      3.508
REMARK  Name = 
REMARK  9 active torsions:
REMARK  status: ('A' for Active; 'I' for Inactive)
REMARK    1  A    between atoms: N_1  and  S_2
REMARK    2  A    between atoms: S_2  and  O_5
REMARK    3  A    between atoms: O_5  and  C_6
REMARK    4  A    between atoms: C_6  and  C_7
REMARK    5  A    between atoms: C_9  and  N_10
REMARK    6  A    between atoms: N_15  and  S_16
REMARK    7  A    between atoms: S_16  and  C_19
REMARK    8  A    between atoms: C_29  and  O_30
REMARK    9  A    between atoms: C_31  and  O_32
REMARK                            x       y       z     vdW  Elec       q    Type
REMARK                         _______ _______ _______ _____ _____    ______ ____
ROOT
ATOM      1  N   UNL     1       2.362   7.277  19.189  0.00  0.00    +0.000 N 
ATOM      2  C   UNL     1       2.647   7.970  18.043  0.00  0.00    +0.000 A 
ATOM      3  N   UNL     1       2.093   9.158  18.025  0.00  0.00    +0.000 NA
ATOM      4  C   UNL     1       1.436   9.265  19.230  0.00  0.00    +0.000 A 
ATOM      5  C   UNL     1       0.718  10.292  19.840  0.00  0.00    +0.000 A 
ATOM      6  N   UNL     1       0.553  11.559  19.238  0.00  0.00    +0.000 N 
ATOM      7  N   UNL     1       0.168  10.106  21.054  0.00  0.00    +0.000 NA
ATOM      8  C   UNL     1       0.382   8.911  21.655  0.00  0.00    +0.000 A 
ATOM      9  N   UNL     1       1.071   7.851  21.182  0.00  0.00    +0.000 NA
ATOM     10  C   UNL     1       1.576   8.092  19.963  0.00  0.00    +0.000 A 
ATOM     11  H   UNL     1      -0.345  11.821  18.846  0.00  0.00    +0.000 HD
ENDROOT
BRANCH   1  14
ATOM     12  C   UNL     1       4.522   4.689  18.417  0.00  0.00    +0.000 C 
ATOM     13  O   UNL     1       4.302   5.899  19.178  0.00  0.00    +0.000 OA
ATOM     14  C   UNL     1       2.905   5.983  19.564  0.00  0.00    +0.000 C 
ATOM     15  C   UNL     1       2.184   4.779  18.958  0.00  0.00    +0.000 C 
ATOM     16  C   UNL     1       3.323   3.789  18.743  0.00  0.00    +0.000 C 
BRANCH  15  17
ATOM     17  O   UNL     1       1.190   4.257  19.838  0.00  0.00    +0.000 OA
ATOM     18  H   UNL     1       1.618   3.559  20.375  0.00  0.00    +0.000 HD
ENDBRANCH  15  17
BRANCH  16  19
ATOM     19  O   UNL     1       3.522   3.063  19.971  0.00  0.00    +0.000 OA
ATOM     20  H   UNL     1       4.151   3.548  20.536  0.00  0.00    +0.000 HD
ENDBRANCH  16  19
BRANCH  12  21
ATOM     21  C   UNL     1       4.622   5.049  16.929  0.00  0.00    +0.000 C 
BRANCH  21  22
ATOM     22  O   UNL     1       5.850   5.712  16.613  0.00  0.00    +0.000 OA
BRANCH  22  23
ATOM     23  S   UNL     1       7.007   4.754  15.992  0.00  0.00    +0.000 S 
ATOM     24  O   UNL     1       7.925   4.386  17.043  0.00  0.00    +0.000 OA
ATOM     25  O   UNL     1       7.463   5.352  14.756  0.00  0.00    +0.000 OA
BRANCH  23  26
ATOM     26  N   UNL     1       6.203   3.363  15.530  0.00  0.00    +0.000 NA
ATOM     27  H   UNL     1       5.789   3.525  14.611  0.00  0.00    +0.000 HD
ATOM     28  H   UNL     1       5.491   3.128  16.218  0.00  0.00    +0.000 HD
ENDBRANCH  23  26
ENDBRANCH  22  23
ENDBRANCH  21  22
ENDBRANCH  12  21
ENDBRANCH   1  14
BRANCH   6  29
ATOM     29  S   UNL     1       1.677  12.743  19.586  0.00  0.00    +0.000 S 
ATOM     30  O   UNL     1       2.074  12.590  20.961  0.00  0.00    +0.000 OA
ATOM     31  O   UNL     1       2.677  12.767  18.529  0.00  0.00    +0.000 OA
BRANCH  29  32
ATOM     32  C   UNL     1       0.775  14.272  19.470  0.00  0.00    +0.000 A 
ATOM     33  C   UNL     1      -0.488  14.390  20.053  0.00  0.00    +0.000 A 
ATOM     34  C   UNL     1      -1.206  15.579  19.891  0.00  0.00    +0.000 A 
ATOM     35  C   UNL     1      -0.659  16.637  19.160  0.00  0.00    +0.000 A 
ATOM     36  C   UNL     1       0.606  16.515  18.589  0.00  0.00    +0.000 A 
ATOM     37  C   UNL     1       1.330  15.335  18.748  0.00  0.00    +0.000 A 
ENDBRANCH  29  32
ENDBRANCH   6  29
TORSDOF 9
ENDMDL
MODEL 4
REMARK VINA RESULT:      -7.9      1.184      1.682
REMARK  Name = 
REMARK  9 active torsions:
REMARK  status: ('A' for Active; 'I' for Inactive)
REMARK    1  A    between atoms: N_1  and  S_2
REMARK    2  A    between atoms: S_2  and  O_5
REMARK    3  A    between atoms: O_5  and  C_6
REMARK    4  A    between atoms: C_6  and  C_7
REMARK    5  A    between atoms: C_9  and  N_10
REMARK    6  A    between atoms: N_15  and  S_16
REMARK    7  A    between atoms: S_16  and  C_19
REMARK    8  A    between atoms: C_29  and  O_30
REMARK    9  A    between atoms: C_31  and  O_32
REMARK                            x       y       z     vdW  Elec       q    Type
REMARK                         _______ _______ _______ _____ _____    ______ ____
ROOT
ATOM      1  N   UNL     1       2.287   5.603  19.821  0.00  0.00    +0.000 N 
ATOM      2  C   UNL     1       1.637   6.046  20.942  0.00  0.00    +0.000 A 
ATOM      3  N   UNL     1       1.384   7.332  20.900  0.00  0.00    +0.000 NA
ATOM      4  C   UNL     1       1.865   7.751  19.679  0.00  0.00    +0.000 A 
ATOM      5  C   UNL     1       1.847   8.975  19.013  0.00  0.00    +0.000 A 
ATOM      6  N   UNL     1       1.228  10.121  19.557  0.00  0.00    +0.000 N 
ATOM      7  N   UNL     1       2.413   9.093  17.797  0.00  0.00    +0.000 NA
ATOM      8  C   UNL     1       2.950   7.976  17.252  0.00  0.00    +0.000 A 
ATOM      9  N   UNL     1       3.013   6.736  17.782  0.00  0.00    +0.000 NA
ATOM     10  C   UNL     1       2.451   6.688  18.999  0.00  0.00    +0.000 A 
ATOM     11  H   UNL     1       1.795  10.879  19.921  0.00  0.00    +0.000 HD
ENDROOT
BRANCH   1  14
ATOM     12  C   UNL     1       4.644   3.360  18.650  0.00  0.00    +0.000 C 
ATOM     13  O   UNL     1       4.014   3.967  19.802  0.00  0.00    +0.000 OA
ATOM     14  C   UNL     1       2.615   4.222  19.512  0.00  0.00    +0.000 C 
ATOM     15  C   UNL     1       2.359   3.806  18.064  0.00  0.00    +0.000 C 
ATOM     16  C   UNL     1       3.488   2.815  17.804  0.00  0.00    +0.000 C 
BRANCH  15  17
ATOM     17  O   UNL     1       1.077   3.200  17.905  0.00  0.00    +0.000 OA
ATOM     18  H   UNL     1       0.737   3.004  18.801  0.00  0.00    +0.000 HD
ENDBRANCH  15  17
BRANCH  16  19
ATOM     19  O   UNL     1       3.059   1.518  18.261  0.00  0.00    +0.000 OA
ATOM     20  H   UNL     1       2.432   1.139  17.617  0.00  0.00    +0.000 HD
ENDBRANCH  16  19
BRANCH  12  21
ATOM     21  C   UNL     1       5.479   4.424  17.923  0.00  0.00    +0.000 C 
BRANCH  21  22
ATOM     22  O   UNL     1       5.975   5.426  18.815  0.00  0.00    +0.000 OA
BRANCH  22  23
ATOM     23  S   UNL     1       7.593   5.579  18.842  0.00  0.00    +0.000 S 
ATOM     24  O   UNL     1       7.944   6.919  18.437  0.00  0.00    +0.000 OA
ATOM     25  O   UNL     1       8.160   4.414  18.199  0.00  0.00    +0.000 OA
BRANCH  23  26
ATOM     26  N   UNL     1       8.006   5.428  20.455  0.00  0.00    +0.000 NA
ATOM     27  H   UNL     1       8.478   6.286  20.745  0.00  0.00    +0.000 HD
ATOM     28  H   UNL     1       8.606   4.617  20.586  0.00  0.00    +0.000 HD
ENDBRANCH  23  26
ENDBRANCH  22  23
ENDBRANCH  21  22
ENDBRANCH  12  21
ENDBRANCH   1  14
BRANCH   6  29
ATOM     29  S   UNL     1      -0.375  10.399  19.180  0.00  0.00    +0.000 S 
ATOM     30  O   UNL     1      -0.562  10.100  17.784  0.00  0.00    +0.000 OA
ATOM     31  O   UNL     1      -1.212   9.766  20.187  0.00  0.00    +0.000 OA
BRANCH  29  32
ATOM     32  C   UNL     1      -0.587  12.156  19.370  0.00  0.00    +0.000 A 
ATOM     33  C   UNL     1       0.075  13.041  18.517  0.00  0.00    +0.000 A 
ATOM     34  C   UNL     1      -0.054  14.417  18.729  0.00  0.00    +0.000 A 
ATOM     35  C   UNL     1      -0.842  14.897  19.778  0.00  0.00    +0.000 A 
ATOM     36  C   UNL     1      -1.508  14.007  20.619  0.00  0.00    +0.000 A 
ATOM     37  C   UNL     1      -1.388  12.634  20.413  0.00  0.00    +0.000 A 
ENDBRANCH  29  32
ENDBRANCH   6  29
TORSDOF 9
ENDMDL
MODEL 5
REMARK VINA RESULT:      -7.9      1.115      1.484
REMARK  Name = 
REMARK  9 active torsions:
REMARK  status: ('A' for Active; 'I' for Inactive)
REMARK    1  A    between atoms: N_1  and  S_2
REMARK    2  A    between atoms: S_2  and  O_5
REMARK    3  A    between atoms: O_5  and  C_6
REMARK    4  A    between atoms: C_6  and  C_7
REMARK    5  A    between atoms: C_9  and  N_10
REMARK    6  A    between atoms: N_15  and  S_16
REMARK    7  A    between atoms: S_16  and  C_19
REMARK    8  A    between atoms: C_29  and  O_30
REMARK    9  A    between atoms: C_31  and  O_32
REMARK                            x       y       z     vdW  Elec       q    Type
REMARK                         _______ _______ _______ _____ _____    ______ ____
ROOT
ATOM      1  N   UNL     1       2.153   6.078  19.784  0.00  0.00    +0.000 N 
ATOM      2  C   UNL     1       1.525   6.545  20.909  0.00  0.00    +0.000 A 
ATOM      3  N   UNL     1       1.316   7.838  20.866  0.00  0.00    +0.000 NA
ATOM      4  C   UNL     1       1.803   8.239  19.642  0.00  0.00    +0.000 A 
ATOM      5  C   UNL     1       1.823   9.463  18.975  0.00  0.00    +0.000 A 
ATOM      6  N   UNL     1       1.246  10.630  19.521  0.00  0.00    +0.000 N 
ATOM      7  N   UNL     1       2.385   9.561  17.756  0.00  0.00    +0.000 NA
ATOM      8  C   UNL     1       2.881   8.425  17.209  0.00  0.00    +0.000 A 
ATOM      9  N   UNL     1       2.905   7.184  17.740  0.00  0.00    +0.000 NA
ATOM     10  C   UNL     1       2.348   7.157  18.960  0.00  0.00    +0.000 A 
ATOM     11  H   UNL     1       1.841  11.369  19.881  0.00  0.00    +0.000 HD
ENDROOT
BRANCH   1  14
ATOM     12  C   UNL     1       4.513   3.700  18.930  0.00  0.00    +0.000 C 
ATOM     13  O   UNL     1       3.739   4.317  19.985  0.00  0.00    +0.000 OA
ATOM     14  C   UNL     1       2.431   4.687  19.475  0.00  0.00    +0.000 C 
ATOM     15  C   UNL     1       2.399   4.337  17.987  0.00  0.00    +0.000 C 
ATOM     16  C   UNL     1       3.484   3.271  17.878  0.00  0.00    +0.000 C 
BRANCH  15  17
ATOM     17  O   UNL     1       1.125   3.836  17.588  0.00  0.00    +0.000 OA
ATOM     18  H   UNL     1       0.781   4.438  16.898  0.00  0.00    +0.000 HD
ENDBRANCH  15  17
BRANCH  16  19
ATOM     19  O   UNL     1       2.893   1.998  18.199  0.00  0.00    +0.000 OA
ATOM     20  H   UNL     1       2.412   2.068  19.044  0.00  0.00    +0.000 HD
ENDBRANCH  16  19
BRANCH  12  21
ATOM     21  C   UNL     1       5.532   4.719  18.402  0.00  0.00    +0.000 C 
BRANCH  21  22
ATOM     22  O   UNL     1       5.714   4.620  16.986  0.00  0.00    +0.000 OA
BRANCH  22  23
ATOM     23  S   UNL     1       7.233   4.880  16.470  0.00  0.00    +0.000 S 
ATOM     24  O   UNL     1       7.297   4.618  15.052  0.00  0.00    +0.000 OA
ATOM     25  O   UNL     1       8.135   4.243  17.404  0.00  0.00    +0.000 OA
BRANCH  23  26
ATOM     26  N   UNL     1       7.478   6.520  16.680  0.00  0.00    +0.000 NA
ATOM     27  H   UNL     1       6.567   6.964  16.810  0.00  0.00    +0.000 HD
ATOM     28  H   UNL     1       7.962   6.906  15.873  0.00  0.00    +0.000 HD
ENDBRANCH  23  26
ENDBRANCH  22  23
ENDBRANCH  21  22
ENDBRANCH  12  21
ENDBRANCH   1  14
BRANCH   6  29
ATOM     29  S   UNL     1      -0.348  10.962  19.153  0.00  0.00    +0.000 S 
ATOM     30  O   UNL     1      -0.383  12.179  18.384  0.00  0.00    +0.000 OA
ATOM     31  O   UNL     1      -0.976   9.752  18.646  0.00  0.00    +0.000 OA
BRANCH  29  32
ATOM     32  C   UNL     1      -1.112  11.315  20.721  0.00  0.00    +0.000 A 
ATOM     33  C   UNL     1      -2.105  12.292  20.817  0.00  0.00    +0.000 A 
ATOM     34  C   UNL     1      -2.641  12.599  22.070  0.00  0.00    +0.000 A 
ATOM     35  C   UNL     1      -2.192  11.930  23.211  0.00  0.00    +0.000 A 
ATOM     36  C   UNL     1      -1.207  10.949  23.107  0.00  0.00    +0.000 A 
ATOM     37  C   UNL     1      -0.669  10.634  21.860  0.00  0.00    +0.000 A 
ENDBRANCH  29  32
ENDBRANCH   6  29
TORSDOF 9
ENDMDL
MODEL 6
REMARK VINA RESULT:      -7.8      3.163      3.902
REMARK  Name = 
REMARK  9 active torsions:
REMARK  status: ('A' for Active; 'I' for Inactive)
REMARK    1  A    between atoms: N_1  and  S_2
REMARK    2  A    between atoms: S_2  and  O_5
REMARK    3  A    between atoms: O_5  and  C_6
REMARK    4  A    between atoms: C_6  and  C_7
REMARK    5  A    between atoms: C_9  and  N_10
REMARK    6  A    between atoms: N_15  and  S_16
REMARK    7  A    between atoms: S_16  and  C_19
REMARK    8  A    between atoms: C_29  and  O_30
REMARK    9  A    between atoms: C_31  and  O_32
REMARK                            x       y       z     vdW  Elec       q    Type
REMARK                         _______ _______ _______ _____ _____    ______ ____
ROOT
ATOM      1  N   UNL     1       2.198   7.455  18.832  0.00  0.00    +0.000 N 
ATOM      2  C   UNL     1       2.454   8.095  17.648  0.00  0.00    +0.000 A 
ATOM      3  N   UNL     1       2.030   9.335  17.645  0.00  0.00    +0.000 NA
ATOM      4  C   UNL     1       1.494   9.532  18.899  0.00  0.00    +0.000 A 
ATOM      5  C   UNL     1       0.943  10.640  19.539  0.00  0.00    +0.000 A 
ATOM      6  N   UNL     1       0.862  11.907  18.921  0.00  0.00    +0.000 N 
ATOM      7  N   UNL     1       0.485  10.535  20.801  0.00  0.00    +0.000 NA
ATOM      8  C   UNL     1       0.622   9.335  21.412  0.00  0.00    +0.000 A 
ATOM      9  N   UNL     1       1.152   8.199  20.911  0.00  0.00    +0.000 NA
ATOM     10  C   UNL     1       1.572   8.363  19.648  0.00  0.00    +0.000 A 
ATOM     11  H   UNL     1      -0.034  12.257  18.599  0.00  0.00    +0.000 HD
ENDROOT
BRANCH   1  14
ATOM     12  C   UNL     1       4.776   5.152  18.920  0.00  0.00    +0.000 C 
ATOM     13  O   UNL     1       4.013   6.147  19.641  0.00  0.00    +0.000 OA
ATOM     14  C   UNL     1       2.632   6.117  19.194  0.00  0.00    +0.000 C 
ATOM     15  C   UNL     1       2.530   5.080  18.075  0.00  0.00    +0.000 C 
ATOM     16  C   UNL     1       3.733   4.185  18.348  0.00  0.00    +0.000 C 
BRANCH  15  17
ATOM     17  O   UNL     1       1.305   4.352  18.137  0.00  0.00    +0.000 OA
ATOM     18  H   UNL     1       0.582   4.987  17.960  0.00  0.00    +0.000 HD
ENDBRANCH  15  17
BRANCH  16  19
ATOM     19  O   UNL     1       3.341   3.193  19.316  0.00  0.00    +0.000 OA
ATOM     20  H   UNL     1       2.658   2.615  18.928  0.00  0.00    +0.000 HD
ENDBRANCH  16  19
BRANCH  12  21
ATOM     21  C   UNL     1       5.608   5.855  17.838  0.00  0.00    +0.000 C 
BRANCH  21  22
ATOM     22  O   UNL     1       6.143   4.934  16.882  0.00  0.00    +0.000 OA
BRANCH  22  23
ATOM     23  S   UNL     1       5.925   5.355  15.327  0.00  0.00    +0.000 S 
ATOM     24  O   UNL     1       5.337   6.672  15.277  0.00  0.00    +0.000 OA
ATOM     25  O   UNL     1       5.332   4.229  14.640  0.00  0.00    +0.000 OA
BRANCH  23  26
ATOM     26  N   UNL     1       7.470   5.481  14.701  0.00  0.00    +0.000 NA
ATOM     27  H   UNL     1       8.132   5.202  15.428  0.00  0.00    +0.000 HD
ATOM     28  H   UNL     1       7.644   6.434  14.392  0.00  0.00    +0.000 HD
ENDBRANCH  23  26
ENDBRANCH  22  23
ENDBRANCH  21  22
ENDBRANCH  12  21
ENDBRANCH   1  14
BRANCH   6  29
ATOM     29  S   UNL     1       2.131  12.970  19.141  0.00  0.00    +0.000 S 
ATOM     30  O   UNL     1       2.486  12.956  20.536  0.00  0.00    +0.000 OA
ATOM     31  O   UNL     1       3.138  12.717  18.123  0.00  0.00    +0.000 OA
BRANCH  29  32
ATOM     32  C   UNL     1       1.444  14.574  18.795  0.00  0.00    +0.000 A 
ATOM     33  C   UNL     1       2.279  15.636  18.441  0.00  0.00    +0.000 A 
ATOM     34  C   UNL     1       1.724  16.903  18.240  0.00  0.00    +0.000 A 
ATOM     35  C   UNL     1       0.348  17.099  18.385  0.00  0.00    +0.000 A 
ATOM     36  C   UNL     1      -0.481  16.033  18.728  0.00  0.00    +0.000 A 
ATOM     37  C   UNL     1       0.065  14.765  18.928  0.00  0.00    +0.000 A 
ENDBRANCH  29  32
ENDBRANCH   6  29
TORSDOF 9
ENDMDL
MODEL 7
REMARK VINA RESULT:      -7.8      1.439      1.678
REMARK  Name = 
REMARK  9 active torsions:
REMARK  status: ('A' for Active; 'I' for Inactive)
REMARK    1  A    between atoms: N_1  and  S_2
REMARK    2  A    between atoms: S_2  and  O_5
REMARK    3  A    between atoms: O_5  and  C_6
REMARK    4  A    between atoms: C_6  and  C_7
REMARK    5  A    between atoms: C_9  and  N_10
REMARK    6  A    between atoms: N_15  and  S_16
REMARK    7  A    between atoms: S_16  and  C_19
REMARK    8  A    between atoms: C_29  and  O_30
REMARK    9  A    between atoms: C_31  and  O_32
REMARK                            x       y       z     vdW  Elec       q    Type
REMARK                         _______ _______ _______ _____ _____    ______ ____
ROOT
ATOM      1  N   UNL     1       2.182   6.136  19.729  0.00  0.00    +0.000 N 
ATOM      2  C   UNL     1       1.544   6.549  20.868  0.00  0.00    +0.000 A 
ATOM      3  N   UNL     1       1.291   7.835  20.864  0.00  0.00    +0.000 NA
ATOM      4  C   UNL     1       1.759   8.287  19.650  0.00  0.00    +0.000 A 
ATOM      5  C   UNL     1       1.734   9.529  19.019  0.00  0.00    +0.000 A 
ATOM      6  N   UNL     1       1.120  10.660  19.600  0.00  0.00    +0.000 N 
ATOM      7  N   UNL     1       2.287   9.681  17.801  0.00  0.00    +0.000 NA
ATOM      8  C   UNL     1       2.819   8.579  17.220  0.00  0.00    +0.000 A 
ATOM      9  N   UNL     1       2.887   7.325  17.715  0.00  0.00    +0.000 NA
ATOM     10  C   UNL     1       2.337   7.244  18.935  0.00  0.00    +0.000 A 
ATOM     11  H   UNL     1       1.692  11.408  19.979  0.00  0.00    +0.000 HD
ENDROOT
BRANCH   1  14
ATOM     12  C   UNL     1       4.575   3.901  18.618  0.00  0.00    +0.000 C 
ATOM     13  O   UNL     1       3.878   4.467  19.751  0.00  0.00    +0.000 OA
ATOM     14  C   UNL     1       2.506   4.764  19.378  0.00  0.00    +0.000 C 
ATOM     15  C   UNL     1       2.345   4.420  17.898  0.00  0.00    +0.000 C 
ATOM     16  C   UNL     1       3.472   3.419  17.670  0.00  0.00    +0.000 C 
BRANCH  15  17
ATOM     17  O   UNL     1       1.067   3.849  17.623  0.00  0.00    +0.000 OA
ATOM     18  H   UNL     1       0.944   3.104  18.245  0.00  0.00    +0.000 HD
ENDBRANCH  15  17
BRANCH  16  19
ATOM     19  O   UNL     1       2.989   2.112  18.035  0.00  0.00    +0.000 OA
ATOM     20  H   UNL     1       3.210   1.935  18.968  0.00  0.00    +0.000 HD
ENDBRANCH  16  19
BRANCH  12  21
ATOM     21  C   UNL     1       5.477   4.979  18.001  0.00  0.00    +0.000 C 
BRANCH  21  22
ATOM     22  O   UNL     1       6.380   4.440  17.031  0.00  0.00    +0.000 OA
BRANCH  22  23
ATOM     23  S   UNL     1       6.257   5.090  15.545  0.00  0.00    +0.000 S 
ATOM     24  O   UNL     1       5.469   4.213  14.714  0.00  0.00    +0.000 OA
ATOM     25  O   UNL     1       7.574   5.538  15.147  0.00  0.00    +0.000 OA
BRANCH  23  26
ATOM     26  N   UNL     1       5.371   6.490  15.766  0.00  0.00    +0.000 NA
ATOM     27  H   UNL     1       4.529   6.428  15.191  0.00  0.00    +0.000 HD
ATOM     28  H   UNL     1       5.931   7.300  15.512  0.00  0.00    +0.000 HD
ENDBRANCH  23  26
ENDBRANCH  22  23
ENDBRANCH  21  22
ENDBRANCH  12  21
ENDBRANCH   1  14
BRANCH   6  29
ATOM     29  S   UNL     1      -0.486  10.948  19.247  0.00  0.00    +0.000 S 
ATOM     30  O   UNL     1      -0.552  12.095  18.381  0.00  0.00    +0.000 OA
ATOM     31  O   UNL     1      -1.115   9.695  18.859  0.00  0.00    +0.000 OA
BRANCH  29  32
ATOM     32  C   UNL     1      -1.213  11.425  20.800  0.00  0.00    +0.000 A 
ATOM     33  C   UNL     1      -0.761  10.857  21.993  0.00  0.00    +0.000 A 
ATOM     34  C   UNL     1      -1.393  11.197  23.192  0.00  0.00    +0.000 A 
ATOM     35  C   UNL     1      -2.459  12.100  23.195  0.00  0.00    +0.000 A 
ATOM     36  C   UNL     1      -2.899  12.669  22.002  0.00  0.00    +0.000 A 
ATOM     37  C   UNL     1      -2.272  12.339  20.801  0.00  0.00    +0.000 A 
ENDBRANCH  29  32
ENDBRANCH   6  29
TORSDOF 9
ENDMDL
MODEL 8
REMARK VINA RESULT:      -7.7      1.359      1.623
REMARK  Name = 
REMARK  9 active torsions:
REMARK  status: ('A' for Active; 'I' for Inactive)
REMARK    1  A    between atoms: N_1  and  S_2
REMARK    2  A    between atoms: S_2  and  O_5
REMARK    3  A    between atoms: O_5  and  C_6
REMARK    4  A    between atoms: C_6  and  C_7
REMARK    5  A    between atoms: C_9  and  N_10
REMARK    6  A    between atoms: N_15  and  S_16
REMARK    7  A    between atoms: S_16  and  C_19
REMARK    8  A    between atoms: C_29  and  O_30
REMARK    9  A    between atoms: C_31  and  O_32
REMARK                            x       y       z     vdW  Elec       q    Type
REMARK                         _______ _______ _______ _____ _____    ______ ____
ROOT
ATOM      1  N   UNL     1       2.011   6.753  20.374  0.00  0.00    +0.000 N 
ATOM      2  C   UNL     1       1.402   7.391  21.422  0.00  0.00    +0.000 A 
ATOM      3  N   UNL     1       1.098   8.635  21.143  0.00  0.00    +0.000 NA
ATOM      4  C   UNL     1       1.499   8.817  19.838  0.00  0.00    +0.000 A 
ATOM      5  C   UNL     1       1.399   9.885  18.947  0.00  0.00    +0.000 A 
ATOM      6  N   UNL     1       0.763  11.098  19.290  0.00  0.00    +0.000 N 
ATOM      7  N   UNL     1       1.897   9.776  17.701  0.00  0.00    +0.000 NA
ATOM      8  C   UNL     1       2.449   8.588  17.356  0.00  0.00    +0.000 A 
ATOM      9  N   UNL     1       2.587   7.480  18.114  0.00  0.00    +0.000 NA
ATOM     10  C   UNL     1       2.090   7.659  19.347  0.00  0.00    +0.000 A 
ATOM     11  H   UNL     1       1.319  11.929  19.465  0.00  0.00    +0.000 HD
ENDROOT
BRANCH   1  14
ATOM     12  C   UNL     1       3.911   4.290  18.865  0.00  0.00    +0.000 C 
ATOM     13  O   UNL     1       3.778   5.212  19.971  0.00  0.00    +0.000 OA
ATOM     14  C   UNL     1       2.376   5.348  20.323  0.00  0.00    +0.000 C 
ATOM     15  C   UNL     1       1.567   4.505  19.338  0.00  0.00    +0.000 C 
ATOM     16  C   UNL     1       2.599   3.497  18.846  0.00  0.00    +0.000 C 
BRANCH  15  17
ATOM     17  O   UNL     1       0.462   3.863  19.972  0.00  0.00    +0.000 OA
ATOM     18  H   UNL     1       0.699   3.745  20.914  0.00  0.00    +0.000 HD
ENDBRANCH  15  17
BRANCH  16  19
ATOM     19  O   UNL     1       2.629   2.397  19.775  0.00  0.00    +0.000 OA
ATOM     20  H   UNL     1       3.553   2.205  20.020  0.00  0.00    +0.000 HD
ENDBRANCH  16  19
BRANCH  12  21
ATOM     21  C   UNL     1       4.154   5.090  17.577  0.00  0.00    +0.000 C 
BRANCH  21  22
ATOM     22  O   UNL     1       5.418   5.762  17.588  0.00  0.00    +0.000 OA
BRANCH  22  23
ATOM     23  S   UNL     1       6.602   5.007  16.767  0.00  0.00    +0.000 S 
ATOM     24  O   UNL     1       7.409   5.997  16.095  0.00  0.00    +0.000 OA
ATOM     25  O   UNL     1       6.010   3.895  16.056  0.00  0.00    +0.000 OA
BRANCH  23  26
ATOM     26  N   UNL     1       7.558   4.309  17.947  0.00  0.00    +0.000 NA
ATOM     27  H   UNL     1       6.961   3.722  18.533  0.00  0.00    +0.000 HD
ATOM     28  H   UNL     1       8.015   5.032  18.497  0.00  0.00    +0.000 HD
ENDBRANCH  23  26
ENDBRANCH  22  23
ENDBRANCH  21  22
ENDBRANCH  12  21
ENDBRANCH   1  14
BRANCH   6  29
ATOM     29  S   UNL     1      -0.866  11.251  18.959  0.00  0.00    +0.000 S 
ATOM     30  O   UNL     1      -1.033  12.351  18.047  0.00  0.00    +0.000 OA
ATOM     31  O   UNL     1      -1.405   9.939  18.637  0.00  0.00    +0.000 OA
BRANCH  29  32
ATOM     32  C   UNL     1      -1.599  11.739  20.505  0.00  0.00    +0.000 A 
ATOM     33  C   UNL     1      -2.763  12.509  20.520  0.00  0.00    +0.000 A 
ATOM     34  C   UNL     1      -3.282  12.937  21.745  0.00  0.00    +0.000 A 
ATOM     35  C   UNL     1      -2.644  12.591  22.939  0.00  0.00    +0.000 A 
ATOM     36  C   UNL     1      -1.488  11.814  22.917  0.00  0.00    +0.000 A 
ATOM     37  C   UNL     1      -0.965  11.380  21.700  0.00  0.00    +0.000 A 
ENDBRANCH  29  32
ENDBRANCH   6  29
TORSDOF 9
ENDMDL
MODEL 9
REMARK VINA RESULT:      -7.7      2.398      3.315
REMARK  Name = 
REMARK  9 active torsions:
REMARK  status: ('A' for Active; 'I' for Inactive)
REMARK    1  A    between atoms: N_1  and  S_2
REMARK    2  A    between atoms: S_2  and  O_5
REMARK    3  A    between atoms: O_5  and  C_6
REMARK    4  A    between atoms: C_6  and  C_7
REMARK    5  A    between atoms: C_9  and  N_10
REMARK    6  A    between atoms: N_15  and  S_16
REMARK    7  A    between atoms: S_16  and  C_19
REMARK    8  A    between atoms: C_29  and  O_30
REMARK    9  A    between atoms: C_31  and  O_32
REMARK                            x       y       z     vdW  Elec       q    Type
REMARK                         _______ _______ _______ _____ _____    ______ ____
ROOT
ATOM      1  N   UNL     1       2.933   6.870  18.937  0.00  0.00    +0.000 N 
ATOM      2  C   UNL     1       3.155   7.647  17.831  0.00  0.00    +0.000 A 
ATOM      3  N   UNL     1       2.460   8.758  17.851  0.00  0.00    +0.000 NA
ATOM      4  C   UNL     1       1.770   8.727  19.043  0.00  0.00    +0.000 A 
ATOM      5  C   UNL     1       0.918   9.628  19.678  0.00  0.00    +0.000 A 
ATOM      6  N   UNL     1       0.613  10.893  19.130  0.00  0.00    +0.000 N 
ATOM      7  N   UNL     1       0.370   9.319  20.868  0.00  0.00    +0.000 NA
ATOM      8  C   UNL     1       0.716   8.131  21.420  0.00  0.00    +0.000 A 
ATOM      9  N   UNL     1       1.540   7.187  20.918  0.00  0.00    +0.000 NA
ATOM     10  C   UNL     1       2.037   7.545  19.726  0.00  0.00    +0.000 A 
ATOM     11  H   UNL     1      -0.303  11.063  18.726  0.00  0.00    +0.000 HD
ENDROOT
BRANCH   1  14
ATOM     12  C   UNL     1       5.882   5.067  18.852  0.00  0.00    +0.000 C 
ATOM     13  O   UNL     1       5.002   5.916  19.623  0.00  0.00    +0.000 OA
ATOM     14  C   UNL     1       3.622   5.635  19.268  0.00  0.00    +0.000 C 
ATOM     15  C   UNL     1       3.635   4.585  18.157  0.00  0.00    +0.000 C 
ATOM     16  C   UNL     1       4.994   3.922  18.349  0.00  0.00    +0.000 C 
BRANCH  15  17
ATOM     17  O   UNL     1       2.567   3.650  18.299  0.00  0.00    +0.000 OA
ATOM     18  H   UNL     1       2.521   3.136  17.468  0.00  0.00    +0.000 HD
ENDBRANCH  15  17
BRANCH  16  19
ATOM     19  O   UNL     1       4.851   2.886  19.339  0.00  0.00    +0.000 OA
ATOM     20  H   UNL     1       3.964   2.488  19.264  0.00  0.00    +0.000 HD
ENDBRANCH  16  19
BRANCH  12  21
ATOM     21  C   UNL     1       6.503   5.895  17.718  0.00  0.00    +0.000 C 
BRANCH  21  22
ATOM     22  O   UNL     1       7.330   5.104  16.859  0.00  0.00    +0.000 OA
BRANCH  22  23
ATOM     23  S   UNL     1       6.807   4.984  15.324  0.00  0.00    +0.000 S 
ATOM     24  O   UNL     1       6.238   3.673  15.126  0.00  0.00    +0.000 OA
ATOM     25  O   UNL     1       7.844   5.503  14.460  0.00  0.00    +0.000 OA
BRANCH  23  26
ATOM     26  N   UNL     1       5.556   6.087  15.214  0.00  0.00    +0.000 NA
ATOM     27  H   UNL     1       4.731   5.678  15.657  0.00  0.00    +0.000 HD
ATOM     28  H   UNL     1       5.376   6.312  14.239  0.00  0.00    +0.000 HD
ENDBRANCH  23  26
ENDBRANCH  22  23
ENDBRANCH  21  22
ENDBRANCH  12  21
ENDBRANCH   1  14
BRANCH   6  29
ATOM     29  S   UNL     1       1.576  12.187  19.561  0.00  0.00    +0.000 S 
ATOM     30  O   UNL     1       2.076  11.948  20.889  0.00  0.00    +0.000 OA
ATOM     31  O   UNL     1       2.494  12.474  18.469  0.00  0.00    +0.000 OA
BRANCH  29  32
ATOM     32  C   UNL     1       0.459  13.569  19.665  0.00  0.00    +0.000 A 
ATOM     33  C   UNL     1      -0.659  13.509  20.499  0.00  0.00    +0.000 A 
ATOM     34  C   UNL     1      -1.558  14.579  20.513  0.00  0.00    +0.000 A 
ATOM     35  C   UNL     1      -1.333  15.697  19.706  0.00  0.00    +0.000 A 
ATOM     36  C   UNL     1      -0.211  15.754  18.883  0.00  0.00    +0.000 A 
ATOM     37  C   UNL     1       0.693  14.692  18.866  0.00  0.00    +0.000 A 
ENDBRANCH  29  32
ENDBRANCH   6  29
TORSDOF 9
ENDMDL
