MODEL 1
REMARK VINA RESULT:      -7.7      0.000      0.000
REMARK  Name = 
REMARK  3 active torsions:
REMARK  status: ('A' for Active; 'I' for Inactive)
REMARK    1  A    between atoms: C_1  and  C_2
REMARK    2  A    between atoms: N_14  and  C_15
REMARK    3  A    between atoms: C_15  and  C_16
REMARK                            x       y       z     vdW  Elec       q    Type
REMARK                         _______ _______ _______ _____ _____    ______ ____
ROOT
ATOM      1  C   UNL     1      -5.162  11.055  17.943  0.00  0.00    +0.000 C 
ATOM      2  C   UNL     1      -3.676  10.922  17.948  0.00  0.00    +0.000 A 
ATOM      3  C   UNL     1      -3.039   9.829  17.316  0.00  0.00    +0.000 A 
ATOM      4  C   UNL     1      -1.666   9.643  17.422  0.00  0.00    +0.000 A 
ATOM      5  C   UNL     1      -0.861  10.554  18.128  0.00  0.00    +0.000 A 
ATOM      6  C   UNL     1      -1.480  11.701  18.719  0.00  0.00    +0.000 A 
ATOM      7  C   UNL     1      -2.864  11.862  18.601  0.00  0.00    +0.000 A 
ATOM      8  C   UNL     1      -0.720  12.743  19.511  0.00  0.00    +0.000 C 
ATOM      9  C   UNL     1       0.703  12.363  19.918  0.00  0.00    +0.000 C 
ATOM     10  C   UNL     1       1.363  11.418  18.904  0.00  0.00    +0.000 C 
ATOM     11  C   UNL     1       0.556  10.109  18.635  0.00  0.00    +0.000 C 
ATOM     12  C   UNL     1       0.134   9.393  19.923  0.00  0.00    +0.000 C 
ATOM     13  C   UNL     1       1.312   8.584  20.552  0.00  0.00    +0.000 C 
ATOM     14  N   UNL     1       2.175   7.635  19.811  0.00  0.00    +0.000 NA
ATOM     15  C   UNL     1       2.574   8.310  18.537  0.00  0.00    +0.000 C 
ATOM     16  C   UNL     1       1.397   9.067  17.777  0.00  0.00    +0.000 C 
ENDROOT
BRANCH  14  17
ATOM     17  C   UNL     1       1.584   6.220  19.815  0.00  0.00    +0.000 C 
BRANCH  17  18
ATOM     18  C   UNL     1       2.281   4.989  19.230  0.00  0.00    +0.000 A 
ATOM     19  C   UNL     1       1.783   4.375  18.045  0.00  0.00    +0.000 A 
ATOM     20  C   UNL     1       2.486   3.434  17.326  0.00  0.00    +0.000 A 
ATOM     21  C   UNL     1       3.781   3.063  17.809  0.00  0.00    +0.000 A 
ATOM     22  C   UNL     1       4.282   3.642  18.980  0.00  0.00    +0.000 A 
ATOM     23  C   UNL     1       3.535   4.597  19.683  0.00  0.00    +0.000 A 
ENDBRANCH  17  18
ENDBRANCH  14  17
TORSDOF 2
ENDMDL
MODEL 2
REMARK VINA RESULT:      -7.6      1.010      1.388
REMARK  Name = 
REMARK  3 active torsions:
REMARK  status: ('A' for Active; 'I' for Inactive)
REMARK    1  A    between atoms: C_1  and  C_2
REMARK    2  A    between atoms: N_14  and  C_15
REMARK    3  A    between atoms: C_15  and  C_16
REMARK                            x       y       z     vdW  Elec       q    Type
REMARK                         _______ _______ _______ _____ _____    ______ ____
ROOT
ATOM      1  C   UNL     1      -5.066  11.329  17.578  0.00  0.00    +0.000 C 
ATOM      2  C   UNL     1      -3.597  11.078  17.648  0.00  0.00    +0.000 A 
ATOM      3  C   UNL     1      -3.050   9.836  17.249  0.00  0.00    +0.000 A 
ATOM      4  C   UNL     1      -1.698   9.563  17.425  0.00  0.00    +0.000 A 
ATOM      5  C   UNL     1      -0.826  10.522  17.969  0.00  0.00    +0.000 A 
ATOM      6  C   UNL     1      -1.351  11.806  18.316  0.00  0.00    +0.000 A 
ATOM      7  C   UNL     1      -2.715  12.055  18.133  0.00  0.00    +0.000 A 
ATOM      8  C   UNL     1      -0.513  12.914  18.918  0.00  0.00    +0.000 C 
ATOM      9  C   UNL     1       0.868  12.504  19.427  0.00  0.00    +0.000 C 
ATOM     10  C   UNL     1       1.456  11.332  18.626  0.00  0.00    +0.000 C 
ATOM     11  C   UNL     1       0.542  10.067  18.588  0.00  0.00    +0.000 C 
ATOM     12  C   UNL     1       0.047   9.644  19.976  0.00  0.00    +0.000 C 
ATOM     13  C   UNL     1       1.145   8.876  20.776  0.00  0.00    +0.000 C 
ATOM     14  N   UNL     1       1.932   7.736  20.250  0.00  0.00    +0.000 NA
ATOM     15  C   UNL     1       2.400   8.122  18.883  0.00  0.00    +0.000 C 
ATOM     16  C   UNL     1       1.301   8.815  17.964  0.00  0.00    +0.000 C 
ENDROOT
BRANCH  14  17
ATOM     17  C   UNL     1       1.222   6.401  20.505  0.00  0.00    +0.000 C 
BRANCH  17  18
ATOM     18  C   UNL     1       1.835   5.027  20.221  0.00  0.00    +0.000 A 
ATOM     19  C   UNL     1       2.184   4.159  21.295  0.00  0.00    +0.000 A 
ATOM     20  C   UNL     1       2.500   2.830  21.123  0.00  0.00    +0.000 A 
ATOM     21  C   UNL     1       2.477   2.311  19.789  0.00  0.00    +0.000 A 
ATOM     22  C   UNL     1       2.153   3.151  18.718  0.00  0.00    +0.000 A 
ATOM     23  C   UNL     1       1.836   4.498  18.936  0.00  0.00    +0.000 A 
ENDBRANCH  17  18
ENDBRANCH  14  17
TORSDOF 2
ENDMDL
MODEL 3
REMARK VINA RESULT:      -7.6      0.324      1.029
REMARK  Name = 
REMARK  3 active torsions:
REMARK  status: ('A' for Active; 'I' for Inactive)
REMARK    1  A    between atoms: C_1  and  C_2
REMARK    2  A    between atoms: N_14  and  C_15
REMARK    3  A    between atoms: C_15  and  C_16
REMARK                            x       y       z     vdW  Elec       q    Type
REMARK                         _______ _______ _______ _____ _____    ______ ____
ROOT
ATOM      1  C   UNL     1      -5.241  10.996  17.967  0.00  0.00    +0.000 C 
ATOM      2  C   UNL     1      -3.750  10.925  17.981  0.00  0.00    +0.000 A 
ATOM      3  C   UNL     1      -3.061   9.926  17.255  0.00  0.00    +0.000 A 
ATOM      4  C   UNL     1      -1.682   9.789  17.362  0.00  0.00    +0.000 A 
ATOM      5  C   UNL     1      -0.925  10.660  18.164  0.00  0.00    +0.000 A 
ATOM      6  C   UNL     1      -1.598  11.717  18.854  0.00  0.00    +0.000 A 
ATOM      7  C   UNL     1      -2.987  11.831  18.732  0.00  0.00    +0.000 A 
ATOM      8  C   UNL     1      -0.892  12.709  19.753  0.00  0.00    +0.000 C 
ATOM      9  C   UNL     1       0.542  12.352  20.141  0.00  0.00    +0.000 C 
ATOM     10  C   UNL     1       1.253  11.537  19.050  0.00  0.00    +0.000 C 
ATOM     11  C   UNL     1       0.505  10.228  18.646  0.00  0.00    +0.000 C 
ATOM     12  C   UNL     1       0.101   9.373  19.853  0.00  0.00    +0.000 C 
ATOM     13  C   UNL     1       1.306   8.558  20.418  0.00  0.00    +0.000 C 
ATOM     14  N   UNL     1       2.217   7.721  19.601  0.00  0.00    +0.000 NA
ATOM     15  C   UNL     1       2.599   8.532  18.404  0.00  0.00    +0.000 C 
ATOM     16  C   UNL     1       1.399   9.309  17.704  0.00  0.00    +0.000 C 
ENDROOT
BRANCH  14  17
ATOM     17  C   UNL     1       1.687   6.289  19.461  0.00  0.00    +0.000 C 
BRANCH  17  18
ATOM     18  C   UNL     1       2.404   5.172  18.698  0.00  0.00    +0.000 A 
ATOM     19  C   UNL     1       3.790   4.924  18.918  0.00  0.00    +0.000 A 
ATOM     20  C   UNL     1       4.438   3.797  18.467  0.00  0.00    +0.000 A 
ATOM     21  C   UNL     1       3.668   2.836  17.737  0.00  0.00    +0.000 A 
ATOM     22  C   UNL     1       2.309   3.068  17.495  0.00  0.00    +0.000 A 
ATOM     23  C   UNL     1       1.686   4.229  17.973  0.00  0.00    +0.000 A 
ENDBRANCH  17  18
ENDBRANCH  14  17
TORSDOF 2
ENDMDL
MODEL 4
REMARK VINA RESULT:      -7.3      1.111      1.537
REMARK  Name = 
REMARK  3 active torsions:
REMARK  status: ('A' for Active; 'I' for Inactive)
REMARK    1  A    between atoms: C_1  and  C_2
REMARK    2  A    between atoms: N_14  and  C_15
REMARK    3  A    between atoms: C_15  and  C_16
REMARK                            x       y       z     vdW  Elec       q    Type
REMARK                         _______ _______ _______ _____ _____    ______ ____
ROOT
ATOM      1  C   UNL     1      -4.938  11.074  18.153  0.00  0.00    +0.000 C 
ATOM      2  C   UNL     1      -3.450  10.962  18.158  0.00  0.00    +0.000 A 
ATOM      3  C   UNL     1      -2.781  10.101  17.257  0.00  0.00    +0.000 A 
ATOM      4  C   UNL     1      -1.407   9.909  17.341  0.00  0.00    +0.000 A 
ATOM      5  C   UNL     1      -0.634  10.590  18.297  0.00  0.00    +0.000 A 
ATOM      6  C   UNL     1      -1.286  11.514  19.174  0.00  0.00    +0.000 A 
ATOM      7  C   UNL     1      -2.670  11.686  19.071  0.00  0.00    +0.000 A 
ATOM      8  C   UNL     1      -0.562  12.296  20.248  0.00  0.00    +0.000 C 
ATOM      9  C   UNL     1       0.859  11.833  20.566  0.00  0.00    +0.000 C 
ATOM     10  C   UNL     1       1.558  11.222  19.342  0.00  0.00    +0.000 C 
ATOM     11  C   UNL     1       0.780  10.035  18.692  0.00  0.00    +0.000 C 
ATOM     12  C   UNL     1       0.344   8.977  19.712  0.00  0.00    +0.000 C 
ATOM     13  C   UNL     1       1.522   8.036  20.115  0.00  0.00    +0.000 C 
ATOM     14  N   UNL     1       2.418   7.347  19.157  0.00  0.00    +0.000 NA
ATOM     15  C   UNL     1       2.831   8.361  18.138  0.00  0.00    +0.000 C 
ATOM     16  C   UNL     1       1.658   9.290  17.595  0.00  0.00    +0.000 C 
ENDROOT
BRANCH  14  17
ATOM     17  C   UNL     1       1.853   5.982  18.744  0.00  0.00    +0.000 C 
BRANCH  17  18
ATOM     18  C   UNL     1       2.058   4.687  19.532  0.00  0.00    +0.000 A 
ATOM     19  C   UNL     1       3.269   3.948  19.402  0.00  0.00    +0.000 A 
ATOM     20  C   UNL     1       3.628   2.926  20.251  0.00  0.00    +0.000 A 
ATOM     21  C   UNL     1       2.725   2.596  21.311  0.00  0.00    +0.000 A 
ATOM     22  C   UNL     1       1.522   3.298  21.447  0.00  0.00    +0.000 A 
ATOM     23  C   UNL     1       1.194   4.334  20.562  0.00  0.00    +0.000 A 
ENDBRANCH  17  18
ENDBRANCH  14  17
TORSDOF 2
ENDMDL
MODEL 5
REMARK VINA RESULT:      -7.2      3.350      8.531
REMARK  Name = 
REMARK  3 active torsions:
REMARK  status: ('A' for Active; 'I' for Inactive)
REMARK    1  A    between atoms: C_1  and  C_2
REMARK    2  A    between atoms: N_14  and  C_15
REMARK    3  A    between atoms: C_15  and  C_16
REMARK                            x       y       z     vdW  Elec       q    Type
REMARK                         _______ _______ _______ _____ _____    ______ ____
ROOT
ATOM      1  C   UNL     1       3.366   6.851  18.182  0.00  0.00    +0.000 C 
ATOM      2  C   UNL     1       2.345   7.821  18.676  0.00  0.00    +0.000 A 
ATOM      3  C   UNL     1       1.789   8.796  17.815  0.00  0.00    +0.000 A 
ATOM      4  C   UNL     1       0.929   9.772  18.304  0.00  0.00    +0.000 A 
ATOM      5  C   UNL     1       0.555   9.800  19.659  0.00  0.00    +0.000 A 
ATOM      6  C   UNL     1       1.056   8.782  20.529  0.00  0.00    +0.000 A 
ATOM      7  C   UNL     1       1.923   7.813  20.014  0.00  0.00    +0.000 A 
ATOM      8  C   UNL     1       0.732   8.715  22.006  0.00  0.00    +0.000 C 
ATOM      9  C   UNL     1       0.084   9.963  22.603  0.00  0.00    +0.000 C 
ATOM     10  C   UNL     1      -0.776  10.717  21.578  0.00  0.00    +0.000 C 
ATOM     11  C   UNL     1      -0.007  11.126  20.282  0.00  0.00    +0.000 C 
ATOM     12  C   UNL     1       1.321  11.834  20.574  0.00  0.00    +0.000 C 
ATOM     13  C   UNL     1       1.110  13.329  20.968  0.00  0.00    +0.000 C 
ATOM     14  N   UNL     1       0.282  14.294  20.208  0.00  0.00    +0.000 NA
ATOM     15  C   UNL     1      -1.009  13.609  19.891  0.00  0.00    +0.000 C 
ATOM     16  C   UNL     1      -0.869  12.109  19.375  0.00  0.00    +0.000 C 
ENDROOT
BRANCH  14  17
ATOM     17  C   UNL     1       1.102  14.998  19.119  0.00  0.00    +0.000 C 
BRANCH  17  18
ATOM     18  C   UNL     1       0.753  16.363  18.521  0.00  0.00    +0.000 A 
ATOM     19  C   UNL     1       1.754  17.142  17.871  0.00  0.00    +0.000 A 
ATOM     20  C   UNL     1       1.472  18.246  17.099  0.00  0.00    +0.000 A 
ATOM     21  C   UNL     1       0.098  18.621  16.955  0.00  0.00    +0.000 A 
ATOM     22  C   UNL     1      -0.900  17.880  17.598  0.00  0.00    +0.000 A 
ATOM     23  C   UNL     1      -0.571  16.761  18.374  0.00  0.00    +0.000 A 
ENDBRANCH  17  18
ENDBRANCH  14  17
TORSDOF 2
ENDMDL
MODEL 6
REMARK VINA RESULT:      -7.2      8.845     11.455
REMARK  Name = 
REMARK  3 active torsions:
REMARK  status: ('A' for Active; 'I' for Inactive)
REMARK    1  A    between atoms: C_1  and  C_2
REMARK    2  A    between atoms: N_14  and  C_15
REMARK    3  A    between atoms: C_15  and  C_16
REMARK                            x       y       z     vdW  Elec       q    Type
REMARK                         _______ _______ _______ _____ _____    ______ ____
ROOT
ATOM      1  C   UNL     1       8.666   9.138  18.403  0.00  0.00    +0.000 C 
ATOM      2  C   UNL     1       9.173  10.448  18.905  0.00  0.00    +0.000 A 
ATOM      3  C   UNL     1       9.341  10.683  20.290  0.00  0.00    +0.000 A 
ATOM      4  C   UNL     1       9.700  11.940  20.763  0.00  0.00    +0.000 A 
ATOM      5  C   UNL     1       9.943  13.007  19.880  0.00  0.00    +0.000 A 
ATOM      6  C   UNL     1       9.841  12.769  18.473  0.00  0.00    +0.000 A 
ATOM      7  C   UNL     1       9.475  11.497  18.024  0.00  0.00    +0.000 A 
ATOM      8  C   UNL     1      10.069  13.841  17.429  0.00  0.00    +0.000 C 
ATOM      9  C   UNL     1      10.118  15.277  17.947  0.00  0.00    +0.000 C 
ATOM     10  C   UNL     1      10.662  15.358  19.381  0.00  0.00    +0.000 C 
ATOM     11  C   UNL     1       9.879  14.483  20.409  0.00  0.00    +0.000 C 
ATOM     12  C   UNL     1       8.362  14.695  20.340  0.00  0.00    +0.000 C 
ATOM     13  C   UNL     1       7.924  16.007  21.063  0.00  0.00    +0.000 C 
ATOM     14  N   UNL     1       8.338  16.396  22.432  0.00  0.00    +0.000 NA
ATOM     15  C   UNL     1       9.813  16.168  22.524  0.00  0.00    +0.000 C 
ATOM     16  C   UNL     1      10.325  14.795  21.904  0.00  0.00    +0.000 C 
ENDROOT
BRANCH  14  17
ATOM     17  C   UNL     1       7.375  15.837  23.487  0.00  0.00    +0.000 C 
BRANCH  17  18
ATOM     18  C   UNL     1       7.323  14.369  23.920  0.00  0.00    +0.000 A 
ATOM     19  C   UNL     1       6.525  13.434  23.198  0.00  0.00    +0.000 A 
ATOM     20  C   UNL     1       6.619  12.071  23.366  0.00  0.00    +0.000 A 
ATOM     21  C   UNL     1       7.567  11.584  24.320  0.00  0.00    +0.000 A 
ATOM     22  C   UNL     1       8.349  12.485  25.052  0.00  0.00    +0.000 A 
ATOM     23  C   UNL     1       8.224  13.867  24.850  0.00  0.00    +0.000 A 
ENDBRANCH  17  18
ENDBRANCH  14  17
TORSDOF 2
ENDMDL
MODEL 7
REMARK VINA RESULT:      -7.2      4.086      7.289
REMARK  Name = 
REMARK  3 active torsions:
REMARK  status: ('A' for Active; 'I' for Inactive)
REMARK    1  A    between atoms: C_1  and  C_2
REMARK    2  A    between atoms: N_14  and  C_15
REMARK    3  A    between atoms: C_15  and  C_16
REMARK                            x       y       z     vdW  Elec       q    Type
REMARK                         _______ _______ _______ _____ _____    ______ ____
ROOT
ATOM      1  C   UNL     1       0.846   9.126  18.101  0.00  0.00    +0.000 C 
ATOM      2  C   UNL     1       2.051   8.250  18.191  0.00  0.00    +0.000 A 
ATOM      3  C   UNL     1       3.224   8.546  17.459  0.00  0.00    +0.000 A 
ATOM      4  C   UNL     1       4.302   7.668  17.452  0.00  0.00    +0.000 A 
ATOM      5  C   UNL     1       4.275   6.478  18.201  0.00  0.00    +0.000 A 
ATOM      6  C   UNL     1       3.122   6.196  18.999  0.00  0.00    +0.000 A 
ATOM      7  C   UNL     1       2.050   7.094  18.985  0.00  0.00    +0.000 A 
ATOM      8  C   UNL     1       2.975   4.944  19.837  0.00  0.00    +0.000 C 
ATOM      9  C   UNL     1       3.988   3.834  19.561  0.00  0.00    +0.000 C 
ATOM     10  C   UNL     1       5.341   4.388  19.091  0.00  0.00    +0.000 C 
ATOM     11  C   UNL     1       5.249   5.305  17.830  0.00  0.00    +0.000 C 
ATOM     12  C   UNL     1       4.441   4.675  16.691  0.00  0.00    +0.000 C 
ATOM     13  C   UNL     1       5.272   3.612  15.906  0.00  0.00    +0.000 C 
ATOM     14  N   UNL     1       6.639   3.831  15.376  0.00  0.00    +0.000 NA
ATOM     15  C   UNL     1       7.434   4.472  16.469  0.00  0.00    +0.000 C 
ATOM     16  C   UNL     1       6.690   5.645  17.247  0.00  0.00    +0.000 C 
ENDROOT
BRANCH  14  17
ATOM     17  C   UNL     1       6.602   4.423  13.961  0.00  0.00    +0.000 C 
BRANCH  17  18
ATOM     18  C   UNL     1       6.026   3.706  12.738  0.00  0.00    +0.000 A 
ATOM     19  C   UNL     1       6.707   2.589  12.171  0.00  0.00    +0.000 A 
ATOM     20  C   UNL     1       6.138   1.748  11.242  0.00  0.00    +0.000 A 
ATOM     21  C   UNL     1       4.795   2.023  10.832  0.00  0.00    +0.000 A 
ATOM     22  C   UNL     1       4.114   3.124  11.364  0.00  0.00    +0.000 A 
ATOM     23  C   UNL     1       4.729   3.957  12.309  0.00  0.00    +0.000 A 
ENDBRANCH  17  18
ENDBRANCH  14  17
TORSDOF 2
ENDMDL
MODEL 8
REMARK VINA RESULT:      -6.9      4.007      8.347
REMARK  Name = 
REMARK  3 active torsions:
REMARK  status: ('A' for Active; 'I' for Inactive)
REMARK    1  A    between atoms: C_1  and  C_2
REMARK    2  A    between atoms: N_14  and  C_15
REMARK    3  A    between atoms: C_15  and  C_16
REMARK                            x       y       z     vdW  Elec       q    Type
REMARK                         _______ _______ _______ _____ _____    ______ ____
ROOT
ATOM      1  C   UNL     1      -3.731  10.033  14.496  0.00  0.00    +0.000 C 
ATOM      2  C   UNL     1      -3.221  10.393  15.851  0.00  0.00    +0.000 A 
ATOM      3  C   UNL     1      -3.877  11.363  16.643  0.00  0.00    +0.000 A 
ATOM      4  C   UNL     1      -3.336  11.783  17.853  0.00  0.00    +0.000 A 
ATOM      5  C   UNL     1      -2.141  11.230  18.345  0.00  0.00    +0.000 A 
ATOM      6  C   UNL     1      -1.499  10.200  17.588  0.00  0.00    +0.000 A 
ATOM      7  C   UNL     1      -2.062   9.799  16.373  0.00  0.00    +0.000 A 
ATOM      8  C   UNL     1      -0.204   9.539  18.011  0.00  0.00    +0.000 C 
ATOM      9  C   UNL     1       0.560  10.231  19.139  0.00  0.00    +0.000 C 
ATOM     10  C   UNL     1      -0.377  10.963  20.110  0.00  0.00    +0.000 C 
ATOM     11  C   UNL     1      -1.311  12.010  19.425  0.00  0.00    +0.000 C 
ATOM     12  C   UNL     1      -0.555  12.969  18.498  0.00  0.00    +0.000 C 
ATOM     13  C   UNL     1       0.183  14.089  19.296  0.00  0.00    +0.000 C 
ATOM     14  N   UNL     1      -0.441  14.930  20.345  0.00  0.00    +0.000 NA
ATOM     15  C   UNL     1      -1.207  14.011  21.243  0.00  0.00    +0.000 C 
ATOM     16  C   UNL     1      -2.074  12.904  20.497  0.00  0.00    +0.000 C 
ENDROOT
BRANCH  14  17
ATOM     17  C   UNL     1      -1.088  16.184  19.746  0.00  0.00    +0.000 C 
BRANCH  17  18
ATOM     18  C   UNL     1      -0.390  17.137  18.773  0.00  0.00    +0.000 A 
ATOM     19  C   UNL     1       1.010  17.022  18.532  0.00  0.00    +0.000 A 
ATOM     20  C   UNL     1       1.656  17.665  17.500  0.00  0.00    +0.000 A 
ATOM     21  C   UNL     1       0.868  18.491  16.636  0.00  0.00    +0.000 A 
ATOM     22  C   UNL     1      -0.505  18.631  16.865  0.00  0.00    +0.000 A 
ATOM     23  C   UNL     1      -1.126  17.958  17.926  0.00  0.00    +0.000 A 
ENDBRANCH  17  18
ENDBRANCH  14  17
TORSDOF 2
ENDMDL
MODEL 9
REMARK VINA RESULT:      -6.8      3.974      8.031
REMARK  Name = 
REMARK  3 active torsions:
REMARK  status: ('A' for Active; 'I' for Inactive)
REMARK    1  A    between atoms: C_1  and  C_2
REMARK    2  A    between atoms: N_14  and  C_15
REMARK    3  A    between atoms: C_15  and  C_16
REMARK                            x       y       z     vdW  Elec       q    Type
REMARK                         _______ _______ _______ _____ _____    ______ ____
ROOT
ATOM      1  C   UNL     1      -5.732  11.625  17.593  0.00  0.00    +0.000 C 
ATOM      2  C   UNL     1      -4.389  11.566  18.241  0.00  0.00    +0.000 A 
ATOM      3  C   UNL     1      -4.062  12.421  19.320  0.00  0.00    +0.000 A 
ATOM      4  C   UNL     1      -2.775  12.447  19.844  0.00  0.00    +0.000 A 
ATOM      5  C   UNL     1      -1.769  11.601  19.346  0.00  0.00    +0.000 A 
ATOM      6  C   UNL     1      -2.100  10.684  18.299  0.00  0.00    +0.000 A 
ATOM      7  C   UNL     1      -3.401  10.680  17.787  0.00  0.00    +0.000 A 
ATOM      8  C   UNL     1      -1.101   9.734  17.677  0.00  0.00    +0.000 C 
ATOM      9  C   UNL     1       0.367  10.002  18.004  0.00  0.00    +0.000 C 
ATOM     10  C   UNL     1       0.546  10.634  19.393  0.00  0.00    +0.000 C 
ATOM     11  C   UNL     1      -0.261  11.954  19.599  0.00  0.00    +0.000 C 
ATOM     12  C   UNL     1      -0.058  12.962  18.461  0.00  0.00    +0.000 C 
ATOM     13  C   UNL     1       1.298  13.723  18.592  0.00  0.00    +0.000 C 
ATOM     14  N   UNL     1       1.778  14.387  19.827  0.00  0.00    +0.000 NA
ATOM     15  C   UNL     1       1.562  13.426  20.952  0.00  0.00    +0.000 C 
ATOM     16  C   UNL     1       0.151  12.688  20.949  0.00  0.00    +0.000 C 
ENDROOT
BRANCH  14  17
ATOM     17  C   UNL     1       1.288  15.838  19.909  0.00  0.00    +0.000 C 
BRANCH  17  18
ATOM     18  C   UNL     1       0.814  16.660  18.708  0.00  0.00    +0.000 A 
ATOM     19  C   UNL     1      -0.552  17.050  18.596  0.00  0.00    +0.000 A 
ATOM     20  C   UNL     1      -1.001  17.986  17.693  0.00  0.00    +0.000 A 
ATOM     21  C   UNL     1      -0.034  18.588  16.826  0.00  0.00    +0.000 A 
ATOM     22  C   UNL     1       1.310  18.208  16.908  0.00  0.00    +0.000 A 
ATOM     23  C   UNL     1       1.727  17.251  17.842  0.00  0.00    +0.000 A 
ENDBRANCH  17  18
ENDBRANCH  14  17
TORSDOF 2
ENDMDL
