MODEL 1
REMARK VINA RESULT:      -7.9      0.000      0.000
REMARK  Name = 
REMARK  9 active torsions:
REMARK  status: ('A' for Active; 'I' for Inactive)
REMARK    1  A    between atoms: C_1  and  C_2
REMARK    2  A    between atoms: C_2  and  O_3
REMARK    3  A    between atoms: O_3  and  C_4
REMARK    4  A    between atoms: C_7  and  C_8
REMARK    5  A    between atoms: N_10  and  O_11
REMARK    6  A    between atoms: C_13  and  N_14
REMARK    7  A    between atoms: C_15  and  C_17
REMARK    8  A    between atoms: C_20  and  O_21
REMARK    9  A    between atoms: O_21  and  C_22
REMARK                            x       y       z     vdW  Elec       q    Type
REMARK                         _______ _______ _______ _____ _____    ______ ____
ROOT
ATOM      1  C   UNL     1       2.637   4.374  17.973  0.00  0.00    +0.000 A 
ATOM      2  C   UNL     1       3.351   3.446  17.197  0.00  0.00    +0.000 A 
ATOM      3  C   UNL     1       4.596   3.770  16.655  0.00  0.00    +0.000 A 
ATOM      4  C   UNL     1       5.146   5.033  16.869  0.00  0.00    +0.000 A 
ATOM      5  C   UNL     1       4.418   5.970  17.606  0.00  0.00    +0.000 A 
ATOM      6  C   UNL     1       3.148   5.679  18.129  0.00  0.00    +0.000 A 
ENDROOT
BRANCH   4   7
ATOM      7  C   UNL     1       6.502   5.323  16.324  0.00  0.00    +0.000 C 
ATOM      8  O   UNL     1       7.476   5.401  17.072  0.00  0.00    +0.000 OA
ATOM      9  N   UNL     1       6.633   5.484  14.963  0.00  0.00    +0.000 N 
ATOM     10  H   UNL     1       5.938   5.239  14.266  0.00  0.00    +0.000 HD
BRANCH   9  11
ATOM     11  O   UNL     1       7.957   5.652  14.495  0.00  0.00    +0.000 OA
ATOM     12  H   UNL     1       8.327   4.749  14.608  0.00  0.00    +0.000 HD
ENDBRANCH   9  11
ENDBRANCH   4   7
BRANCH   6  13
ATOM     13  N   UNL     1       2.405   6.663  18.846  0.00  0.00    +0.000 N 
ATOM     14  C   UNL     1       2.190   7.965  18.411  0.00  0.00    +0.000 C 
ATOM     15  O   UNL     1       2.498   8.403  17.300  0.00  0.00    +0.000 OA
ATOM     16  H   UNL     1       1.975   6.329  19.699  0.00  0.00    +0.000 HD
BRANCH  14  17
ATOM     17  C   UNL     1       1.555   8.940  19.342  0.00  0.00    +0.000 A 
ATOM     18  C   UNL     1       1.392   8.530  20.677  0.00  0.00    +0.000 A 
ATOM     19  C   UNL     1       0.853   9.393  21.630  0.00  0.00    +0.000 A 
ATOM     20  C   UNL     1       0.488  10.687  21.271  0.00  0.00    +0.000 A 
ATOM     21  C   UNL     1       0.627  11.097  19.941  0.00  0.00    +0.000 A 
ATOM     22  C   UNL     1       1.161  10.228  18.975  0.00  0.00    +0.000 A 
BRANCH  20  23
ATOM     23  O   UNL     1      -0.010  11.452  22.288  0.00  0.00    +0.000 OA
ATOM     24  C   UNL     1      -1.131  10.906  22.972  0.00  0.00    +0.000 C 
ENDBRANCH  20  23
ENDBRANCH  14  17
ENDBRANCH   6  13
BRANCH   1  25
ATOM     25  O   UNL     1       1.447   4.074  18.602  0.00  0.00    +0.000 OA
BRANCH  25  27
ATOM     26  C   UNL     1       1.374   3.348  20.903  0.00  0.00    +0.000 C 
ATOM     27  C   UNL     1       1.493   2.919  19.454  0.00  0.00    +0.000 C 
ENDBRANCH  25  27
ENDBRANCH   1  25
TORSDOF 7
ENDMDL
MODEL 2
REMARK VINA RESULT:      -7.8      0.402      1.062
REMARK  Name = 
REMARK  9 active torsions:
REMARK  status: ('A' for Active; 'I' for Inactive)
REMARK    1  A    between atoms: C_1  and  C_2
REMARK    2  A    between atoms: C_2  and  O_3
REMARK    3  A    between atoms: O_3  and  C_4
REMARK    4  A    between atoms: C_7  and  C_8
REMARK    5  A    between atoms: N_10  and  O_11
REMARK    6  A    between atoms: C_13  and  N_14
REMARK    7  A    between atoms: C_15  and  C_17
REMARK    8  A    between atoms: C_20  and  O_21
REMARK    9  A    between atoms: O_21  and  C_22
REMARK                            x       y       z     vdW  Elec       q    Type
REMARK                         _______ _______ _______ _____ _____    ______ ____
ROOT
ATOM      1  C   UNL     1       2.675   4.254  18.171  0.00  0.00    +0.000 A 
ATOM      2  C   UNL     1       3.320   3.390  17.271  0.00  0.00    +0.000 A 
ATOM      3  C   UNL     1       4.554   3.727  16.711  0.00  0.00    +0.000 A 
ATOM      4  C   UNL     1       5.160   4.941  17.032  0.00  0.00    +0.000 A 
ATOM      5  C   UNL     1       4.498   5.819  17.894  0.00  0.00    +0.000 A 
ATOM      6  C   UNL     1       3.241   5.516  18.439  0.00  0.00    +0.000 A 
ENDROOT
BRANCH   4   7
ATOM      7  C   UNL     1       6.503   5.241  16.460  0.00  0.00    +0.000 C 
ATOM      8  O   UNL     1       7.497   5.291  17.184  0.00  0.00    +0.000 OA
ATOM      9  N   UNL     1       6.598   5.445  15.102  0.00  0.00    +0.000 N 
ATOM     10  H   UNL     1       5.884   5.226  14.416  0.00  0.00    +0.000 HD
BRANCH   9  11
ATOM     11  O   UNL     1       7.910   5.621  14.605  0.00  0.00    +0.000 OA
ATOM     12  H   UNL     1       8.028   6.594  14.686  0.00  0.00    +0.000 HD
ENDBRANCH   9  11
ENDBRANCH   4   7
BRANCH   6  13
ATOM     13  N   UNL     1       2.565   6.444  19.287  0.00  0.00    +0.000 N 
ATOM     14  C   UNL     1       2.048   7.665  18.872  0.00  0.00    +0.000 C 
ATOM     15  O   UNL     1       1.989   8.050  17.702  0.00  0.00    +0.000 OA
ATOM     16  H   UNL     1       2.426   6.124  20.237  0.00  0.00    +0.000 HD
BRANCH  14  17
ATOM     17  C   UNL     1       1.532   8.615  19.898  0.00  0.00    +0.000 A 
ATOM     18  C   UNL     1       1.106   9.874  19.440  0.00  0.00    +0.000 A 
ATOM     19  C   UNL     1       0.562  10.809  20.321  0.00  0.00    +0.000 A 
ATOM     20  C   UNL     1       0.415  10.494  21.667  0.00  0.00    +0.000 A 
ATOM     21  C   UNL     1       0.854   9.252  22.136  0.00  0.00    +0.000 A 
ATOM     22  C   UNL     1       1.412   8.310  21.255  0.00  0.00    +0.000 A 
BRANCH  20  23
ATOM     23  O   UNL     1      -0.147  11.476  22.435  0.00  0.00    +0.000 OA
ATOM     24  C   UNL     1      -1.398  11.148  23.028  0.00  0.00    +0.000 C 
ENDBRANCH  20  23
ENDBRANCH  14  17
ENDBRANCH   6  13
BRANCH   1  25
ATOM     25  O   UNL     1       1.500   3.929  18.817  0.00  0.00    +0.000 OA
BRANCH  25  27
ATOM     26  C   UNL     1       1.613   3.310  21.148  0.00  0.00    +0.000 C 
ATOM     27  C   UNL     1       1.599   2.813  19.716  0.00  0.00    +0.000 C 
ENDBRANCH  25  27
ENDBRANCH   1  25
TORSDOF 7
ENDMDL
MODEL 3
REMARK VINA RESULT:      -7.7      0.983      1.052
REMARK  Name = 
REMARK  9 active torsions:
REMARK  status: ('A' for Active; 'I' for Inactive)
REMARK    1  A    between atoms: C_1  and  C_2
REMARK    2  A    between atoms: C_2  and  O_3
REMARK    3  A    between atoms: O_3  and  C_4
REMARK    4  A    between atoms: C_7  and  C_8
REMARK    5  A    between atoms: N_10  and  O_11
REMARK    6  A    between atoms: C_13  and  N_14
REMARK    7  A    between atoms: C_15  and  C_17
REMARK    8  A    between atoms: C_20  and  O_21
REMARK    9  A    between atoms: O_21  and  C_22
REMARK                            x       y       z     vdW  Elec       q    Type
REMARK                         _______ _______ _______ _____ _____    ______ ____
ROOT
ATOM      1  C   UNL     1       2.512   4.534  18.058  0.00  0.00    +0.000 A 
ATOM      2  C   UNL     1       3.299   3.753  17.195  0.00  0.00    +0.000 A 
ATOM      3  C   UNL     1       4.574   4.172  16.809  0.00  0.00    +0.000 A 
ATOM      4  C   UNL     1       5.081   5.386  17.269  0.00  0.00    +0.000 A 
ATOM      5  C   UNL     1       4.283   6.182  18.094  0.00  0.00    +0.000 A 
ATOM      6  C   UNL     1       2.985   5.799  18.465  0.00  0.00    +0.000 A 
ENDROOT
BRANCH   4   7
ATOM      7  C   UNL     1       6.468   5.772  16.882  0.00  0.00    +0.000 C 
ATOM      8  O   UNL     1       7.240   4.944  16.402  0.00  0.00    +0.000 OA
ATOM      9  N   UNL     1       6.850   7.082  17.064  0.00  0.00    +0.000 N 
ATOM     10  H   UNL     1       6.229   7.862  17.257  0.00  0.00    +0.000 HD
BRANCH   9  11
ATOM     11  O   UNL     1       8.138   7.412  16.583  0.00  0.00    +0.000 OA
ATOM     12  H   UNL     1       8.718   6.916  17.202  0.00  0.00    +0.000 HD
ENDBRANCH   9  11
ENDBRANCH   4   7
BRANCH   6  13
ATOM     13  N   UNL     1       2.172   6.645  19.276  0.00  0.00    +0.000 N 
ATOM     14  C   UNL     1       1.901   7.980  19.005  0.00  0.00    +0.000 C 
ATOM     15  O   UNL     1       2.217   8.572  17.970  0.00  0.00    +0.000 OA
ATOM     16  H   UNL     1       1.737   6.183  20.064  0.00  0.00    +0.000 HD
BRANCH  14  17
ATOM     17  C   UNL     1       1.191   8.795  20.031  0.00  0.00    +0.000 A 
ATOM     18  C   UNL     1       1.327   8.388  21.370  0.00  0.00    +0.000 A 
ATOM     19  C   UNL     1       0.740   9.118  22.403  0.00  0.00    +0.000 A 
ATOM     20  C   UNL     1       0.025  10.277  22.117  0.00  0.00    +0.000 A 
ATOM     21  C   UNL     1      -0.134  10.678  20.787  0.00  0.00    +0.000 A 
ATOM     22  C   UNL     1       0.449   9.941  19.742  0.00  0.00    +0.000 A 
BRANCH  20  23
ATOM     23  O   UNL     1      -0.491  10.923  23.206  0.00  0.00    +0.000 OA
ATOM     24  C   UNL     1      -1.192  12.129  22.927  0.00  0.00    +0.000 C 
ENDBRANCH  20  23
ENDBRANCH  14  17
ENDBRANCH   6  13
BRANCH   1  25
ATOM     25  O   UNL     1       1.286   4.125  18.537  0.00  0.00    +0.000 OA
BRANCH  25  27
ATOM     26  C   UNL     1       1.220   3.359  20.826  0.00  0.00    +0.000 C 
ATOM     27  C   UNL     1       1.327   2.955  19.369  0.00  0.00    +0.000 C 
ENDBRANCH  25  27
ENDBRANCH   1  25
TORSDOF 7
ENDMDL
MODEL 4
REMARK VINA RESULT:      -7.6      0.999      1.015
REMARK  Name = 
REMARK  9 active torsions:
REMARK  status: ('A' for Active; 'I' for Inactive)
REMARK    1  A    between atoms: C_1  and  C_2
REMARK    2  A    between atoms: C_2  and  O_3
REMARK    3  A    between atoms: O_3  and  C_4
REMARK    4  A    between atoms: C_7  and  C_8
REMARK    5  A    between atoms: N_10  and  O_11
REMARK    6  A    between atoms: C_13  and  N_14
REMARK    7  A    between atoms: C_15  and  C_17
REMARK    8  A    between atoms: C_20  and  O_21
REMARK    9  A    between atoms: O_21  and  C_22
REMARK                            x       y       z     vdW  Elec       q    Type
REMARK                         _______ _______ _______ _____ _____    ______ ____
ROOT
ATOM      1  C   UNL     1       2.623   4.530  17.714  0.00  0.00    +0.000 A 
ATOM      2  C   UNL     1       3.295   3.457  17.106  0.00  0.00    +0.000 A 
ATOM      3  C   UNL     1       4.570   3.623  16.562  0.00  0.00    +0.000 A 
ATOM      4  C   UNL     1       5.192   4.870  16.605  0.00  0.00    +0.000 A 
ATOM      5  C   UNL     1       4.507   5.947  17.172  0.00  0.00    +0.000 A 
ATOM      6  C   UNL     1       3.211   5.812  17.692  0.00  0.00    +0.000 A 
ENDROOT
BRANCH   4   7
ATOM      7  C   UNL     1       6.576   4.996  16.066  0.00  0.00    +0.000 C 
ATOM      8  O   UNL     1       7.541   4.591  16.713  0.00  0.00    +0.000 OA
ATOM      9  N   UNL     1       6.738   5.563  14.823  0.00  0.00    +0.000 N 
ATOM     10  H   UNL     1       6.001   5.735  14.146  0.00  0.00    +0.000 HD
BRANCH   9  11
ATOM     11  O   UNL     1       8.060   5.561  14.321  0.00  0.00    +0.000 OA
ATOM     12  H   UNL     1       8.556   5.984  15.056  0.00  0.00    +0.000 HD
ENDBRANCH   9  11
ENDBRANCH   4   7
BRANCH   6  13
ATOM     13  N   UNL     1       2.513   6.933  18.231  0.00  0.00    +0.000 N 
ATOM     14  C   UNL     1       2.323   7.170  19.587  0.00  0.00    +0.000 C 
ATOM     15  O   UNL     1       2.837   6.521  20.500  0.00  0.00    +0.000 OA
ATOM     16  H   UNL     1       2.200   7.607  17.543  0.00  0.00    +0.000 HD
BRANCH  14  17
ATOM     17  C   UNL     1       1.419   8.279  20.004  0.00  0.00    +0.000 A 
ATOM     18  C   UNL     1       0.831   8.174  21.277  0.00  0.00    +0.000 A 
ATOM     19  C   UNL     1       0.012   9.188  21.773  0.00  0.00    +0.000 A 
ATOM     20  C   UNL     1      -0.217  10.331  21.015  0.00  0.00    +0.000 A 
ATOM     21  C   UNL     1       0.346  10.436  19.739  0.00  0.00    +0.000 A 
ATOM     22  C   UNL     1       1.165   9.413  19.232  0.00  0.00    +0.000 A 
BRANCH  20  23
ATOM     23  O   UNL     1      -1.020  11.268  21.605  0.00  0.00    +0.000 OA
ATOM     24  C   UNL     1      -1.223  11.105  23.004  0.00  0.00    +0.000 C 
ENDBRANCH  20  23
ENDBRANCH  14  17
ENDBRANCH   6  13
BRANCH   1  25
ATOM     25  O   UNL     1       1.403   4.397  18.342  0.00  0.00    +0.000 OA
BRANCH  25  27
ATOM     26  C   UNL     1       1.164   3.436  20.545  0.00  0.00    +0.000 C 
ATOM     27  C   UNL     1       1.226   3.163  19.054  0.00  0.00    +0.000 C 
ENDBRANCH  25  27
ENDBRANCH   1  25
TORSDOF 7
ENDMDL
MODEL 5
REMARK VINA RESULT:      -7.4      1.013      1.204
REMARK  Name = 
REMARK  9 active torsions:
REMARK  status: ('A' for Active; 'I' for Inactive)
REMARK    1  A    between atoms: C_1  and  C_2
REMARK    2  A    between atoms: C_2  and  O_3
REMARK    3  A    between atoms: O_3  and  C_4
REMARK    4  A    between atoms: C_7  and  C_8
REMARK    5  A    between atoms: N_10  and  O_11
REMARK    6  A    between atoms: C_13  and  N_14
REMARK    7  A    between atoms: C_15  and  C_17
REMARK    8  A    between atoms: C_20  and  O_21
REMARK    9  A    between atoms: O_21  and  C_22
REMARK                            x       y       z     vdW  Elec       q    Type
REMARK                         _______ _______ _______ _____ _____    ______ ____
ROOT
ATOM      1  C   UNL     1       2.310   4.154  17.832  0.00  0.00    +0.000 A 
ATOM      2  C   UNL     1       3.015   3.223  17.051  0.00  0.00    +0.000 A 
ATOM      3  C   UNL     1       4.384   3.371  16.819  0.00  0.00    +0.000 A 
ATOM      4  C   UNL     1       5.071   4.459  17.355  0.00  0.00    +0.000 A 
ATOM      5  C   UNL     1       4.362   5.407  18.097  0.00  0.00    +0.000 A 
ATOM      6  C   UNL     1       2.980   5.298  18.311  0.00  0.00    +0.000 A 
ENDROOT
BRANCH   4   7
ATOM      7  C   UNL     1       6.543   4.552  17.135  0.00  0.00    +0.000 C 
ATOM      8  O   UNL     1       6.994   5.119  16.140  0.00  0.00    +0.000 OA
ATOM      9  N   UNL     1       7.376   4.001  18.082  0.00  0.00    +0.000 N 
ATOM     10  H   UNL     1       7.103   3.703  19.013  0.00  0.00    +0.000 HD
BRANCH   9  11
ATOM     11  O   UNL     1       8.758   4.212  17.872  0.00  0.00    +0.000 OA
ATOM     12  H   UNL     1       8.990   3.462  17.282  0.00  0.00    +0.000 HD
ENDBRANCH   9  11
ENDBRANCH   4   7
BRANCH   6  13
ATOM     13  N   UNL     1       2.268   6.298  19.038  0.00  0.00    +0.000 N 
ATOM     14  C   UNL     1       2.190   7.637  18.676  0.00  0.00    +0.000 C 
ATOM     15  O   UNL     1       2.612   8.112  17.619  0.00  0.00    +0.000 OA
ATOM     16  H   UNL     1       1.752   5.952  19.837  0.00  0.00    +0.000 HD
BRANCH  14  17
ATOM     17  C   UNL     1       1.570   8.605  19.624  0.00  0.00    +0.000 A 
ATOM     18  C   UNL     1       1.454   8.197  20.964  0.00  0.00    +0.000 A 
ATOM     19  C   UNL     1       0.933   9.055  21.931  0.00  0.00    +0.000 A 
ATOM     20  C   UNL     1       0.538  10.342  21.581  0.00  0.00    +0.000 A 
ATOM     21  C   UNL     1       0.630  10.750  20.246  0.00  0.00    +0.000 A 
ATOM     22  C   UNL     1       1.146   9.886  19.266  0.00  0.00    +0.000 A 
BRANCH  20  23
ATOM     23  O   UNL     1       0.060  11.103  22.611  0.00  0.00    +0.000 OA
ATOM     24  C   UNL     1      -1.175  10.670  23.170  0.00  0.00    +0.000 C 
ENDBRANCH  20  23
ENDBRANCH  14  17
ENDBRANCH   6  13
BRANCH   1  25
ATOM     25  O   UNL     1       0.979   4.007  18.162  0.00  0.00    +0.000 OA
BRANCH  25  27
ATOM     26  C   UNL     1       0.921   3.204  20.438  0.00  0.00    +0.000 C 
ATOM     27  C   UNL     1       0.687   2.863  18.980  0.00  0.00    +0.000 C 
ENDBRANCH  25  27
ENDBRANCH   1  25
TORSDOF 7
ENDMDL
MODEL 6
REMARK VINA RESULT:      -7.4      1.103      1.531
REMARK  Name = 
REMARK  9 active torsions:
REMARK  status: ('A' for Active; 'I' for Inactive)
REMARK    1  A    between atoms: C_1  and  C_2
REMARK    2  A    between atoms: C_2  and  O_3
REMARK    3  A    between atoms: O_3  and  C_4
REMARK    4  A    between atoms: C_7  and  C_8
REMARK    5  A    between atoms: N_10  and  O_11
REMARK    6  A    between atoms: C_13  and  N_14
REMARK    7  A    between atoms: C_15  and  C_17
REMARK    8  A    between atoms: C_20  and  O_21
REMARK    9  A    between atoms: O_21  and  C_22
REMARK                            x       y       z     vdW  Elec       q    Type
REMARK                         _______ _______ _______ _____ _____    ______ ____
ROOT
ATOM      1  C   UNL     1       2.473   4.570  18.210  0.00  0.00    +0.000 A 
ATOM      2  C   UNL     1       3.248   3.816  17.313  0.00  0.00    +0.000 A 
ATOM      3  C   UNL     1       4.520   4.244  16.927  0.00  0.00    +0.000 A 
ATOM      4  C   UNL     1       5.036   5.440  17.422  0.00  0.00    +0.000 A 
ATOM      5  C   UNL     1       4.249   6.211  18.282  0.00  0.00    +0.000 A 
ATOM      6  C   UNL     1       2.954   5.819  18.654  0.00  0.00    +0.000 A 
ENDROOT
BRANCH   4   7
ATOM      7  C   UNL     1       6.420   5.835  17.033  0.00  0.00    +0.000 C 
ATOM      8  O   UNL     1       7.220   4.997  16.619  0.00  0.00    +0.000 OA
ATOM      9  N   UNL     1       6.767   7.163  17.137  0.00  0.00    +0.000 N 
ATOM     10  H   UNL     1       6.126   7.938  17.270  0.00  0.00    +0.000 HD
BRANCH   9  11
ATOM     11  O   UNL     1       8.055   7.493  16.656  0.00  0.00    +0.000 OA
ATOM     12  H   UNL     1       8.052   8.474  16.726  0.00  0.00    +0.000 HD
ENDBRANCH   9  11
ENDBRANCH   4   7
BRANCH   6  13
ATOM     13  N   UNL     1       2.153   6.640  19.501  0.00  0.00    +0.000 N 
ATOM     14  C   UNL     1       1.870   7.980  19.269  0.00  0.00    +0.000 C 
ATOM     15  O   UNL     1       2.163   8.600  18.244  0.00  0.00    +0.000 OA
ATOM     16  H   UNL     1       1.735   6.156  20.286  0.00  0.00    +0.000 HD
BRANCH  14  17
ATOM     17  C   UNL     1       1.176   8.764  20.329  0.00  0.00    +0.000 A 
ATOM     18  C   UNL     1       0.310   9.786  19.899  0.00  0.00    +0.000 A 
ATOM     19  C   UNL     1      -0.421  10.538  20.818  0.00  0.00    +0.000 A 
ATOM     20  C   UNL     1      -0.316  10.269  22.178  0.00  0.00    +0.000 A 
ATOM     21  C   UNL     1       0.557   9.269  22.617  0.00  0.00    +0.000 A 
ATOM     22  C   UNL     1       1.303   8.514  21.696  0.00  0.00    +0.000 A 
BRANCH  20  23
ATOM     23  O   UNL     1      -1.091  11.054  22.986  0.00  0.00    +0.000 OA
ATOM     24  C   UNL     1      -0.983  12.455  22.765  0.00  0.00    +0.000 C 
ENDBRANCH  20  23
ENDBRANCH  14  17
ENDBRANCH   6  13
BRANCH   1  25
ATOM     25  O   UNL     1       1.251   4.149  18.689  0.00  0.00    +0.000 OA
BRANCH  25  27
ATOM     26  C   UNL     1       1.291   3.060  20.844  0.00  0.00    +0.000 C 
ATOM     27  C   UNL     1       1.270   2.869  19.340  0.00  0.00    +0.000 C 
ENDBRANCH  25  27
ENDBRANCH   1  25
TORSDOF 7
ENDMDL
MODEL 7
REMARK VINA RESULT:      -7.4      1.180      1.589
REMARK  Name = 
REMARK  9 active torsions:
REMARK  status: ('A' for Active; 'I' for Inactive)
REMARK    1  A    between atoms: C_1  and  C_2
REMARK    2  A    between atoms: C_2  and  O_3
REMARK    3  A    between atoms: O_3  and  C_4
REMARK    4  A    between atoms: C_7  and  C_8
REMARK    5  A    between atoms: N_10  and  O_11
REMARK    6  A    between atoms: C_13  and  N_14
REMARK    7  A    between atoms: C_15  and  C_17
REMARK    8  A    between atoms: C_20  and  O_21
REMARK    9  A    between atoms: O_21  and  C_22
REMARK                            x       y       z     vdW  Elec       q    Type
REMARK                         _______ _______ _______ _____ _____    ______ ____
ROOT
ATOM      1  C   UNL     1       3.479   4.317  19.335  0.00  0.00    +0.000 A 
ATOM      2  C   UNL     1       4.134   3.433  18.461  0.00  0.00    +0.000 A 
ATOM      3  C   UNL     1       4.829   3.908  17.347  0.00  0.00    +0.000 A 
ATOM      4  C   UNL     1       4.870   5.275  17.078  0.00  0.00    +0.000 A 
ATOM      5  C   UNL     1       4.184   6.151  17.923  0.00  0.00    +0.000 A 
ATOM      6  C   UNL     1       3.450   5.693  19.028  0.00  0.00    +0.000 A 
ENDROOT
BRANCH   4   7
ATOM      7  C   UNL     1       5.669   5.749  15.912  0.00  0.00    +0.000 C 
ATOM      8  O   UNL     1       5.320   6.742  15.274  0.00  0.00    +0.000 OA
ATOM      9  N   UNL     1       6.811   5.055  15.583  0.00  0.00    +0.000 N 
ATOM     10  H   UNL     1       7.276   4.364  16.164  0.00  0.00    +0.000 HD
BRANCH   9  11
ATOM     11  O   UNL     1       7.581   5.612  14.536  0.00  0.00    +0.000 OA
ATOM     12  H   UNL     1       7.479   6.575  14.701  0.00  0.00    +0.000 HD
ENDBRANCH   9  11
ENDBRANCH   4   7
BRANCH   6  13
ATOM     13  N   UNL     1       2.724   6.600  19.855  0.00  0.00    +0.000 N 
ATOM     14  C   UNL     1       2.011   7.699  19.391  0.00  0.00    +0.000 C 
ATOM     15  O   UNL     1       1.803   7.959  18.204  0.00  0.00    +0.000 OA
ATOM     16  H   UNL     1       2.710   6.357  20.838  0.00  0.00    +0.000 HD
BRANCH  14  17
ATOM     17  C   UNL     1       1.455   8.666  20.378  0.00  0.00    +0.000 A 
ATOM     18  C   UNL     1       0.944   9.872  19.867  0.00  0.00    +0.000 A 
ATOM     19  C   UNL     1       0.357  10.816  20.710  0.00  0.00    +0.000 A 
ATOM     20  C   UNL     1       0.253  10.561  22.074  0.00  0.00    +0.000 A 
ATOM     21  C   UNL     1       0.777   9.374  22.595  0.00  0.00    +0.000 A 
ATOM     22  C   UNL     1       1.377   8.424  21.751  0.00  0.00    +0.000 A 
BRANCH  20  23
ATOM     23  O   UNL     1      -0.355  11.545  22.802  0.00  0.00    +0.000 OA
ATOM     24  C   UNL     1      -1.773  11.461  22.880  0.00  0.00    +0.000 C 
ENDBRANCH  20  23
ENDBRANCH  14  17
ENDBRANCH   6  13
BRANCH   1  25
ATOM     25  O   UNL     1       2.856   3.907  20.494  0.00  0.00    +0.000 OA
BRANCH  25  27
ATOM     26  C   UNL     1       0.805   3.060  19.542  0.00  0.00    +0.000 C 
ATOM     27  C   UNL     1       2.043   2.732  20.355  0.00  0.00    +0.000 C 
ENDBRANCH  25  27
ENDBRANCH   1  25
TORSDOF 7
ENDMDL
MODEL 8
REMARK VINA RESULT:      -7.4      1.508      2.013
REMARK  Name = 
REMARK  9 active torsions:
REMARK  status: ('A' for Active; 'I' for Inactive)
REMARK    1  A    between atoms: C_1  and  C_2
REMARK    2  A    between atoms: C_2  and  O_3
REMARK    3  A    between atoms: O_3  and  C_4
REMARK    4  A    between atoms: C_7  and  C_8
REMARK    5  A    between atoms: N_10  and  O_11
REMARK    6  A    between atoms: C_13  and  N_14
REMARK    7  A    between atoms: C_15  and  C_17
REMARK    8  A    between atoms: C_20  and  O_21
REMARK    9  A    between atoms: O_21  and  C_22
REMARK                            x       y       z     vdW  Elec       q    Type
REMARK                         _______ _______ _______ _____ _____    ______ ____
ROOT
ATOM      1  C   UNL     1       2.764   4.672  18.107  0.00  0.00    +0.000 A 
ATOM      2  C   UNL     1       3.618   3.804  17.406  0.00  0.00    +0.000 A 
ATOM      3  C   UNL     1       5.005   3.895  17.543  0.00  0.00    +0.000 A 
ATOM      4  C   UNL     1       5.564   4.864  18.375  0.00  0.00    +0.000 A 
ATOM      5  C   UNL     1       4.716   5.755  19.039  0.00  0.00    +0.000 A 
ATOM      6  C   UNL     1       3.322   5.705  18.887  0.00  0.00    +0.000 A 
ENDROOT
BRANCH   4   7
ATOM      7  C   UNL     1       7.045   4.895  18.541  0.00  0.00    +0.000 C 
ATOM      8  O   UNL     1       7.788   4.677  17.585  0.00  0.00    +0.000 OA
ATOM      9  N   UNL     1       7.551   5.188  19.787  0.00  0.00    +0.000 N 
ATOM     10  H   UNL     1       7.028   5.574  20.566  0.00  0.00    +0.000 HD
BRANCH   9  11
ATOM     11  O   UNL     1       8.958   5.305  19.858  0.00  0.00    +0.000 OA
ATOM     12  H   UNL     1       9.130   6.056  19.249  0.00  0.00    +0.000 HD
ENDBRANCH   9  11
ENDBRANCH   4   7
BRANCH   6  13
ATOM     13  N   UNL     1       2.477   6.648  19.544  0.00  0.00    +0.000 N 
ATOM     14  C   UNL     1       2.097   7.875  19.014  0.00  0.00    +0.000 C 
ATOM     15  O   UNL     1       2.329   8.254  17.864  0.00  0.00    +0.000 OA
ATOM     16  H   UNL     1       2.107   6.336  20.433  0.00  0.00    +0.000 HD
BRANCH  14  17
ATOM     17  C   UNL     1       1.364   8.839  19.883  0.00  0.00    +0.000 A 
ATOM     18  C   UNL     1       0.767   9.941  19.246  0.00  0.00    +0.000 A 
ATOM     19  C   UNL     1       0.019  10.868  19.971  0.00  0.00    +0.000 A 
ATOM     20  C   UNL     1      -0.164  10.698  21.339  0.00  0.00    +0.000 A 
ATOM     21  C   UNL     1       0.443   9.616  21.986  0.00  0.00    +0.000 A 
ATOM     22  C   UNL     1       1.206   8.685  21.261  0.00  0.00    +0.000 A 
BRANCH  20  23
ATOM     23  O   UNL     1      -0.930  11.654  21.945  0.00  0.00    +0.000 OA
ATOM     24  C   UNL     1      -1.606  11.239  23.126  0.00  0.00    +0.000 C 
ENDBRANCH  20  23
ENDBRANCH  14  17
ENDBRANCH   6  13
BRANCH   1  25
ATOM     25  O   UNL     1       1.390   4.566  18.074  0.00  0.00    +0.000 OA
BRANCH  25  27
ATOM     26  C   UNL     1       0.915   3.267  20.053  0.00  0.00    +0.000 C 
ATOM     27  C   UNL     1       0.873   3.309  18.538  0.00  0.00    +0.000 C 
ENDBRANCH  25  27
ENDBRANCH   1  25
TORSDOF 7
ENDMDL
MODEL 9
REMARK VINA RESULT:      -7.4      1.184      1.604
REMARK  Name = 
REMARK  9 active torsions:
REMARK  status: ('A' for Active; 'I' for Inactive)
REMARK    1  A    between atoms: C_1  and  C_2
REMARK    2  A    between atoms: C_2  and  O_3
REMARK    3  A    between atoms: O_3  and  C_4
REMARK    4  A    between atoms: C_7  and  C_8
REMARK    5  A    between atoms: N_10  and  O_11
REMARK    6  A    between atoms: C_13  and  N_14
REMARK    7  A    between atoms: C_15  and  C_17
REMARK    8  A    between atoms: C_20  and  O_21
REMARK    9  A    between atoms: O_21  and  C_22
REMARK                            x       y       z     vdW  Elec       q    Type
REMARK                         _______ _______ _______ _____ _____    ______ ____
ROOT
ATOM      1  C   UNL     1       2.747   4.584  17.724  0.00  0.00    +0.000 A 
ATOM      2  C   UNL     1       3.411   3.512  17.104  0.00  0.00    +0.000 A 
ATOM      3  C   UNL     1       4.675   3.681  16.537  0.00  0.00    +0.000 A 
ATOM      4  C   UNL     1       5.296   4.929  16.569  0.00  0.00    +0.000 A 
ATOM      5  C   UNL     1       4.618   6.005  17.150  0.00  0.00    +0.000 A 
ATOM      6  C   UNL     1       3.332   5.866  17.692  0.00  0.00    +0.000 A 
ENDROOT
BRANCH   4   7
ATOM      7  C   UNL     1       6.669   5.059  16.005  0.00  0.00    +0.000 C 
ATOM      8  O   UNL     1       7.649   4.678  16.645  0.00  0.00    +0.000 OA
ATOM      9  N   UNL     1       6.805   5.600  14.747  0.00  0.00    +0.000 N 
ATOM     10  H   UNL     1       6.056   5.749  14.079  0.00  0.00    +0.000 HD
BRANCH   9  11
ATOM     11  O   UNL     1       8.119   5.601  14.225  0.00  0.00    +0.000 OA
ATOM     12  H   UNL     1       8.025   5.014  13.442  0.00  0.00    +0.000 HD
ENDBRANCH   9  11
ENDBRANCH   4   7
BRANCH   6  13
ATOM     13  N   UNL     1       2.642   6.986  18.245  0.00  0.00    +0.000 N 
ATOM     14  C   UNL     1       2.359   7.155  19.595  0.00  0.00    +0.000 C 
ATOM     15  O   UNL     1       2.776   6.432  20.503  0.00  0.00    +0.000 OA
ATOM     16  H   UNL     1       2.410   7.711  17.577  0.00  0.00    +0.000 HD
BRANCH  14  17
ATOM     17  C   UNL     1       1.473   8.278  20.010  0.00  0.00    +0.000 A 
ATOM     18  C   UNL     1       1.222   9.277  19.053  0.00  0.00    +0.000 A 
ATOM     19  C   UNL     1       0.364  10.340  19.335  0.00  0.00    +0.000 A 
ATOM     20  C   UNL     1      -0.273  10.411  20.569  0.00  0.00    +0.000 A 
ATOM     21  C   UNL     1      -0.015   9.434  21.535  0.00  0.00    +0.000 A 
ATOM     22  C   UNL     1       0.855   8.366  21.259  0.00  0.00    +0.000 A 
BRANCH  20  23
ATOM     23  O   UNL     1      -1.106  11.483  20.730  0.00  0.00    +0.000 OA
ATOM     24  C   UNL     1      -0.732  12.660  20.024  0.00  0.00    +0.000 C 
ENDBRANCH  20  23
ENDBRANCH  14  17
ENDBRANCH   6  13
BRANCH   1  25
ATOM     25  O   UNL     1       1.539   4.447  18.374  0.00  0.00    +0.000 OA
BRANCH  25  27
ATOM     26  C   UNL     1       1.061   3.085  20.310  0.00  0.00    +0.000 C 
ATOM     27  C   UNL     1       1.236   3.111  18.804  0.00  0.00    +0.000 C 
ENDBRANCH  25  27
ENDBRANCH   1  25
TORSDOF 7
ENDMDL
