MODEL 1
REMARK VINA RESULT:      -6.3      0.000      0.000
REMARK  Name = 
REMARK  9 active torsions:
REMARK  status: ('A' for Active; 'I' for Inactive)
REMARK    1  A    between atoms: C_1  and  O_2
REMARK    2  A    between atoms: O_2  and  C_3
REMARK    3  A    between atoms: C_3  and  O_4
REMARK    4  A    between atoms: O_4  and  C_5
REMARK    5  A    between atoms: C_7  and  C_8
REMARK    6  A    between atoms: C_8  and  O_10
REMARK    7  A    between atoms: C_12  and  N_13
REMARK    8  A    between atoms: C_14  and  N_15
REMARK    9  A    between atoms: C_16  and  C_17
REMARK                            x       y       z     vdW  Elec       q    Type
REMARK                         _______ _______ _______ _____ _____    ______ ____
ROOT
ATOM      1  C   UNL     1       6.145   4.543  18.315  0.00  0.00    +0.000 C 
ATOM      2  C   UNL     1       6.795   4.526  16.948  0.00  0.00    +0.000 C 
ATOM      3  C   UNL     1       6.120   4.441  15.786  0.00  0.00    +0.000 C 
ATOM      4  C   UNL     1       4.639   4.163  15.749  0.00  0.00    +0.000 C 
ATOM      5  C   UNL     1       4.134   3.583  17.088  0.00  0.00    +0.000 C 
ATOM      6  C   UNL     1       4.581   4.542  18.228  0.00  0.00    +0.000 C 
ENDROOT
BRANCH   6   7
ATOM      7  N   UNL     1       3.894   4.291  19.505  0.00  0.00    +0.000 N 
ATOM      8  C   UNL     1       2.725   4.905  19.880  0.00  0.00    +0.000 C 
ATOM      9  C   UNL     1       2.222   4.510  21.243  0.00  0.00    +0.000 C 
ATOM     10  O   UNL     1       2.154   5.732  19.184  0.00  0.00    +0.000 OA
ATOM     11  H   UNL     1       4.290   3.588  20.112  0.00  0.00    +0.000 HD
ENDBRANCH   6   7
BRANCH   5  12
ATOM     12  N   UNL     1       2.680   3.348  17.018  0.00  0.00    +0.000 NA
ATOM     13  H   UNL     1       2.171   4.226  16.973  0.00  0.00    +0.000 HD
ATOM     14  H   UNL     1       2.393   2.879  17.876  0.00  0.00    +0.000 HD
ENDBRANCH   5  12
BRANCH   3  15
ATOM     15  C   UNL     1       6.799   4.514  14.466  0.00  0.00    +0.000 C 
ATOM     16  O   UNL     1       7.640   5.356  14.198  0.00  0.00    +0.000 OA
BRANCH  15  17
ATOM     17  O   UNL     1       6.459   3.534  13.606  0.00  0.00    +0.000 OA
ATOM     18  H   UNL     1       6.099   3.837  12.755  0.00  0.00    +0.000 HD
ENDBRANCH  15  17
ENDBRANCH   3  15
BRANCH   1  19
ATOM     19  O   UNL     1       6.549   5.751  18.984  0.00  0.00    +0.000 OA
BRANCH  19  20
ATOM     20  C   UNL     1       7.960   5.953  18.995  0.00  0.00    +0.000 C 
BRANCH  20  22
ATOM     21  C   UNL     1       7.655   7.829  17.598  0.00  0.00    +0.000 C 
ATOM     22  O   UNL     1       8.293   7.317  18.760  0.00  0.00    +0.000 OA
ENDBRANCH  20  22
ENDBRANCH  19  20
ENDBRANCH   1  19
TORSDOF 7
ENDMDL
MODEL 2
REMARK VINA RESULT:      -6.2      2.273      3.167
REMARK  Name = 
REMARK  9 active torsions:
REMARK  status: ('A' for Active; 'I' for Inactive)
REMARK    1  A    between atoms: C_1  and  O_2
REMARK    2  A    between atoms: O_2  and  C_3
REMARK    3  A    between atoms: C_3  and  O_4
REMARK    4  A    between atoms: O_4  and  C_5
REMARK    5  A    between atoms: C_7  and  C_8
REMARK    6  A    between atoms: C_8  and  O_10
REMARK    7  A    between atoms: C_12  and  N_13
REMARK    8  A    between atoms: C_14  and  N_15
REMARK    9  A    between atoms: C_16  and  C_17
REMARK                            x       y       z     vdW  Elec       q    Type
REMARK                         _______ _______ _______ _____ _____    ______ ____
ROOT
ATOM      1  C   UNL     1       4.172   5.459  19.232  0.00  0.00    +0.000 C 
ATOM      2  C   UNL     1       4.853   6.016  18.000  0.00  0.00    +0.000 C 
ATOM      3  C   UNL     1       4.913   5.382  16.813  0.00  0.00    +0.000 C 
ATOM      4  C   UNL     1       4.459   3.954  16.653  0.00  0.00    +0.000 C 
ATOM      5  C   UNL     1       4.357   3.233  18.015  0.00  0.00    +0.000 C 
ATOM      6  C   UNL     1       3.460   4.093  18.950  0.00  0.00    +0.000 C 
ENDROOT
BRANCH   6   7
ATOM      7  N   UNL     1       3.011   3.373  20.152  0.00  0.00    +0.000 N 
ATOM      8  C   UNL     1       1.707   3.330  20.577  0.00  0.00    +0.000 C 
ATOM      9  C   UNL     1       1.491   2.554  21.849  0.00  0.00    +0.000 C 
ATOM     10  O   UNL     1       0.797   3.902  19.995  0.00  0.00    +0.000 OA
ATOM     11  H   UNL     1       3.705   2.843  20.659  0.00  0.00    +0.000 HD
ENDBRANCH   6   7
BRANCH   5  12
ATOM     12  N   UNL     1       3.889   1.849  17.817  0.00  0.00    +0.000 NA
ATOM     13  H   UNL     1       4.665   1.230  17.600  0.00  0.00    +0.000 HD
ATOM     14  H   UNL     1       3.263   1.837  17.014  0.00  0.00    +0.000 HD
ENDBRANCH   5  12
BRANCH   3  15
ATOM     15  C   UNL     1       5.520   6.008  15.608  0.00  0.00    +0.000 C 
ATOM     16  O   UNL     1       5.063   7.008  15.079  0.00  0.00    +0.000 OA
BRANCH  15  17
ATOM     17  O   UNL     1       6.655   5.422  15.183  0.00  0.00    +0.000 OA
ATOM     18  H   UNL     1       7.440   5.994  15.180  0.00  0.00    +0.000 HD
ENDBRANCH  15  17
ENDBRANCH   3  15
BRANCH   1  19
ATOM     19  O   UNL     1       3.169   6.403  19.649  0.00  0.00    +0.000 OA
BRANCH  19  20
ATOM     20  C   UNL     1       2.414   6.948  18.570  0.00  0.00    +0.000 C 
BRANCH  20  22
ATOM     21  C   UNL     1       2.113   9.161  17.810  0.00  0.00    +0.000 C 
ATOM     22  O   UNL     1       1.923   8.247  18.882  0.00  0.00    +0.000 OA
ENDBRANCH  20  22
ENDBRANCH  19  20
ENDBRANCH   1  19
TORSDOF 7
ENDMDL
MODEL 3
REMARK VINA RESULT:      -6.2      2.668      5.299
REMARK  Name = 
REMARK  9 active torsions:
REMARK  status: ('A' for Active; 'I' for Inactive)
REMARK    1  A    between atoms: C_1  and  O_2
REMARK    2  A    between atoms: O_2  and  C_3
REMARK    3  A    between atoms: C_3  and  O_4
REMARK    4  A    between atoms: O_4  and  C_5
REMARK    5  A    between atoms: C_7  and  C_8
REMARK    6  A    between atoms: C_8  and  O_10
REMARK    7  A    between atoms: C_12  and  N_13
REMARK    8  A    between atoms: C_14  and  N_15
REMARK    9  A    between atoms: C_16  and  C_17
REMARK                            x       y       z     vdW  Elec       q    Type
REMARK                         _______ _______ _______ _____ _____    ______ ____
ROOT
ATOM      1  C   UNL     1       3.061   5.843  18.228  0.00  0.00    +0.000 C 
ATOM      2  C   UNL     1       2.072   4.711  18.407  0.00  0.00    +0.000 C 
ATOM      3  C   UNL     1       2.386   3.405  18.315  0.00  0.00    +0.000 C 
ATOM      4  C   UNL     1       3.740   2.948  17.835  0.00  0.00    +0.000 C 
ATOM      5  C   UNL     1       4.489   4.072  17.089  0.00  0.00    +0.000 C 
ATOM      6  C   UNL     1       4.523   5.324  18.012  0.00  0.00    +0.000 C 
ENDROOT
BRANCH   6   7
ATOM      7  N   UNL     1       5.481   6.350  17.570  0.00  0.00    +0.000 N 
ATOM      8  C   UNL     1       6.786   6.411  17.989  0.00  0.00    +0.000 C 
ATOM      9  C   UNL     1       7.570   7.565  17.423  0.00  0.00    +0.000 C 
ATOM     10  O   UNL     1       7.269   5.617  18.784  0.00  0.00    +0.000 OA
ATOM     11  H   UNL     1       5.160   7.015  16.881  0.00  0.00    +0.000 HD
ENDBRANCH   6   7
BRANCH   5  12
ATOM     12  N   UNL     1       5.815   3.593  16.657  0.00  0.00    +0.000 NA
ATOM     13  H   UNL     1       6.427   4.371  16.427  0.00  0.00    +0.000 HD
ATOM     14  H   UNL     1       5.693   3.047  15.805  0.00  0.00    +0.000 HD
ENDBRANCH   5  12
BRANCH   3  15
ATOM     15  C   UNL     1       1.396   2.329  18.584  0.00  0.00    +0.000 C 
ATOM     16  O   UNL     1       0.198   2.470  18.406  0.00  0.00    +0.000 OA
BRANCH  15  17
ATOM     17  O   UNL     1       1.934   1.159  18.980  0.00  0.00    +0.000 OA
ATOM     18  H   UNL     1       1.544   0.775  19.783  0.00  0.00    +0.000 HD
ENDBRANCH  15  17
ENDBRANCH   3  15
BRANCH   1  19
ATOM     19  O   UNL     1       3.046   6.638  19.426  0.00  0.00    +0.000 OA
BRANCH  19  20
ATOM     20  C   UNL     1       2.189   7.774  19.348  0.00  0.00    +0.000 C 
BRANCH  20  22
ATOM     21  C   UNL     1       1.356   9.485  17.953  0.00  0.00    +0.000 C 
ATOM     22  O   UNL     1       2.170   8.323  18.034  0.00  0.00    +0.000 OA
ENDBRANCH  20  22
ENDBRANCH  19  20
ENDBRANCH   1  19
TORSDOF 7
ENDMDL
MODEL 4
REMARK VINA RESULT:      -6.1      1.135      1.135
REMARK  Name = 
REMARK  9 active torsions:
REMARK  status: ('A' for Active; 'I' for Inactive)
REMARK    1  A    between atoms: C_1  and  O_2
REMARK    2  A    between atoms: O_2  and  C_3
REMARK    3  A    between atoms: C_3  and  O_4
REMARK    4  A    between atoms: O_4  and  C_5
REMARK    5  A    between atoms: C_7  and  C_8
REMARK    6  A    between atoms: C_8  and  O_10
REMARK    7  A    between atoms: C_12  and  N_13
REMARK    8  A    between atoms: C_14  and  N_15
REMARK    9  A    between atoms: C_16  and  C_17
REMARK                            x       y       z     vdW  Elec       q    Type
REMARK                         _______ _______ _______ _____ _____    ______ ____
ROOT
ATOM      1  C   UNL     1       5.940   4.403  18.501  0.00  0.00    +0.000 C 
ATOM      2  C   UNL     1       6.635   4.368  17.157  0.00  0.00    +0.000 C 
ATOM      3  C   UNL     1       5.998   4.393  15.971  0.00  0.00    +0.000 C 
ATOM      4  C   UNL     1       4.499   4.270  15.874  0.00  0.00    +0.000 C 
ATOM      5  C   UNL     1       3.889   3.697  17.171  0.00  0.00    +0.000 C 
ATOM      6  C   UNL     1       4.388   4.565  18.362  0.00  0.00    +0.000 C 
ENDROOT
BRANCH   6   7
ATOM      7  N   UNL     1       3.632   4.340  19.605  0.00  0.00    +0.000 N 
ATOM      8  C   UNL     1       3.387   3.101  20.140  0.00  0.00    +0.000 C 
ATOM      9  C   UNL     1       2.569   3.118  21.404  0.00  0.00    +0.000 C 
ATOM     10  O   UNL     1       3.767   2.063  19.618  0.00  0.00    +0.000 OA
ATOM     11  H   UNL     1       3.323   5.158  20.111  0.00  0.00    +0.000 HD
ENDBRANCH   6   7
BRANCH   5  12
ATOM     12  N   UNL     1       2.422   3.615  17.044  0.00  0.00    +0.000 NA
ATOM     13  H   UNL     1       2.051   4.432  16.570  0.00  0.00    +0.000 HD
ATOM     14  H   UNL     1       2.023   3.606  17.982  0.00  0.00    +0.000 HD
ENDBRANCH   5  12
BRANCH   3  15
ATOM     15  C   UNL     1       6.730   4.443  14.677  0.00  0.00    +0.000 C 
ATOM     16  O   UNL     1       7.586   5.275  14.431  0.00  0.00    +0.000 OA
BRANCH  15  17
ATOM     17  O   UNL     1       6.418   3.453  13.818  0.00  0.00    +0.000 OA
ATOM     18  H   UNL     1       5.483   3.414  13.554  0.00  0.00    +0.000 HD
ENDBRANCH  15  17
ENDBRANCH   3  15
BRANCH   1  19
ATOM     19  O   UNL     1       6.439   5.539  19.229  0.00  0.00    +0.000 OA
BRANCH  19  20
ATOM     20  C   UNL     1       7.835   5.766  19.047  0.00  0.00    +0.000 C 
BRANCH  20  22
ATOM     21  C   UNL     1       7.628   7.592  17.568  0.00  0.00    +0.000 C 
ATOM     22  O   UNL     1       8.114   7.144  18.827  0.00  0.00    +0.000 OA
ENDBRANCH  20  22
ENDBRANCH  19  20
ENDBRANCH   1  19
TORSDOF 7
ENDMDL
MODEL 5
REMARK VINA RESULT:      -6.1      2.263      3.035
REMARK  Name = 
REMARK  9 active torsions:
REMARK  status: ('A' for Active; 'I' for Inactive)
REMARK    1  A    between atoms: C_1  and  O_2
REMARK    2  A    between atoms: O_2  and  C_3
REMARK    3  A    between atoms: C_3  and  O_4
REMARK    4  A    between atoms: O_4  and  C_5
REMARK    5  A    between atoms: C_7  and  C_8
REMARK    6  A    between atoms: C_8  and  O_10
REMARK    7  A    between atoms: C_12  and  N_13
REMARK    8  A    between atoms: C_14  and  N_15
REMARK    9  A    between atoms: C_16  and  C_17
REMARK                            x       y       z     vdW  Elec       q    Type
REMARK                         _______ _______ _______ _____ _____    ______ ____
ROOT
ATOM      1  C   UNL     1       4.370   6.132  17.370  0.00  0.00    +0.000 C 
ATOM      2  C   UNL     1       5.427   6.005  16.294  0.00  0.00    +0.000 C 
ATOM      3  C   UNL     1       5.760   4.849  15.689  0.00  0.00    +0.000 C 
ATOM      4  C   UNL     1       5.231   3.522  16.168  0.00  0.00    +0.000 C 
ATOM      5  C   UNL     1       4.673   3.617  17.604  0.00  0.00    +0.000 C 
ATOM      6  C   UNL     1       3.636   4.775  17.643  0.00  0.00    +0.000 C 
ENDROOT
BRANCH   6   7
ATOM      7  N   UNL     1       2.793   4.764  18.849  0.00  0.00    +0.000 N 
ATOM      8  C   UNL     1       1.606   4.084  18.948  0.00  0.00    +0.000 C 
ATOM      9  C   UNL     1       0.904   4.241  20.271  0.00  0.00    +0.000 C 
ATOM     10  O   UNL     1       1.133   3.430  18.029  0.00  0.00    +0.000 OA
ATOM     11  H   UNL     1       3.143   5.251  19.662  0.00  0.00    +0.000 HD
ENDBRANCH   6   7
BRANCH   5  12
ATOM     12  N   UNL     1       4.145   2.306  18.027  0.00  0.00    +0.000 NA
ATOM     13  H   UNL     1       3.144   2.355  18.198  0.00  0.00    +0.000 HD
ATOM     14  H   UNL     1       4.587   2.055  18.910  0.00  0.00    +0.000 HD
ENDBRANCH   5  12
BRANCH   3  15
ATOM     15  C   UNL     1       6.745   4.790  14.576  0.00  0.00    +0.000 C 
ATOM     16  O   UNL     1       7.670   5.577  14.466  0.00  0.00    +0.000 OA
BRANCH  15  17
ATOM     17  O   UNL     1       6.573   3.757  13.729  0.00  0.00    +0.000 OA
ATOM     18  H   UNL     1       5.671   3.649  13.385  0.00  0.00    +0.000 HD
ENDBRANCH  15  17
ENDBRANCH   3  15
BRANCH   1  19
ATOM     19  O   UNL     1       3.390   7.083  16.919  0.00  0.00    +0.000 OA
BRANCH  19  20
ATOM     20  C   UNL     1       2.969   7.993  17.932  0.00  0.00    +0.000 C 
BRANCH  20  22
ATOM     21  C   UNL     1       1.345   9.652  18.354  0.00  0.00    +0.000 C 
ATOM     22  O   UNL     1       2.202   9.062  17.386  0.00  0.00    +0.000 OA
ENDBRANCH  20  22
ENDBRANCH  19  20
ENDBRANCH   1  19
TORSDOF 7
ENDMDL
MODEL 6
REMARK VINA RESULT:      -6.1      2.329      3.659
REMARK  Name = 
REMARK  9 active torsions:
REMARK  status: ('A' for Active; 'I' for Inactive)
REMARK    1  A    between atoms: C_1  and  O_2
REMARK    2  A    between atoms: O_2  and  C_3
REMARK    3  A    between atoms: C_3  and  O_4
REMARK    4  A    between atoms: O_4  and  C_5
REMARK    5  A    between atoms: C_7  and  C_8
REMARK    6  A    between atoms: C_8  and  O_10
REMARK    7  A    between atoms: C_12  and  N_13
REMARK    8  A    between atoms: C_14  and  N_15
REMARK    9  A    between atoms: C_16  and  C_17
REMARK                            x       y       z     vdW  Elec       q    Type
REMARK                         _______ _______ _______ _____ _____    ______ ____
ROOT
ATOM      1  C   UNL     1       3.626   6.049  18.689  0.00  0.00    +0.000 C 
ATOM      2  C   UNL     1       4.669   6.396  17.648  0.00  0.00    +0.000 C 
ATOM      3  C   UNL     1       5.511   5.506  17.090  0.00  0.00    +0.000 C 
ATOM      4  C   UNL     1       5.617   4.090  17.596  0.00  0.00    +0.000 C 
ATOM      5  C   UNL     1       5.019   3.945  19.012  0.00  0.00    +0.000 C 
ATOM      6  C   UNL     1       3.571   4.511  18.984  0.00  0.00    +0.000 C 
ENDROOT
BRANCH   6   7
ATOM      7  N   UNL     1       2.775   4.140  20.165  0.00  0.00    +0.000 N 
ATOM      8  C   UNL     1       2.043   2.985  20.262  0.00  0.00    +0.000 C 
ATOM      9  C   UNL     1       1.287   2.832  21.556  0.00  0.00    +0.000 C 
ATOM     10  O   UNL     1       1.976   2.160  19.362  0.00  0.00    +0.000 OA
ATOM     11  H   UNL     1       2.818   4.758  20.963  0.00  0.00    +0.000 HD
ENDBRANCH   6   7
BRANCH   5  12
ATOM     12  N   UNL     1       5.121   2.544  19.461  0.00  0.00    +0.000 NA
ATOM     13  H   UNL     1       5.934   2.411  20.056  0.00  0.00    +0.000 HD
ATOM     14  H   UNL     1       5.253   1.956  18.639  0.00  0.00    +0.000 HD
ENDBRANCH   5  12
BRANCH   3  15
ATOM     15  C   UNL     1       6.461   5.880  16.008  0.00  0.00    +0.000 C 
ATOM     16  O   UNL     1       6.235   5.676  14.827  0.00  0.00    +0.000 OA
BRANCH  15  17
ATOM     17  O   UNL     1       7.566   6.523  16.431  0.00  0.00    +0.000 OA
ATOM     18  H   UNL     1       7.447   7.469  16.618  0.00  0.00    +0.000 HD
ENDBRANCH  15  17
ENDBRANCH   3  15
BRANCH   1  19
ATOM     19  O   UNL     1       2.341   6.448  18.179  0.00  0.00    +0.000 OA
BRANCH  19  20
ATOM     20  C   UNL     1       2.179   7.861  18.082  0.00  0.00    +0.000 C 
BRANCH  20  22
ATOM     21  C   UNL     1       1.046   9.619  19.173  0.00  0.00    +0.000 C 
ATOM     22  O   UNL     1       1.809   8.430  19.333  0.00  0.00    +0.000 OA
ENDBRANCH  20  22
ENDBRANCH  19  20
ENDBRANCH   1  19
TORSDOF 7
ENDMDL
MODEL 7
REMARK VINA RESULT:      -6.1      2.899      4.715
REMARK  Name = 
REMARK  9 active torsions:
REMARK  status: ('A' for Active; 'I' for Inactive)
REMARK    1  A    between atoms: C_1  and  O_2
REMARK    2  A    between atoms: O_2  and  C_3
REMARK    3  A    between atoms: C_3  and  O_4
REMARK    4  A    between atoms: O_4  and  C_5
REMARK    5  A    between atoms: C_7  and  C_8
REMARK    6  A    between atoms: C_8  and  O_10
REMARK    7  A    between atoms: C_12  and  N_13
REMARK    8  A    between atoms: C_14  and  N_15
REMARK    9  A    between atoms: C_16  and  C_17
REMARK                            x       y       z     vdW  Elec       q    Type
REMARK                         _______ _______ _______ _____ _____    ______ ____
ROOT
ATOM      1  C   UNL     1       5.301   4.591  15.116  0.00  0.00    +0.000 C 
ATOM      2  C   UNL     1       4.909   3.791  13.892  0.00  0.00    +0.000 C 
ATOM      3  C   UNL     1       5.752   3.469  12.893  0.00  0.00    +0.000 C 
ATOM      4  C   UNL     1       7.143   4.044  12.813  0.00  0.00    +0.000 C 
ATOM      5  C   UNL     1       7.292   5.299  13.700  0.00  0.00    +0.000 C 
ATOM      6  C   UNL     1       6.830   4.930  15.138  0.00  0.00    +0.000 C 
ENDROOT
BRANCH   6   7
ATOM      7  N   UNL     1       7.225   5.922  16.151  0.00  0.00    +0.000 N 
ATOM      8  C   UNL     1       7.588   5.603  17.435  0.00  0.00    +0.000 C 
ATOM      9  C   UNL     1       7.927   6.787  18.301  0.00  0.00    +0.000 C 
ATOM     10  O   UNL     1       7.602   4.456  17.858  0.00  0.00    +0.000 OA
ATOM     11  H   UNL     1       7.275   6.887  15.857  0.00  0.00    +0.000 HD
ENDBRANCH   6   7
BRANCH   5  12
ATOM     12  N   UNL     1       8.670   5.817  13.612  0.00  0.00    +0.000 NA
ATOM     13  H   UNL     1       8.721   6.775  13.945  0.00  0.00    +0.000 HD
ATOM     14  H   UNL     1       8.943   5.827  12.630  0.00  0.00    +0.000 HD
ENDBRANCH   5  12
BRANCH   3  15
ATOM     15  C   UNL     1       5.340   2.608  11.752  0.00  0.00    +0.000 C 
ATOM     16  O   UNL     1       4.325   2.804  11.106  0.00  0.00    +0.000 OA
BRANCH  15  17
ATOM     17  O   UNL     1       6.213   1.629  11.446  0.00  0.00    +0.000 OA
ATOM     18  H   UNL     1       6.994   1.913  10.943  0.00  0.00    +0.000 HD
ENDBRANCH  15  17
ENDBRANCH   3  15
BRANCH   1  19
ATOM     19  O   UNL     1       5.007   3.796  16.278  0.00  0.00    +0.000 OA
BRANCH  19  20
ATOM     20  C   UNL     1       3.943   4.316  17.072  0.00  0.00    +0.000 C 
BRANCH  20  22
ATOM     21  C   UNL     1       4.320   5.397  19.135  0.00  0.00    +0.000 C 
ATOM     22  O   UNL     1       4.320   5.527  17.719  0.00  0.00    +0.000 OA
ENDBRANCH  20  22
ENDBRANCH  19  20
ENDBRANCH   1  19
TORSDOF 7
ENDMDL
MODEL 8
REMARK VINA RESULT:      -6.1      2.433      3.535
REMARK  Name = 
REMARK  9 active torsions:
REMARK  status: ('A' for Active; 'I' for Inactive)
REMARK    1  A    between atoms: C_1  and  O_2
REMARK    2  A    between atoms: O_2  and  C_3
REMARK    3  A    between atoms: C_3  and  O_4
REMARK    4  A    between atoms: O_4  and  C_5
REMARK    5  A    between atoms: C_7  and  C_8
REMARK    6  A    between atoms: C_8  and  O_10
REMARK    7  A    between atoms: C_12  and  N_13
REMARK    8  A    between atoms: C_14  and  N_15
REMARK    9  A    between atoms: C_16  and  C_17
REMARK                            x       y       z     vdW  Elec       q    Type
REMARK                         _______ _______ _______ _____ _____    ______ ____
ROOT
ATOM      1  C   UNL     1       3.845   6.202  18.672  0.00  0.00    +0.000 C 
ATOM      2  C   UNL     1       5.035   6.586  17.819  0.00  0.00    +0.000 C 
ATOM      3  C   UNL     1       5.954   5.716  17.360  0.00  0.00    +0.000 C 
ATOM      4  C   UNL     1       5.984   4.280  17.817  0.00  0.00    +0.000 C 
ATOM      5  C   UNL     1       5.176   4.080  19.117  0.00  0.00    +0.000 C 
ATOM      6  C   UNL     1       3.749   4.653  18.891  0.00  0.00    +0.000 C 
ENDROOT
BRANCH   6   7
ATOM      7  N   UNL     1       2.782   4.237  19.919  0.00  0.00    +0.000 N 
ATOM      8  C   UNL     1       2.041   3.084  19.852  0.00  0.00    +0.000 C 
ATOM      9  C   UNL     1       1.097   2.881  21.007  0.00  0.00    +0.000 C 
ATOM     10  O   UNL     1       2.110   2.301  18.916  0.00  0.00    +0.000 OA
ATOM     11  H   UNL     1       2.704   4.818  20.742  0.00  0.00    +0.000 HD
ENDBRANCH   6   7
BRANCH   5  12
ATOM     12  N   UNL     1       5.211   2.661  19.517  0.00  0.00    +0.000 NA
ATOM     13  H   UNL     1       6.139   2.268  19.387  0.00  0.00    +0.000 HD
ATOM     14  H   UNL     1       4.579   2.144  18.908  0.00  0.00    +0.000 HD
ENDBRANCH   5  12
BRANCH   3  15
ATOM     15  C   UNL     1       7.058   6.131  16.453  0.00  0.00    +0.000 C 
ATOM     16  O   UNL     1       7.748   7.116  16.655  0.00  0.00    +0.000 OA
BRANCH  15  17
ATOM     17  O   UNL     1       7.279   5.294  15.421  0.00  0.00    +0.000 OA
ATOM     18  H   UNL     1       6.520   5.154  14.831  0.00  0.00    +0.000 HD
ENDBRANCH  15  17
ENDBRANCH   3  15
BRANCH   1  19
ATOM     19  O   UNL     1       2.653   6.627  17.989  0.00  0.00    +0.000 OA
BRANCH  19  20
ATOM     20  C   UNL     1       2.143   7.874  18.453  0.00  0.00    +0.000 C 
BRANCH  20  22
ATOM     21  C   UNL     1       1.920  10.166  17.938  0.00  0.00    +0.000 C 
ATOM     22  O   UNL     1       2.175   8.863  17.429  0.00  0.00    +0.000 OA
ENDBRANCH  20  22
ENDBRANCH  19  20
ENDBRANCH   1  19
TORSDOF 7
ENDMDL
MODEL 9
REMARK VINA RESULT:      -6.0      2.695      5.313
REMARK  Name = 
REMARK  9 active torsions:
REMARK  status: ('A' for Active; 'I' for Inactive)
REMARK    1  A    between atoms: C_1  and  O_2
REMARK    2  A    between atoms: O_2  and  C_3
REMARK    3  A    between atoms: C_3  and  O_4
REMARK    4  A    between atoms: O_4  and  C_5
REMARK    5  A    between atoms: C_7  and  C_8
REMARK    6  A    between atoms: C_8  and  O_10
REMARK    7  A    between atoms: C_12  and  N_13
REMARK    8  A    between atoms: C_14  and  N_15
REMARK    9  A    between atoms: C_16  and  C_17
REMARK                            x       y       z     vdW  Elec       q    Type
REMARK                         _______ _______ _______ _____ _____    ______ ____
ROOT
ATOM      1  C   UNL     1       3.239   6.061  17.820  0.00  0.00    +0.000 C 
ATOM      2  C   UNL     1       2.295   4.889  17.988  0.00  0.00    +0.000 C 
ATOM      3  C   UNL     1       2.687   3.604  18.077  0.00  0.00    +0.000 C 
ATOM      4  C   UNL     1       4.116   3.192  17.829  0.00  0.00    +0.000 C 
ATOM      5  C   UNL     1       4.900   4.285  17.071  0.00  0.00    +0.000 C 
ATOM      6  C   UNL     1       4.742   5.621  17.852  0.00  0.00    +0.000 C 
ENDROOT
BRANCH   6   7
ATOM      7  N   UNL     1       5.696   6.660  17.432  0.00  0.00    +0.000 N 
ATOM      8  C   UNL     1       6.951   6.808  17.965  0.00  0.00    +0.000 C 
ATOM      9  C   UNL     1       7.739   7.959  17.397  0.00  0.00    +0.000 C 
ATOM     10  O   UNL     1       7.387   6.091  18.854  0.00  0.00    +0.000 OA
ATOM     11  H   UNL     1       5.416   7.263  16.672  0.00  0.00    +0.000 HD
ENDBRANCH   6   7
BRANCH   5  12
ATOM     12  N   UNL     1       6.296   3.855  16.869  0.00  0.00    +0.000 NA
ATOM     13  H   UNL     1       6.775   3.742  17.757  0.00  0.00    +0.000 HD
ATOM     14  H   UNL     1       6.783   4.589  16.357  0.00  0.00    +0.000 HD
ENDBRANCH   5  12
BRANCH   3  15
ATOM     15  C   UNL     1       1.728   2.496  18.328  0.00  0.00    +0.000 C 
ATOM     16  O   UNL     1       0.518   2.652  18.322  0.00  0.00    +0.000 OA
BRANCH  15  17
ATOM     17  O   UNL     1       2.299   1.288  18.500  0.00  0.00    +0.000 OA
ATOM     18  H   UNL     1       3.054   1.271  19.111  0.00  0.00    +0.000 HD
ENDBRANCH  15  17
ENDBRANCH   3  15
BRANCH   1  19
ATOM     19  O   UNL     1       3.019   6.967  18.915  0.00  0.00    +0.000 OA
BRANCH  19  20
ATOM     20  C   UNL     1       2.235   8.106  18.566  0.00  0.00    +0.000 C 
BRANCH  20  22
ATOM     21  C   UNL     1       1.504   7.712  20.774  0.00  0.00    +0.000 C 
ATOM     22  O   UNL     1       1.562   8.641  19.700  0.00  0.00    +0.000 OA
ENDBRANCH  20  22
ENDBRANCH  19  20
ENDBRANCH   1  19
TORSDOF 7
ENDMDL
