MODEL 1
REMARK VINA RESULT:      -7.7      0.000      0.000
REMARK  Name = 
REMARK  12 active torsions:
REMARK  status: ('A' for Active; 'I' for Inactive)
REMARK    1  A    between atoms: C_1  and  C_2
REMARK    2  A    between atoms: C_2  and  C_3
REMARK    3  A    between atoms: C_3  and  C_4
REMARK    4  A    between atoms: C_4  and  C_5
REMARK    5  A    between atoms: C_5  and  C_6
REMARK    6  A    between atoms: C_6  and  C_7
REMARK    7  A    between atoms: C_9  and  O_10
REMARK    8  A    between atoms: O_10  and  C_11
REMARK    9  A    between atoms: C_11  and  C_12
REMARK   10  A    between atoms: C_11  and  C_13
REMARK   11  A    between atoms: C_15  and  C_16
REMARK   12  A    between atoms: C_16  and  N_17
REMARK                            x       y       z     vdW  Elec       q    Type
REMARK                         _______ _______ _______ _____ _____    ______ ____
ROOT
ATOM      1  C   UNL     1       7.059   6.433  17.078  0.00  0.00    +0.000 C 
ATOM      2  O   UNL     1       6.234   6.526  15.919  0.00  0.00    +0.000 OA
ATOM      3  C   UNL     1       5.714   5.302  15.430  0.00  0.00    +0.000 C 
ATOM      4  C   UNL     1       5.126   4.469  16.515  0.00  0.00    +0.000 C 
ATOM      5  C   UNL     1       5.451   4.544  17.814  0.00  0.00    +0.000 C 
ATOM      6  C   UNL     1       6.594   5.425  18.149  0.00  0.00    +0.000 C 
ATOM      7  O   UNL     1       7.166   5.285  19.226  0.00  0.00    +0.000 OA
ENDROOT
BRANCH   1   8
ATOM      8  C   UNL     1       7.092   7.871  17.627  0.00  0.00    +0.000 C 
BRANCH   8   9
ATOM      9  C   UNL     1       8.414   8.317  18.239  0.00  0.00    +0.000 C 
BRANCH   9  10
ATOM     10  C   UNL     1       8.588   9.833  18.212  0.00  0.00    +0.000 C 
BRANCH  10  11
ATOM     11  C   UNL     1       9.366  10.271  19.453  0.00  0.00    +0.000 C 
BRANCH  11  13
ATOM     12  C   UNL     1      10.171  12.632  19.634  0.00  0.00    +0.000 C 
ATOM     13  C   UNL     1      10.489  11.241  19.109  0.00  0.00    +0.000 C 
ENDBRANCH  11  13
ENDBRANCH  10  11
ENDBRANCH   9  10
ENDBRANCH   8   9
ENDBRANCH   1   8
BRANCH   3  14
ATOM     14  O   UNL     1       6.664   4.519  14.722  0.00  0.00    +0.000 OA
BRANCH  14  15
ATOM     15  C   UNL     1       6.620   4.669  13.297  0.00  0.00    +0.000 C 
ATOM     16  C   UNL     1       7.991   5.182  12.863  0.00  0.00    +0.000 C 
ATOM     17  C   UNL     1       6.317   3.363  12.561  0.00  0.00    +0.000 C 
ENDBRANCH  14  15
ENDBRANCH   3  14
BRANCH   5  18
ATOM     18  C   UNL     1       4.859   3.740  18.936  0.00  0.00    +0.000 C 
BRANCH  18  19
ATOM     19  N   UNL     1       3.379   3.754  19.015  0.00  0.00    +0.000 NA
ATOM     20  C   UNL     1       2.884   2.377  19.216  0.00  0.00    +0.000 C 
ATOM     21  C   UNL     1       1.380   2.323  19.469  0.00  0.00    +0.000 C 
ATOM     22  C   UNL     1       1.006   3.194  20.658  0.00  0.00    +0.000 C 
ATOM     23  C   UNL     1       1.487   4.618  20.413  0.00  0.00    +0.000 C 
ATOM     24  C   UNL     1       2.986   4.642  20.126  0.00  0.00    +0.000 C 
ENDBRANCH  18  19
ENDBRANCH   5  18
TORSDOF 9
ENDMDL
MODEL 2
REMARK VINA RESULT:      -7.5      1.242      1.635
REMARK  Name = 
REMARK  12 active torsions:
REMARK  status: ('A' for Active; 'I' for Inactive)
REMARK    1  A    between atoms: C_1  and  C_2
REMARK    2  A    between atoms: C_2  and  C_3
REMARK    3  A    between atoms: C_3  and  C_4
REMARK    4  A    between atoms: C_4  and  C_5
REMARK    5  A    between atoms: C_5  and  C_6
REMARK    6  A    between atoms: C_6  and  C_7
REMARK    7  A    between atoms: C_9  and  O_10
REMARK    8  A    between atoms: O_10  and  C_11
REMARK    9  A    between atoms: C_11  and  C_12
REMARK   10  A    between atoms: C_11  and  C_13
REMARK   11  A    between atoms: C_15  and  C_16
REMARK   12  A    between atoms: C_16  and  N_17
REMARK                            x       y       z     vdW  Elec       q    Type
REMARK                         _______ _______ _______ _____ _____    ______ ____
ROOT
ATOM      1  C   UNL     1       7.320   5.860  17.791  0.00  0.00    +0.000 C 
ATOM      2  O   UNL     1       7.352   6.245  16.419  0.00  0.00    +0.000 OA
ATOM      3  C   UNL     1       6.392   5.626  15.580  0.00  0.00    +0.000 C 
ATOM      4  C   UNL     1       5.028   5.651  16.175  0.00  0.00    +0.000 C 
ATOM      5  C   UNL     1       4.754   5.751  17.485  0.00  0.00    +0.000 C 
ATOM      6  C   UNL     1       5.916   5.675  18.400  0.00  0.00    +0.000 C 
ATOM      7  O   UNL     1       5.732   5.410  19.585  0.00  0.00    +0.000 OA
ENDROOT
BRANCH   1   8
ATOM      8  C   UNL     1       8.109   6.973  18.508  0.00  0.00    +0.000 C 
BRANCH   8   9
ATOM      9  C   UNL     1       8.025   8.357  17.876  0.00  0.00    +0.000 C 
BRANCH   9  10
ATOM     10  C   UNL     1       8.776   9.413  18.682  0.00  0.00    +0.000 C 
BRANCH  10  11
ATOM     11  C   UNL     1       8.842  10.709  17.873  0.00  0.00    +0.000 C 
BRANCH  11  13
ATOM     12  C   UNL     1      10.090  12.868  17.689  0.00  0.00    +0.000 C 
ATOM     13  C   UNL     1      10.204  11.381  17.983  0.00  0.00    +0.000 C 
ENDBRANCH  11  13
ENDBRANCH  10  11
ENDBRANCH   9  10
ENDBRANCH   8   9
ENDBRANCH   1   8
BRANCH   3  14
ATOM     14  O   UNL     1       6.713   4.286  15.237  0.00  0.00    +0.000 OA
BRANCH  14  15
ATOM     15  C   UNL     1       6.918   4.059  13.837  0.00  0.00    +0.000 C 
ATOM     16  C   UNL     1       5.539   3.840  13.218  0.00  0.00    +0.000 C 
ATOM     17  C   UNL     1       7.605   5.228  13.129  0.00  0.00    +0.000 C 
ENDBRANCH  14  15
ENDBRANCH   3  14
BRANCH   5  18
ATOM     18  C   UNL     1       3.391   5.806  18.115  0.00  0.00    +0.000 C 
BRANCH  18  19
ATOM     19  N   UNL     1       2.568   4.585  17.955  0.00  0.00    +0.000 NA
ATOM     20  C   UNL     1       3.451   3.408  17.831  0.00  0.00    +0.000 C 
ATOM     21  C   UNL     1       2.680   2.091  17.825  0.00  0.00    +0.000 C 
ATOM     22  C   UNL     1       1.816   1.971  19.072  0.00  0.00    +0.000 C 
ATOM     23  C   UNL     1       0.885   3.171  19.159  0.00  0.00    +0.000 C 
ATOM     24  C   UNL     1       1.676   4.477  19.127  0.00  0.00    +0.000 C 
ENDBRANCH  18  19
ENDBRANCH   5  18
TORSDOF 9
ENDMDL
MODEL 3
REMARK VINA RESULT:      -7.5      1.115      1.598
REMARK  Name = 
REMARK  12 active torsions:
REMARK  status: ('A' for Active; 'I' for Inactive)
REMARK    1  A    between atoms: C_1  and  C_2
REMARK    2  A    between atoms: C_2  and  C_3
REMARK    3  A    between atoms: C_3  and  C_4
REMARK    4  A    between atoms: C_4  and  C_5
REMARK    5  A    between atoms: C_5  and  C_6
REMARK    6  A    between atoms: C_6  and  C_7
REMARK    7  A    between atoms: C_9  and  O_10
REMARK    8  A    between atoms: O_10  and  C_11
REMARK    9  A    between atoms: C_11  and  C_12
REMARK   10  A    between atoms: C_11  and  C_13
REMARK   11  A    between atoms: C_15  and  C_16
REMARK   12  A    between atoms: C_16  and  N_17
REMARK                            x       y       z     vdW  Elec       q    Type
REMARK                         _______ _______ _______ _____ _____    ______ ____
ROOT
ATOM      1  C   UNL     1       7.303   6.006  17.625  0.00  0.00    +0.000 C 
ATOM      2  O   UNL     1       7.226   6.308  16.234  0.00  0.00    +0.000 OA
ATOM      3  C   UNL     1       6.224   5.619  15.506  0.00  0.00    +0.000 C 
ATOM      4  C   UNL     1       4.906   5.651  16.198  0.00  0.00    +0.000 C 
ATOM      5  C   UNL     1       4.724   5.824  17.516  0.00  0.00    +0.000 C 
ATOM      6  C   UNL     1       5.952   5.829  18.346  0.00  0.00    +0.000 C 
ATOM      7  O   UNL     1       5.860   5.632  19.555  0.00  0.00    +0.000 OA
ENDROOT
BRANCH   1   8
ATOM      8  C   UNL     1       8.112   7.176  18.215  0.00  0.00    +0.000 C 
BRANCH   8   9
ATOM      9  C   UNL     1       7.574   8.571  17.918  0.00  0.00    +0.000 C 
BRANCH   9  10
ATOM     10  C   UNL     1       8.682   9.615  17.822  0.00  0.00    +0.000 C 
BRANCH  10  11
ATOM     11  C   UNL     1       9.086  10.050  19.231  0.00  0.00    +0.000 C 
BRANCH  11  13
ATOM     12  C   UNL     1      10.359  11.692  20.624  0.00  0.00    +0.000 C 
ATOM     13  C   UNL     1      10.062  11.219  19.209  0.00  0.00    +0.000 C 
ENDBRANCH  11  13
ENDBRANCH  10  11
ENDBRANCH   9  10
ENDBRANCH   8   9
ENDBRANCH   1   8
BRANCH   3  14
ATOM     14  O   UNL     1       6.553   4.268  15.221  0.00  0.00    +0.000 OA
BRANCH  14  15
ATOM     15  C   UNL     1       6.788   3.989  13.834  0.00  0.00    +0.000 C 
ATOM     16  C   UNL     1       5.424   3.743  13.194  0.00  0.00    +0.000 C 
ATOM     17  C   UNL     1       7.488   5.133  13.098  0.00  0.00    +0.000 C 
ENDBRANCH  14  15
ENDBRANCH   3  14
BRANCH   5  18
ATOM     18  C   UNL     1       3.410   5.889  18.241  0.00  0.00    +0.000 C 
BRANCH  18  19
ATOM     19  N   UNL     1       2.961   4.618  18.855  0.00  0.00    +0.000 NA
ATOM     20  C   UNL     1       2.421   4.887  20.203  0.00  0.00    +0.000 C 
ATOM     21  C   UNL     1       1.788   3.654  20.841  0.00  0.00    +0.000 C 
ATOM     22  C   UNL     1       0.699   3.085  19.944  0.00  0.00    +0.000 C 
ATOM     23  C   UNL     1       1.286   2.775  18.573  0.00  0.00    +0.000 C 
ATOM     24  C   UNL     1       1.944   4.014  17.971  0.00  0.00    +0.000 C 
ENDBRANCH  18  19
ENDBRANCH   5  18
TORSDOF 9
ENDMDL
MODEL 4
REMARK VINA RESULT:      -7.5      1.143      1.359
REMARK  Name = 
REMARK  12 active torsions:
REMARK  status: ('A' for Active; 'I' for Inactive)
REMARK    1  A    between atoms: C_1  and  C_2
REMARK    2  A    between atoms: C_2  and  C_3
REMARK    3  A    between atoms: C_3  and  C_4
REMARK    4  A    between atoms: C_4  and  C_5
REMARK    5  A    between atoms: C_5  and  C_6
REMARK    6  A    between atoms: C_6  and  C_7
REMARK    7  A    between atoms: C_9  and  O_10
REMARK    8  A    between atoms: O_10  and  C_11
REMARK    9  A    between atoms: C_11  and  C_12
REMARK   10  A    between atoms: C_11  and  C_13
REMARK   11  A    between atoms: C_15  and  C_16
REMARK   12  A    between atoms: C_16  and  N_17
REMARK                            x       y       z     vdW  Elec       q    Type
REMARK                         _______ _______ _______ _____ _____    ______ ____
ROOT
ATOM      1  C   UNL     1       7.913   6.442  17.962  0.00  0.00    +0.000 C 
ATOM      2  O   UNL     1       7.374   6.706  16.668  0.00  0.00    +0.000 OA
ATOM      3  C   UNL     1       6.606   5.663  16.093  0.00  0.00    +0.000 C 
ATOM      4  C   UNL     1       5.613   5.105  17.051  0.00  0.00    +0.000 C 
ATOM      5  C   UNL     1       5.709   5.156  18.388  0.00  0.00    +0.000 C 
ATOM      6  C   UNL     1       6.985   5.680  18.929  0.00  0.00    +0.000 C 
ATOM      7  O   UNL     1       7.288   5.441  20.094  0.00  0.00    +0.000 OA
ENDROOT
BRANCH   1   8
ATOM      8  C   UNL     1       8.277   7.837  18.504  0.00  0.00    +0.000 C 
BRANCH   8   9
ATOM      9  C   UNL     1       7.963   9.010  17.583  0.00  0.00    +0.000 C 
BRANCH   9  10
ATOM     10  C   UNL     1       8.370  10.351  18.185  0.00  0.00    +0.000 C 
BRANCH  10  11
ATOM     11  C   UNL     1       9.385  10.111  19.303  0.00  0.00    +0.000 C 
BRANCH  11  13
ATOM     12  C   UNL     1      10.492  11.868  20.698  0.00  0.00    +0.000 C 
ATOM     13  C   UNL     1      10.461  11.190  19.338  0.00  0.00    +0.000 C 
ENDBRANCH  11  13
ENDBRANCH  10  11
ENDBRANCH   9  10
ENDBRANCH   8   9
ENDBRANCH   1   8
BRANCH   3  14
ATOM     14  O   UNL     1       7.388   4.596  15.577  0.00  0.00    +0.000 OA
BRANCH  14  15
ATOM     15  C   UNL     1       7.151   4.294  14.196  0.00  0.00    +0.000 C 
ATOM     16  C   UNL     1       5.637   4.257  14.005  0.00  0.00    +0.000 C 
ATOM     17  C   UNL     1       7.752   5.326  13.240  0.00  0.00    +0.000 C 
ENDBRANCH  14  15
ENDBRANCH   3  14
BRANCH   5  18
ATOM     18  C   UNL     1       4.713   4.628  19.381  0.00  0.00    +0.000 C 
BRANCH  18  19
ATOM     19  N   UNL     1       3.634   3.788  18.812  0.00  0.00    +0.000 NA
ATOM     20  C   UNL     1       3.259   2.742  19.786  0.00  0.00    +0.000 C 
ATOM     21  C   UNL     1       2.043   1.934  19.343  0.00  0.00    +0.000 C 
ATOM     22  C   UNL     1       0.859   2.850  19.075  0.00  0.00    +0.000 C 
ATOM     23  C   UNL     1       1.253   3.894  18.039  0.00  0.00    +0.000 C 
ATOM     24  C   UNL     1       2.492   4.665  18.488  0.00  0.00    +0.000 C 
ENDBRANCH  18  19
ENDBRANCH   5  18
TORSDOF 9
ENDMDL
MODEL 5
REMARK VINA RESULT:      -7.5      3.612      7.691
REMARK  Name = 
REMARK  12 active torsions:
REMARK  status: ('A' for Active; 'I' for Inactive)
REMARK    1  A    between atoms: C_1  and  C_2
REMARK    2  A    between atoms: C_2  and  C_3
REMARK    3  A    between atoms: C_3  and  C_4
REMARK    4  A    between atoms: C_4  and  C_5
REMARK    5  A    between atoms: C_5  and  C_6
REMARK    6  A    between atoms: C_6  and  C_7
REMARK    7  A    between atoms: C_9  and  O_10
REMARK    8  A    between atoms: O_10  and  C_11
REMARK    9  A    between atoms: C_11  and  C_12
REMARK   10  A    between atoms: C_11  and  C_13
REMARK   11  A    between atoms: C_15  and  C_16
REMARK   12  A    between atoms: C_16  and  N_17
REMARK                            x       y       z     vdW  Elec       q    Type
REMARK                         _______ _______ _______ _____ _____    ______ ____
ROOT
ATOM      1  C   UNL     1       4.652   4.463  18.925  0.00  0.00    +0.000 C 
ATOM      2  O   UNL     1       3.424   4.849  18.313  0.00  0.00    +0.000 OA
ATOM      3  C   UNL     1       3.467   6.031  17.531  0.00  0.00    +0.000 C 
ATOM      4  C   UNL     1       4.628   6.045  16.600  0.00  0.00    +0.000 C 
ATOM      5  C   UNL     1       5.767   5.356  16.768  0.00  0.00    +0.000 C 
ATOM      6  C   UNL     1       5.916   4.652  18.063  0.00  0.00    +0.000 C 
ATOM      7  O   UNL     1       7.034   4.303  18.432  0.00  0.00    +0.000 OA
ENDROOT
BRANCH   1   8
ATOM      8  C   UNL     1       4.433   2.984  19.296  0.00  0.00    +0.000 C 
BRANCH   8   9
ATOM      9  C   UNL     1       3.437   2.224  18.429  0.00  0.00    +0.000 C 
BRANCH   9  10
ATOM     10  C   UNL     1       2.222   1.747  19.219  0.00  0.00    +0.000 C 
BRANCH  10  11
ATOM     11  C   UNL     1       1.098   2.774  19.078  0.00  0.00    +0.000 C 
BRANCH  11  13
ATOM     12  C   UNL     1       1.463   2.813  21.552  0.00  0.00    +0.000 C 
ATOM     13  C   UNL     1       0.881   3.562  20.364  0.00  0.00    +0.000 C 
ENDBRANCH  11  13
ENDBRANCH  10  11
ENDBRANCH   9  10
ENDBRANCH   8   9
ENDBRANCH   1   8
BRANCH   3  14
ATOM     14  O   UNL     1       3.488   7.224  18.301  0.00  0.00    +0.000 OA
BRANCH  14  15
ATOM     15  C   UNL     1       2.205   7.835  18.493  0.00  0.00    +0.000 C 
ATOM     16  C   UNL     1       1.951   7.866  19.998  0.00  0.00    +0.000 C 
ATOM     17  C   UNL     1       2.125   9.258  17.941  0.00  0.00    +0.000 C 
ENDBRANCH  14  15
ENDBRANCH   3  14
BRANCH   5  18
ATOM     18  C   UNL     1       6.944   5.327  15.836  0.00  0.00    +0.000 C 
BRANCH  18  19
ATOM     19  N   UNL     1       6.613   5.189  14.398  0.00  0.00    +0.000 NA
ATOM     20  C   UNL     1       7.833   5.386  13.590  0.00  0.00    +0.000 C 
ATOM     21  C   UNL     1       7.611   5.102  12.108  0.00  0.00    +0.000 C 
ATOM     22  C   UNL     1       7.071   3.694  11.908  0.00  0.00    +0.000 C 
ATOM     23  C   UNL     1       5.791   3.524  12.715  0.00  0.00    +0.000 C 
ATOM     24  C   UNL     1       6.030   3.849  14.187  0.00  0.00    +0.000 C 
ENDBRANCH  18  19
ENDBRANCH   5  18
TORSDOF 9
ENDMDL
MODEL 6
REMARK VINA RESULT:      -7.4      0.895      1.306
REMARK  Name = 
REMARK  12 active torsions:
REMARK  status: ('A' for Active; 'I' for Inactive)
REMARK    1  A    between atoms: C_1  and  C_2
REMARK    2  A    between atoms: C_2  and  C_3
REMARK    3  A    between atoms: C_3  and  C_4
REMARK    4  A    between atoms: C_4  and  C_5
REMARK    5  A    between atoms: C_5  and  C_6
REMARK    6  A    between atoms: C_6  and  C_7
REMARK    7  A    between atoms: C_9  and  O_10
REMARK    8  A    between atoms: O_10  and  C_11
REMARK    9  A    between atoms: C_11  and  C_12
REMARK   10  A    between atoms: C_11  and  C_13
REMARK   11  A    between atoms: C_15  and  C_16
REMARK   12  A    between atoms: C_16  and  N_17
REMARK                            x       y       z     vdW  Elec       q    Type
REMARK                         _______ _______ _______ _____ _____    ______ ____
ROOT
ATOM      1  C   UNL     1       7.186   5.770  17.276  0.00  0.00    +0.000 C 
ATOM      2  O   UNL     1       6.647   6.359  16.095  0.00  0.00    +0.000 OA
ATOM      3  C   UNL     1       6.016   5.468  15.191  0.00  0.00    +0.000 C 
ATOM      4  C   UNL     1       5.074   4.545  15.881  0.00  0.00    +0.000 C 
ATOM      5  C   UNL     1       5.135   4.195  17.174  0.00  0.00    +0.000 C 
ATOM      6  C   UNL     1       6.332   4.657  17.916  0.00  0.00    +0.000 C 
ATOM      7  O   UNL     1       6.635   4.106  18.970  0.00  0.00    +0.000 OA
ENDROOT
BRANCH   1   8
ATOM      8  C   UNL     1       7.377   6.962  18.232  0.00  0.00    +0.000 C 
BRANCH   8   9
ATOM      9  C   UNL     1       7.931   8.234  17.603  0.00  0.00    +0.000 C 
BRANCH   9  10
ATOM     10  C   UNL     1       8.703   9.091  18.602  0.00  0.00    +0.000 C 
BRANCH  10  11
ATOM     11  C   UNL     1       8.858  10.503  18.037  0.00  0.00    +0.000 C 
BRANCH  11  13
ATOM     12  C   UNL     1      10.950  11.478  19.003  0.00  0.00    +0.000 C 
ATOM     13  C   UNL     1       9.431  11.469  19.067  0.00  0.00    +0.000 C 
ENDBRANCH  11  13
ENDBRANCH  10  11
ENDBRANCH   9  10
ENDBRANCH   8   9
ENDBRANCH   1   8
BRANCH   3  14
ATOM     14  O   UNL     1       6.926   4.696  14.421  0.00  0.00    +0.000 OA
BRANCH  14  15
ATOM     15  C   UNL     1       6.751   4.804  13.002  0.00  0.00    +0.000 C 
ATOM     16  C   UNL     1       8.035   5.412  12.443  0.00  0.00    +0.000 C 
ATOM     17  C   UNL     1       6.494   3.459  12.321  0.00  0.00    +0.000 C 
ENDBRANCH  14  15
ENDBRANCH   3  14
BRANCH   5  18
ATOM     18  C   UNL     1       4.186   3.290  17.906  0.00  0.00    +0.000 C 
BRANCH  18  19
ATOM     19  N   UNL     1       3.592   3.857  19.139  0.00  0.00    +0.000 NA
ATOM     20  C   UNL     1       2.729   5.003  18.788  0.00  0.00    +0.000 C 
ATOM     21  C   UNL     1       1.951   5.544  19.984  0.00  0.00    +0.000 C 
ATOM     22  C   UNL     1       1.123   4.441  20.627  0.00  0.00    +0.000 C 
ATOM     23  C   UNL     1       2.036   3.288  21.020  0.00  0.00    +0.000 C 
ATOM     24  C   UNL     1       2.830   2.789  19.815  0.00  0.00    +0.000 C 
ENDBRANCH  18  19
ENDBRANCH   5  18
TORSDOF 9
ENDMDL
MODEL 7
REMARK VINA RESULT:      -7.3      3.660      6.938
REMARK  Name = 
REMARK  12 active torsions:
REMARK  status: ('A' for Active; 'I' for Inactive)
REMARK    1  A    between atoms: C_1  and  C_2
REMARK    2  A    between atoms: C_2  and  C_3
REMARK    3  A    between atoms: C_3  and  C_4
REMARK    4  A    between atoms: C_4  and  C_5
REMARK    5  A    between atoms: C_5  and  C_6
REMARK    6  A    between atoms: C_6  and  C_7
REMARK    7  A    between atoms: C_9  and  O_10
REMARK    8  A    between atoms: O_10  and  C_11
REMARK    9  A    between atoms: C_11  and  C_12
REMARK   10  A    between atoms: C_11  and  C_13
REMARK   11  A    between atoms: C_15  and  C_16
REMARK   12  A    between atoms: C_16  and  N_17
REMARK                            x       y       z     vdW  Elec       q    Type
REMARK                         _______ _______ _______ _____ _____    ______ ____
ROOT
ATOM      1  C   UNL     1       5.135   4.197  17.378  0.00  0.00    +0.000 C 
ATOM      2  O   UNL     1       3.979   3.392  17.162  0.00  0.00    +0.000 OA
ATOM      3  C   UNL     1       2.846   3.713  17.951  0.00  0.00    +0.000 C 
ATOM      4  C   UNL     1       2.563   5.174  17.959  0.00  0.00    +0.000 C 
ATOM      5  C   UNL     1       3.463   6.140  17.722  0.00  0.00    +0.000 C 
ATOM      6  C   UNL     1       4.872   5.700  17.595  0.00  0.00    +0.000 C 
ATOM      7  O   UNL     1       5.773   6.524  17.728  0.00  0.00    +0.000 OA
ENDROOT
BRANCH   1   8
ATOM      8  C   UNL     1       6.002   3.946  16.130  0.00  0.00    +0.000 C 
BRANCH   8   9
ATOM      9  C   UNL     1       5.382   4.357  14.799  0.00  0.00    +0.000 C 
BRANCH   9  10
ATOM     10  C   UNL     1       6.343   4.179  13.628  0.00  0.00    +0.000 C 
BRANCH  10  11
ATOM     11  C   UNL     1       5.712   3.242  12.598  0.00  0.00    +0.000 C 
BRANCH  11  13
ATOM     12  C   UNL     1       3.800   2.929  11.016  0.00  0.00    +0.000 C 
ATOM     13  C   UNL     1       4.648   3.945  11.765  0.00  0.00    +0.000 C 
ENDBRANCH  11  13
ENDBRANCH  10  11
ENDBRANCH   9  10
ENDBRANCH   8   9
ENDBRANCH   1   8
BRANCH   3  14
ATOM     14  O   UNL     1       2.939   3.261  19.294  0.00  0.00    +0.000 OA
BRANCH  14  15
ATOM     15  C   UNL     1       1.903   2.355  19.694  0.00  0.00    +0.000 C 
ATOM     16  C   UNL     1       1.406   2.826  21.059  0.00  0.00    +0.000 C 
ATOM     17  C   UNL     1       0.726   2.314  18.719  0.00  0.00    +0.000 C 
ENDBRANCH  14  15
ENDBRANCH   3  14
BRANCH   5  18
ATOM     18  C   UNL     1       3.206   7.620  17.695  0.00  0.00    +0.000 C 
BRANCH  18  19
ATOM     19  N   UNL     1       1.957   8.059  18.360  0.00  0.00    +0.000 NA
ATOM     20  C   UNL     1       2.125   7.981  19.825  0.00  0.00    +0.000 C 
ATOM     21  C   UNL     1       0.941   8.569  20.587  0.00  0.00    +0.000 C 
ATOM     22  C   UNL     1       0.694  10.009  20.163  0.00  0.00    +0.000 C 
ATOM     23  C   UNL     1       0.481  10.063  18.657  0.00  0.00    +0.000 C 
ATOM     24  C   UNL     1       1.661   9.437  17.918  0.00  0.00    +0.000 C 
ENDBRANCH  18  19
ENDBRANCH   5  18
TORSDOF 9
ENDMDL
MODEL 8
REMARK VINA RESULT:      -7.2      1.290      1.839
REMARK  Name = 
REMARK  12 active torsions:
REMARK  status: ('A' for Active; 'I' for Inactive)
REMARK    1  A    between atoms: C_1  and  C_2
REMARK    2  A    between atoms: C_2  and  C_3
REMARK    3  A    between atoms: C_3  and  C_4
REMARK    4  A    between atoms: C_4  and  C_5
REMARK    5  A    between atoms: C_5  and  C_6
REMARK    6  A    between atoms: C_6  and  C_7
REMARK    7  A    between atoms: C_9  and  O_10
REMARK    8  A    between atoms: O_10  and  C_11
REMARK    9  A    between atoms: C_11  and  C_12
REMARK   10  A    between atoms: C_11  and  C_13
REMARK   11  A    between atoms: C_15  and  C_16
REMARK   12  A    between atoms: C_16  and  N_17
REMARK                            x       y       z     vdW  Elec       q    Type
REMARK                         _______ _______ _______ _____ _____    ______ ____
ROOT
ATOM      1  C   UNL     1       7.465   6.476  17.778  0.00  0.00    +0.000 C 
ATOM      2  O   UNL     1       7.115   7.191  16.596  0.00  0.00    +0.000 OA
ATOM      3  C   UNL     1       6.062   6.637  15.826  0.00  0.00    +0.000 C 
ATOM      4  C   UNL     1       4.892   6.262  16.665  0.00  0.00    +0.000 C 
ATOM      5  C   UNL     1       4.934   5.978  17.976  0.00  0.00    +0.000 C 
ATOM      6  C   UNL     1       6.285   5.890  18.579  0.00  0.00    +0.000 C 
ATOM      7  O   UNL     1       6.429   5.308  19.650  0.00  0.00    +0.000 OA
ENDROOT
BRANCH   1   8
ATOM      8  C   UNL     1       8.264   7.498  18.609  0.00  0.00    +0.000 C 
BRANCH   8   9
ATOM      9  C   UNL     1       8.301   8.917  18.055  0.00  0.00    +0.000 C 
BRANCH   9  10
ATOM     10  C   UNL     1       9.003   9.893  18.996  0.00  0.00    +0.000 C 
BRANCH  10  11
ATOM     11  C   UNL     1       9.272  11.201  18.253  0.00  0.00    +0.000 C 
BRANCH  11  13
ATOM     12  C   UNL     1      11.649  11.875  17.863  0.00  0.00    +0.000 C 
ATOM     13  C   UNL     1      10.473  11.944  18.824  0.00  0.00    +0.000 C 
ENDBRANCH  11  13
ENDBRANCH  10  11
ENDBRANCH   9  10
ENDBRANCH   8   9
ENDBRANCH   1   8
BRANCH   3  14
ATOM     14  O   UNL     1       6.450   5.508  15.058  0.00  0.00    +0.000 OA
BRANCH  14  15
ATOM     15  C   UNL     1       5.461   4.473  14.974  0.00  0.00    +0.000 C 
ATOM     16  C   UNL     1       5.393   4.044  13.510  0.00  0.00    +0.000 C 
ATOM     17  C   UNL     1       5.787   3.255  15.839  0.00  0.00    +0.000 C 
ENDBRANCH  14  15
ENDBRANCH   3  14
BRANCH   5  18
ATOM     18  C   UNL     1       3.770   5.624  18.857  0.00  0.00    +0.000 C 
BRANCH  18  19
ATOM     19  N   UNL     1       3.457   4.179  18.943  0.00  0.00    +0.000 NA
ATOM     20  C   UNL     1       2.672   3.918  20.167  0.00  0.00    +0.000 C 
ATOM     21  C   UNL     1       2.170   2.479  20.249  0.00  0.00    +0.000 C 
ATOM     22  C   UNL     1       1.352   2.126  19.016  0.00  0.00    +0.000 C 
ATOM     23  C   UNL     1       2.193   2.361  17.769  0.00  0.00    +0.000 C 
ATOM     24  C   UNL     1       2.713   3.796  17.727  0.00  0.00    +0.000 C 
ENDBRANCH  18  19
ENDBRANCH   5  18
TORSDOF 9
ENDMDL
MODEL 9
REMARK VINA RESULT:      -7.1      3.776      7.133
REMARK  Name = 
REMARK  12 active torsions:
REMARK  status: ('A' for Active; 'I' for Inactive)
REMARK    1  A    between atoms: C_1  and  C_2
REMARK    2  A    between atoms: C_2  and  C_3
REMARK    3  A    between atoms: C_3  and  C_4
REMARK    4  A    between atoms: C_4  and  C_5
REMARK    5  A    between atoms: C_5  and  C_6
REMARK    6  A    between atoms: C_6  and  C_7
REMARK    7  A    between atoms: C_9  and  O_10
REMARK    8  A    between atoms: O_10  and  C_11
REMARK    9  A    between atoms: C_11  and  C_12
REMARK   10  A    between atoms: C_11  and  C_13
REMARK   11  A    between atoms: C_15  and  C_16
REMARK   12  A    between atoms: C_16  and  N_17
REMARK                            x       y       z     vdW  Elec       q    Type
REMARK                         _______ _______ _______ _____ _____    ______ ____
ROOT
ATOM      1  C   UNL     1       4.573   5.014  16.992  0.00  0.00    +0.000 C 
ATOM      2  O   UNL     1       3.432   4.160  16.957  0.00  0.00    +0.000 OA
ATOM      3  C   UNL     1       2.511   4.314  18.024  0.00  0.00    +0.000 C 
ATOM      4  C   UNL     1       2.180   5.742  18.277  0.00  0.00    +0.000 C 
ATOM      5  C   UNL     1       2.955   6.789  17.955  0.00  0.00    +0.000 C 
ATOM      6  C   UNL     1       4.309   6.463  17.448  0.00  0.00    +0.000 C 
ATOM      7  O   UNL     1       5.181   7.327  17.464  0.00  0.00    +0.000 OA
ENDROOT
BRANCH   1   8
ATOM      8  C   UNL     1       5.121   4.962  15.553  0.00  0.00    +0.000 C 
BRANCH   8   9
ATOM      9  C   UNL     1       6.077   3.814  15.250  0.00  0.00    +0.000 C 
BRANCH   9  10
ATOM     10  C   UNL     1       6.451   3.742  13.773  0.00  0.00    +0.000 C 
BRANCH  10  11
ATOM     11  C   UNL     1       5.194   3.947  12.926  0.00  0.00    +0.000 C 
BRANCH  11  13
ATOM     12  C   UNL     1       3.823   3.128  11.001  0.00  0.00    +0.000 C 
ATOM     13  C   UNL     1       5.148   2.998  11.735  0.00  0.00    +0.000 C 
ENDBRANCH  11  13
ENDBRANCH  10  11
ENDBRANCH   9  10
ENDBRANCH   8   9
ENDBRANCH   1   8
BRANCH   3  14
ATOM     14  O   UNL     1       2.945   3.726  19.241  0.00  0.00    +0.000 OA
BRANCH  14  15
ATOM     15  C   UNL     1       1.906   3.512  20.206  0.00  0.00    +0.000 C 
ATOM     16  C   UNL     1       0.839   2.659  19.525  0.00  0.00    +0.000 C 
ATOM     17  C   UNL     1       2.391   2.797  21.467  0.00  0.00    +0.000 C 
ENDBRANCH  14  15
ENDBRANCH   3  14
BRANCH   5  18
ATOM     18  C   UNL     1       2.639   8.241  18.171  0.00  0.00    +0.000 C 
BRANCH  18  19
ATOM     19  N   UNL     1       1.347   8.517  18.842  0.00  0.00    +0.000 NA
ATOM     20  C   UNL     1       1.545   8.532  20.305  0.00  0.00    +0.000 C 
ATOM     21  C   UNL     1       0.295   8.969  21.064  0.00  0.00    +0.000 C 
ATOM     22  C   UNL     1      -0.173  10.333  20.584  0.00  0.00    +0.000 C 
ATOM     23  C   UNL     1      -0.412  10.286  19.081  0.00  0.00    +0.000 C 
ATOM     24  C   UNL     1       0.840   9.812  18.347  0.00  0.00    +0.000 C 
ENDBRANCH  18  19
ENDBRANCH   5  18
TORSDOF 9
ENDMDL
