MODEL 1
REMARK VINA RESULT:      -7.9      0.000      0.000
REMARK  Name = 
REMARK  12 active torsions:
REMARK  status: ('A' for Active; 'I' for Inactive)
REMARK    1  A    between atoms: C_1  and  C_2
REMARK    2  A    between atoms: C_2  and  C_3
REMARK    3  A    between atoms: C_2  and  C_4
REMARK    4  A    between atoms: C_4  and  C_5
REMARK    5  A    between atoms: C_5  and  C_6
REMARK    6  A    between atoms: C_5  and  N_10
REMARK    7  A    between atoms: N_8  and  N_9
REMARK    8  A    between atoms: N_10  and  C_11
REMARK    9  A    between atoms: N_10  and  S_22
REMARK   10  A    between atoms: C_11  and  C_12
REMARK   11  A    between atoms: C_15  and  C_16
REMARK   12  A    between atoms: S_22  and  C_25
REMARK                            x       y       z     vdW  Elec       q    Type
REMARK                         _______ _______ _______ _____ _____    ______ ____
ROOT
ATOM      1  N   UNL     1       4.317   5.503  17.786  0.00  0.00    +0.000 NA
ENDROOT
BRANCH   1   2
ATOM      2  S   UNL     1       3.710   3.892  17.613  0.00  0.00    +0.000 S 
ATOM      3  O   UNL     1       2.705   3.845  16.577  0.00  0.00    +0.000 OA
ATOM      4  O   UNL     1       4.858   3.015  17.530  0.00  0.00    +0.000 OA
BRANCH   2   5
ATOM      5  C   UNL     1       2.847   3.489  19.118  0.00  0.00    +0.000 A 
ATOM      6  C   UNL     1       1.456   3.635  19.215  0.00  0.00    +0.000 A 
ATOM      7  C   UNL     1       0.799   3.241  20.390  0.00  0.00    +0.000 A 
ATOM      8  C   UNL     1       1.518   2.675  21.432  0.00  0.00    +0.000 A 
ATOM      9 CL   UNL     1       0.695   2.153  22.853  0.00  0.00    +0.000 Cl
ATOM     10  C   UNL     1       2.896   2.505  21.337  0.00  0.00    +0.000 A 
ATOM     11  C   UNL     1       3.566   2.920  20.179  0.00  0.00    +0.000 A 
ENDBRANCH   2   5
ENDBRANCH   1   2
BRANCH   1  12
ATOM     12  C   UNL     1       5.735   5.768  17.208  0.00  0.00    +0.000 C 
BRANCH  12  13
ATOM     13  C   UNL     1       5.842   5.411  15.715  0.00  0.00    +0.000 C 
ATOM     14  O   UNL     1       5.365   6.131  14.837  0.00  0.00    +0.000 OA
ATOM     15  N   UNL     1       6.414   4.170  15.451  0.00  0.00    +0.000 N 
ATOM     16  H   UNL     1       6.989   3.716  16.162  0.00  0.00    +0.000 HD
BRANCH  15  17
ATOM     17  N   UNL     1       6.334   3.617  14.155  0.00  0.00    +0.000 NA
ATOM     18  H   UNL     1       6.520   2.607  14.238  0.00  0.00    +0.000 HD
ATOM     19  H   UNL     1       7.117   3.974  13.599  0.00  0.00    +0.000 HD
ENDBRANCH  15  17
ENDBRANCH  12  13
BRANCH  12  20
ATOM     20  C   UNL     1       6.269   7.238  17.306  0.00  0.00    +0.000 C 
BRANCH  20  22
ATOM     21  C   UNL     1       8.179   8.794  18.037  0.00  0.00    +0.000 C 
ATOM     22  C   UNL     1       7.780   7.349  17.702  0.00  0.00    +0.000 C 
ATOM     23  C   UNL     1       8.129   6.459  18.898  0.00  0.00    +0.000 C 
ENDBRANCH  20  22
ENDBRANCH  12  20
ENDBRANCH   1  12
BRANCH   1  24
ATOM     24  C   UNL     1       3.342   6.588  17.343  0.00  0.00    +0.000 C 
BRANCH  24  25
ATOM     25  C   UNL     1       2.619   7.557  18.285  0.00  0.00    +0.000 A 
ATOM     26  C   UNL     1       2.017   8.768  17.917  0.00  0.00    +0.000 A 
ATOM     27  C   UNL     1       1.223   9.497  18.840  0.00  0.00    +0.000 A 
ATOM     28  C   UNL     1       1.003   9.021  20.143  0.00  0.00    +0.000 A 
ATOM     29  C   UNL     1       1.629   7.832  20.521  0.00  0.00    +0.000 A 
ATOM     30  C   UNL     1       2.389   7.104  19.601  0.00  0.00    +0.000 A 
BRANCH  28  31
ATOM     31  C   UNL     1       0.084   9.702  21.136  0.00  0.00    +0.000 C 
ATOM     32  F   UNL     1      -0.532   8.853  22.001  0.00  0.00    +0.000 F 
ATOM     33  F   UNL     1       0.753  10.601  21.919  0.00  0.00    +0.000 F 
ATOM     34  F   UNL     1      -0.909  10.417  20.535  0.00  0.00    +0.000 F 
ENDBRANCH  28  31
ENDBRANCH  24  25
ENDBRANCH   1  24
TORSDOF 10
ENDMDL
MODEL 2
REMARK VINA RESULT:      -7.9      0.295      1.115
REMARK  Name = 
REMARK  12 active torsions:
REMARK  status: ('A' for Active; 'I' for Inactive)
REMARK    1  A    between atoms: C_1  and  C_2
REMARK    2  A    between atoms: C_2  and  C_3
REMARK    3  A    between atoms: C_2  and  C_4
REMARK    4  A    between atoms: C_4  and  C_5
REMARK    5  A    between atoms: C_5  and  C_6
REMARK    6  A    between atoms: C_5  and  N_10
REMARK    7  A    between atoms: N_8  and  N_9
REMARK    8  A    between atoms: N_10  and  C_11
REMARK    9  A    between atoms: N_10  and  S_22
REMARK   10  A    between atoms: C_11  and  C_12
REMARK   11  A    between atoms: C_15  and  C_16
REMARK   12  A    between atoms: S_22  and  C_25
REMARK                            x       y       z     vdW  Elec       q    Type
REMARK                         _______ _______ _______ _____ _____    ______ ____
ROOT
ATOM      1  N   UNL     1       4.263   5.404  17.679  0.00  0.00    +0.000 NA
ENDROOT
BRANCH   1   2
ATOM      2  S   UNL     1       3.673   3.800  17.416  0.00  0.00    +0.000 S 
ATOM      3  O   UNL     1       2.626   3.808  16.421  0.00  0.00    +0.000 OA
ATOM      4  O   UNL     1       4.829   2.950  17.225  0.00  0.00    +0.000 OA
BRANCH   2   5
ATOM      5  C   UNL     1       2.878   3.277  18.922  0.00  0.00    +0.000 A 
ATOM      6  C   UNL     1       3.629   2.848  20.026  0.00  0.00    +0.000 A 
ATOM      7  C   UNL     1       2.974   2.511  21.220  0.00  0.00    +0.000 A 
ATOM      8  C   UNL     1       1.597   2.641  21.318  0.00  0.00    +0.000 A 
ATOM      9 CL   UNL     1       0.809   2.268  22.803  0.00  0.00    +0.000 Cl
ATOM     10  C   UNL     1       0.845   3.088  20.236  0.00  0.00    +0.000 A 
ATOM     11  C   UNL     1       1.485   3.400  19.030  0.00  0.00    +0.000 A 
ENDBRANCH   2   5
ENDBRANCH   1   2
BRANCH   1  12
ATOM     12  C   UNL     1       5.657   5.731  17.074  0.00  0.00    +0.000 C 
BRANCH  12  13
ATOM     13  C   UNL     1       5.692   5.563  15.545  0.00  0.00    +0.000 C 
ATOM     14  O   UNL     1       5.249   6.425  14.784  0.00  0.00    +0.000 OA
ATOM     15  N   UNL     1       6.155   4.327  15.103  0.00  0.00    +0.000 N 
ATOM     16  H   UNL     1       6.712   3.742  15.727  0.00  0.00    +0.000 HD
BRANCH  15  17
ATOM     17  N   UNL     1       5.994   3.954  13.751  0.00  0.00    +0.000 NA
ATOM     18  H   UNL     1       6.926   3.710  13.385  0.00  0.00    +0.000 HD
ATOM     19  H   UNL     1       5.720   4.782  13.214  0.00  0.00    +0.000 HD
ENDBRANCH  15  17
ENDBRANCH  12  13
BRANCH  12  20
ATOM     20  C   UNL     1       6.213   7.173  17.329  0.00  0.00    +0.000 C 
BRANCH  20  22
ATOM     21  C   UNL     1       8.196   8.650  18.030  0.00  0.00    +0.000 C 
ATOM     22  C   UNL     1       7.725   7.218  17.733  0.00  0.00    +0.000 C 
ATOM     23  C   UNL     1       8.022   6.346  18.956  0.00  0.00    +0.000 C 
ENDBRANCH  20  22
ENDBRANCH  12  20
ENDBRANCH   1  12
BRANCH   1  24
ATOM     24  C   UNL     1       3.259   6.501  17.344  0.00  0.00    +0.000 C 
BRANCH  24  25
ATOM     25  C   UNL     1       2.583   7.416  18.370  0.00  0.00    +0.000 A 
ATOM     26  C   UNL     1       2.053   8.690  18.116  0.00  0.00    +0.000 A 
ATOM     27  C   UNL     1       1.293   9.372  19.102  0.00  0.00    +0.000 A 
ATOM     28  C   UNL     1       1.034   8.788  20.352  0.00  0.00    +0.000 A 
ATOM     29  C   UNL     1       1.588   7.534  20.618  0.00  0.00    +0.000 A 
ATOM     30  C   UNL     1       2.315   6.855  19.636  0.00  0.00    +0.000 A 
BRANCH  28  31
ATOM     31  C   UNL     1       0.146   9.424  21.402  0.00  0.00    +0.000 C 
ATOM     32  F   UNL     1       0.818  10.128  22.352  0.00  0.00    +0.000 F 
ATOM     33  F   UNL     1      -0.743  10.305  20.854  0.00  0.00    +0.000 F 
ATOM     34  F   UNL     1      -0.616   8.514  22.072  0.00  0.00    +0.000 F 
ENDBRANCH  28  31
ENDBRANCH  24  25
ENDBRANCH   1  24
TORSDOF 10
ENDMDL
MODEL 3
REMARK VINA RESULT:      -7.8      3.278      5.733
REMARK  Name = 
REMARK  12 active torsions:
REMARK  status: ('A' for Active; 'I' for Inactive)
REMARK    1  A    between atoms: C_1  and  C_2
REMARK    2  A    between atoms: C_2  and  C_3
REMARK    3  A    between atoms: C_2  and  C_4
REMARK    4  A    between atoms: C_4  and  C_5
REMARK    5  A    between atoms: C_5  and  C_6
REMARK    6  A    between atoms: C_5  and  N_10
REMARK    7  A    between atoms: N_8  and  N_9
REMARK    8  A    between atoms: N_10  and  C_11
REMARK    9  A    between atoms: N_10  and  S_22
REMARK   10  A    between atoms: C_11  and  C_12
REMARK   11  A    between atoms: C_15  and  C_16
REMARK   12  A    between atoms: S_22  and  C_25
REMARK                            x       y       z     vdW  Elec       q    Type
REMARK                         _______ _______ _______ _____ _____    ______ ____
ROOT
ATOM      1  N   UNL     1       4.382   4.590  18.362  0.00  0.00    +0.000 NA
ENDROOT
BRANCH   1   2
ATOM      2  S   UNL     1       5.988   5.083  17.950  0.00  0.00    +0.000 S 
ATOM      3  O   UNL     1       6.135   6.509  18.127  0.00  0.00    +0.000 OA
ATOM      4  O   UNL     1       6.895   4.185  18.633  0.00  0.00    +0.000 OA
BRANCH   2   5
ATOM      5  C   UNL     1       6.192   4.809  16.201  0.00  0.00    +0.000 A 
ATOM      6  C   UNL     1       7.412   5.077  15.565  0.00  0.00    +0.000 A 
ATOM      7  C   UNL     1       7.560   4.782  14.201  0.00  0.00    +0.000 A 
ATOM      8  C   UNL     1       6.518   4.193  13.500  0.00  0.00    +0.000 A 
ATOM      9 CL   UNL     1       6.727   3.794  11.837  0.00  0.00    +0.000 Cl
ATOM     10  C   UNL     1       5.312   3.901  14.129  0.00  0.00    +0.000 A 
ATOM     11  C   UNL     1       5.143   4.217  15.483  0.00  0.00    +0.000 A 
ENDBRANCH   2   5
ENDBRANCH   1   2
BRANCH   1  12
ATOM     12  C   UNL     1       4.134   3.058  18.443  0.00  0.00    +0.000 C 
BRANCH  12  13
ATOM     13  C   UNL     1       4.167   2.529  19.887  0.00  0.00    +0.000 C 
ATOM     14  O   UNL     1       3.362   2.909  20.739  0.00  0.00    +0.000 OA
ATOM     15  N   UNL     1       5.234   1.684  20.175  0.00  0.00    +0.000 N 
ATOM     16  H   UNL     1       5.733   1.220  19.415  0.00  0.00    +0.000 HD
BRANCH  15  17
ATOM     17  N   UNL     1       5.522   1.341  21.514  0.00  0.00    +0.000 NA
ATOM     18  H   UNL     1       6.165   2.055  21.884  0.00  0.00    +0.000 HD
ATOM     19  H   UNL     1       6.073   0.478  21.519  0.00  0.00    +0.000 HD
ENDBRANCH  15  17
ENDBRANCH  12  13
BRANCH  12  20
ATOM     20  C   UNL     1       2.778   2.535  17.857  0.00  0.00    +0.000 C 
BRANCH  20  22
ATOM     21  C   UNL     1       0.970   4.258  17.248  0.00  0.00    +0.000 C 
ATOM     22  C   UNL     1       1.518   3.329  18.342  0.00  0.00    +0.000 C 
ATOM     23  C   UNL     1       0.391   2.398  18.798  0.00  0.00    +0.000 C 
ENDBRANCH  20  22
ENDBRANCH  12  20
ENDBRANCH   1  12
BRANCH   1  24
ATOM     24  C   UNL     1       3.808   5.295  19.586  0.00  0.00    +0.000 C 
BRANCH  24  25
ATOM     25  C   UNL     1       2.813   6.459  19.543  0.00  0.00    +0.000 A 
ATOM     26  C   UNL     1       2.046   6.928  20.619  0.00  0.00    +0.000 A 
ATOM     27  C   UNL     1       1.290   8.124  20.508  0.00  0.00    +0.000 A 
ATOM     28  C   UNL     1       1.298   8.881  19.325  0.00  0.00    +0.000 A 
ATOM     29  C   UNL     1       2.035   8.398  18.242  0.00  0.00    +0.000 A 
ATOM     30  C   UNL     1       2.798   7.233  18.364  0.00  0.00    +0.000 A 
BRANCH  28  31
ATOM     31  C   UNL     1       0.594  10.215  19.184  0.00  0.00    +0.000 C 
ATOM     32  F   UNL     1      -0.019  10.400  17.984  0.00  0.00    +0.000 F 
ATOM     33  F   UNL     1      -0.384  10.380  20.124  0.00  0.00    +0.000 F 
ATOM     34  F   UNL     1       1.433  11.277  19.348  0.00  0.00    +0.000 F 
ENDBRANCH  28  31
ENDBRANCH  24  25
ENDBRANCH   1  24
TORSDOF 10
ENDMDL
MODEL 4
REMARK VINA RESULT:      -7.7      1.578      2.915
REMARK  Name = 
REMARK  12 active torsions:
REMARK  status: ('A' for Active; 'I' for Inactive)
REMARK    1  A    between atoms: C_1  and  C_2
REMARK    2  A    between atoms: C_2  and  C_3
REMARK    3  A    between atoms: C_2  and  C_4
REMARK    4  A    between atoms: C_4  and  C_5
REMARK    5  A    between atoms: C_5  and  C_6
REMARK    6  A    between atoms: C_5  and  N_10
REMARK    7  A    between atoms: N_8  and  N_9
REMARK    8  A    between atoms: N_10  and  C_11
REMARK    9  A    between atoms: N_10  and  S_22
REMARK   10  A    between atoms: C_11  and  C_12
REMARK   11  A    between atoms: C_15  and  C_16
REMARK   12  A    between atoms: S_22  and  C_25
REMARK                            x       y       z     vdW  Elec       q    Type
REMARK                         _______ _______ _______ _____ _____    ______ ____
ROOT
ATOM      1  N   UNL     1       4.880   5.073  17.587  0.00  0.00    +0.000 NA
ENDROOT
BRANCH   1   2
ATOM      2  S   UNL     1       3.997   3.623  17.257  0.00  0.00    +0.000 S 
ATOM      3  O   UNL     1       2.959   3.880  16.285  0.00  0.00    +0.000 OA
ATOM      4  O   UNL     1       4.972   2.585  16.998  0.00  0.00    +0.000 OA
BRANCH   2   5
ATOM      5  C   UNL     1       3.136   3.178  18.751  0.00  0.00    +0.000 A 
ATOM      6  C   UNL     1       3.832   2.942  19.945  0.00  0.00    +0.000 A 
ATOM      7  C   UNL     1       3.117   2.664  21.119  0.00  0.00    +0.000 A 
ATOM      8  C   UNL     1       1.731   2.660  21.105  0.00  0.00    +0.000 A 
ATOM      9 CL   UNL     1       0.863   2.361  22.563  0.00  0.00    +0.000 Cl
ATOM     10  C   UNL     1       1.030   2.916  19.931  0.00  0.00    +0.000 A 
ATOM     11  C   UNL     1       1.733   3.168  18.746  0.00  0.00    +0.000 A 
ENDBRANCH   2   5
ENDBRANCH   1   2
BRANCH   1  12
ATOM     12  C   UNL     1       6.304   5.167  16.971  0.00  0.00    +0.000 C 
BRANCH  12  13
ATOM     13  C   UNL     1       7.414   4.937  18.011  0.00  0.00    +0.000 C 
ATOM     14  O   UNL     1       8.335   4.141  17.816  0.00  0.00    +0.000 OA
ATOM     15  N   UNL     1       7.235   5.609  19.216  0.00  0.00    +0.000 N 
ATOM     16  H   UNL     1       6.608   6.413  19.259  0.00  0.00    +0.000 HD
BRANCH  15  17
ATOM     17  N   UNL     1       8.035   5.284  20.332  0.00  0.00    +0.000 NA
ATOM     18  H   UNL     1       7.406   5.161  21.138  0.00  0.00    +0.000 HD
ATOM     19  H   UNL     1       8.603   6.101  20.577  0.00  0.00    +0.000 HD
ENDBRANCH  15  17
ENDBRANCH  12  13
BRANCH  12  20
ATOM     20  C   UNL     1       6.632   4.169  15.809  0.00  0.00    +0.000 C 
BRANCH  20  22
ATOM     21  C   UNL     1       7.672   5.373  13.790  0.00  0.00    +0.000 C 
ATOM     22  C   UNL     1       6.395   4.751  14.374  0.00  0.00    +0.000 C 
ATOM     23  C   UNL     1       5.881   3.689  13.399  0.00  0.00    +0.000 C 
ENDBRANCH  20  22
ENDBRANCH  12  20
ENDBRANCH   1  12
BRANCH   1  24
ATOM     24  C   UNL     1       4.095   6.355  17.328  0.00  0.00    +0.000 C 
BRANCH  24  25
ATOM     25  C   UNL     1       3.062   6.960  18.284  0.00  0.00    +0.000 A 
ATOM     26  C   UNL     1       2.766   6.501  19.576  0.00  0.00    +0.000 A 
ATOM     27  C   UNL     1       1.919   7.246  20.438  0.00  0.00    +0.000 A 
ATOM     28  C   UNL     1       1.366   8.470  20.031  0.00  0.00    +0.000 A 
ATOM     29  C   UNL     1       1.633   8.913  18.734  0.00  0.00    +0.000 A 
ATOM     30  C   UNL     1       2.488   8.189  17.898  0.00  0.00    +0.000 A 
BRANCH  28  31
ATOM     31  C   UNL     1       0.541   9.356  20.942  0.00  0.00    +0.000 C 
ATOM     32  F   UNL     1      -0.459  10.030  20.311  0.00  0.00    +0.000 F 
ATOM     33  F   UNL     1      -0.069   8.642  21.935  0.00  0.00    +0.000 F 
ATOM     34  F   UNL     1       1.287  10.299  21.583  0.00  0.00    +0.000 F 
ENDBRANCH  28  31
ENDBRANCH  24  25
ENDBRANCH   1  24
TORSDOF 10
ENDMDL
MODEL 5
REMARK VINA RESULT:      -7.6      1.142      1.678
REMARK  Name = 
REMARK  12 active torsions:
REMARK  status: ('A' for Active; 'I' for Inactive)
REMARK    1  A    between atoms: C_1  and  C_2
REMARK    2  A    between atoms: C_2  and  C_3
REMARK    3  A    between atoms: C_2  and  C_4
REMARK    4  A    between atoms: C_4  and  C_5
REMARK    5  A    between atoms: C_5  and  C_6
REMARK    6  A    between atoms: C_5  and  N_10
REMARK    7  A    between atoms: N_8  and  N_9
REMARK    8  A    between atoms: N_10  and  C_11
REMARK    9  A    between atoms: N_10  and  S_22
REMARK   10  A    between atoms: C_11  and  C_12
REMARK   11  A    between atoms: C_15  and  C_16
REMARK   12  A    between atoms: S_22  and  C_25
REMARK                            x       y       z     vdW  Elec       q    Type
REMARK                         _______ _______ _______ _____ _____    ______ ____
ROOT
ATOM      1  N   UNL     1       4.866   4.450  17.504  0.00  0.00    +0.000 NA
ENDROOT
BRANCH   1   2
ATOM      2  S   UNL     1       3.638   3.245  17.329  0.00  0.00    +0.000 S 
ATOM      3  O   UNL     1       2.613   3.704  16.421  0.00  0.00    +0.000 OA
ATOM      4  O   UNL     1       4.311   1.991  17.066  0.00  0.00    +0.000 OA
BRANCH   2   5
ATOM      5  C   UNL     1       2.825   3.087  18.907  0.00  0.00    +0.000 A 
ATOM      6  C   UNL     1       1.430   3.172  19.013  0.00  0.00    +0.000 A 
ATOM      7  C   UNL     1       0.818   2.972  20.259  0.00  0.00    +0.000 A 
ATOM      8  C   UNL     1       1.587   2.653  21.368  0.00  0.00    +0.000 A 
ATOM      9 CL   UNL     1       0.820   2.364  22.884  0.00  0.00    +0.000 Cl
ATOM     10  C   UNL     1       2.970   2.542  21.268  0.00  0.00    +0.000 A 
ATOM     11  C   UNL     1       3.595   2.768  20.035  0.00  0.00    +0.000 A 
ENDBRANCH   2   5
ENDBRANCH   1   2
BRANCH   1  12
ATOM     12  C   UNL     1       6.230   4.146  16.824  0.00  0.00    +0.000 C 
BRANCH  12  13
ATOM     13  C   UNL     1       6.288   4.641  15.368  0.00  0.00    +0.000 C 
ATOM     14  O   UNL     1       5.388   4.403  14.563  0.00  0.00    +0.000 OA
ATOM     15  N   UNL     1       7.476   5.273  15.014  0.00  0.00    +0.000 N 
ATOM     16  H   UNL     1       8.087   5.648  15.740  0.00  0.00    +0.000 HD
BRANCH  15  17
ATOM     17  N   UNL     1       7.756   5.540  13.657  0.00  0.00    +0.000 NA
ATOM     18  H   UNL     1       7.009   5.107  13.095  0.00  0.00    +0.000 HD
ATOM     19  H   UNL     1       8.602   5.026  13.390  0.00  0.00    +0.000 HD
ENDBRANCH  15  17
ENDBRANCH  12  13
BRANCH  12  20
ATOM     20  C   UNL     1       7.505   4.752  17.504  0.00  0.00    +0.000 C 
BRANCH  20  22
ATOM     21  C   UNL     1       7.809   5.667  19.886  0.00  0.00    +0.000 C 
ATOM     22  C   UNL     1       7.208   5.927  18.496  0.00  0.00    +0.000 C 
ATOM     23  C   UNL     1       7.741   7.266  17.980  0.00  0.00    +0.000 C 
ENDBRANCH  20  22
ENDBRANCH  12  20
ENDBRANCH   1  12
BRANCH   1  24
ATOM     24  C   UNL     1       4.404   5.865  17.174  0.00  0.00    +0.000 C 
BRANCH  24  25
ATOM     25  C   UNL     1       3.352   6.652  17.964  0.00  0.00    +0.000 A 
ATOM     26  C   UNL     1       2.994   6.434  19.303  0.00  0.00    +0.000 A 
ATOM     27  C   UNL     1       2.135   7.337  19.983  0.00  0.00    +0.000 A 
ATOM     28  C   UNL     1       1.631   8.481  19.343  0.00  0.00    +0.000 A 
ATOM     29  C   UNL     1       1.960   8.682  18.001  0.00  0.00    +0.000 A 
ATOM     30  C   UNL     1       2.827   7.804  17.343  0.00  0.00    +0.000 A 
BRANCH  28  31
ATOM     31  C   UNL     1       0.796   9.530  20.048  0.00  0.00    +0.000 C 
ATOM     32  F   UNL     1       0.523   9.246  21.350  0.00  0.00    +0.000 F 
ATOM     33  F   UNL     1       1.412  10.750  20.061  0.00  0.00    +0.000 F 
ATOM     34  F   UNL     1      -0.408   9.742  19.445  0.00  0.00    +0.000 F 
ENDBRANCH  28  31
ENDBRANCH  24  25
ENDBRANCH   1  24
TORSDOF 10
ENDMDL
MODEL 6
REMARK VINA RESULT:      -7.5      3.263      5.651
REMARK  Name = 
REMARK  12 active torsions:
REMARK  status: ('A' for Active; 'I' for Inactive)
REMARK    1  A    between atoms: C_1  and  C_2
REMARK    2  A    between atoms: C_2  and  C_3
REMARK    3  A    between atoms: C_2  and  C_4
REMARK    4  A    between atoms: C_4  and  C_5
REMARK    5  A    between atoms: C_5  and  C_6
REMARK    6  A    between atoms: C_5  and  N_10
REMARK    7  A    between atoms: N_8  and  N_9
REMARK    8  A    between atoms: N_10  and  C_11
REMARK    9  A    between atoms: N_10  and  S_22
REMARK   10  A    between atoms: C_11  and  C_12
REMARK   11  A    between atoms: C_15  and  C_16
REMARK   12  A    between atoms: S_22  and  C_25
REMARK                            x       y       z     vdW  Elec       q    Type
REMARK                         _______ _______ _______ _____ _____    ______ ____
ROOT
ATOM      1  N   UNL     1       4.363   4.596  18.292  0.00  0.00    +0.000 NA
ENDROOT
BRANCH   1   2
ATOM      2  S   UNL     1       5.990   5.051  17.924  0.00  0.00    +0.000 S 
ATOM      3  O   UNL     1       6.172   6.470  18.127  0.00  0.00    +0.000 OA
ATOM      4  O   UNL     1       6.856   4.119  18.614  0.00  0.00    +0.000 OA
BRANCH   2   5
ATOM      5  C   UNL     1       6.228   4.798  16.177  0.00  0.00    +0.000 A 
ATOM      6  C   UNL     1       7.306   5.385  15.501  0.00  0.00    +0.000 A 
ATOM      7  C   UNL     1       7.504   5.107  14.140  0.00  0.00    +0.000 A 
ATOM      8  C   UNL     1       6.660   4.227  13.481  0.00  0.00    +0.000 A 
ATOM      9 CL   UNL     1       6.939   3.858  11.821  0.00  0.00    +0.000 Cl
ATOM     10  C   UNL     1       5.601   3.620  14.149  0.00  0.00    +0.000 A 
ATOM     11  C   UNL     1       5.377   3.912  15.500  0.00  0.00    +0.000 A 
ENDBRANCH   2   5
ENDBRANCH   1   2
BRANCH   1  12
ATOM     12  C   UNL     1       4.086   3.071  18.408  0.00  0.00    +0.000 C 
BRANCH  12  13
ATOM     13  C   UNL     1       4.133   2.571  19.862  0.00  0.00    +0.000 C 
ATOM     14  O   UNL     1       3.349   2.982  20.718  0.00  0.00    +0.000 OA
ATOM     15  N   UNL     1       5.189   1.712  20.150  0.00  0.00    +0.000 N 
ATOM     16  H   UNL     1       5.667   1.224  19.391  0.00  0.00    +0.000 HD
BRANCH  15  17
ATOM     17  N   UNL     1       5.493   1.391  21.490  0.00  0.00    +0.000 NA
ATOM     18  H   UNL     1       5.380   0.373  21.598  0.00  0.00    +0.000 HD
ATOM     19  H   UNL     1       4.769   1.791  22.095  0.00  0.00    +0.000 HD
ENDBRANCH  15  17
ENDBRANCH  12  13
BRANCH  12  20
ATOM     20  C   UNL     1       2.710   2.564  17.855  0.00  0.00    +0.000 C 
BRANCH  20  22
ATOM     21  C   UNL     1       0.918   4.322  17.304  0.00  0.00    +0.000 C 
ATOM     22  C   UNL     1       1.471   3.369  18.374  0.00  0.00    +0.000 C 
ATOM     23  C   UNL     1       0.338   2.449  18.837  0.00  0.00    +0.000 C 
ENDBRANCH  20  22
ENDBRANCH  12  20
ENDBRANCH   1  12
BRANCH   1  24
ATOM     24  C   UNL     1       3.757   5.346  19.473  0.00  0.00    +0.000 C 
BRANCH  24  25
ATOM     25  C   UNL     1       2.996   6.672  19.375  0.00  0.00    +0.000 A 
ATOM     26  C   UNL     1       2.843   7.450  18.217  0.00  0.00    +0.000 A 
ATOM     27  C   UNL     1       1.969   8.569  18.202  0.00  0.00    +0.000 A 
ATOM     28  C   UNL     1       1.222   8.922  19.338  0.00  0.00    +0.000 A 
ATOM     29  C   UNL     1       1.399   8.169  20.500  0.00  0.00    +0.000 A 
ATOM     30  C   UNL     1       2.241   7.052  20.503  0.00  0.00    +0.000 A 
BRANCH  28  31
ATOM     31  C   UNL     1       0.201  10.041  19.349  0.00  0.00    +0.000 C 
ATOM     32  F   UNL     1      -1.058   9.644  19.677  0.00  0.00    +0.000 F 
ATOM     33  F   UNL     1       0.522  11.019  20.248  0.00  0.00    +0.000 F 
ATOM     34  F   UNL     1       0.097  10.676  18.148  0.00  0.00    +0.000 F 
ENDBRANCH  28  31
ENDBRANCH  24  25
ENDBRANCH   1  24
TORSDOF 10
ENDMDL
MODEL 7
REMARK VINA RESULT:      -7.5      3.310      5.338
REMARK  Name = 
REMARK  12 active torsions:
REMARK  status: ('A' for Active; 'I' for Inactive)
REMARK    1  A    between atoms: C_1  and  C_2
REMARK    2  A    between atoms: C_2  and  C_3
REMARK    3  A    between atoms: C_2  and  C_4
REMARK    4  A    between atoms: C_4  and  C_5
REMARK    5  A    between atoms: C_5  and  C_6
REMARK    6  A    between atoms: C_5  and  N_10
REMARK    7  A    between atoms: N_8  and  N_9
REMARK    8  A    between atoms: N_10  and  C_11
REMARK    9  A    between atoms: N_10  and  S_22
REMARK   10  A    between atoms: C_11  and  C_12
REMARK   11  A    between atoms: C_15  and  C_16
REMARK   12  A    between atoms: S_22  and  C_25
REMARK                            x       y       z     vdW  Elec       q    Type
REMARK                         _______ _______ _______ _____ _____    ______ ____
ROOT
ATOM      1  N   UNL     1       5.346   5.151  17.663  0.00  0.00    +0.000 NA
ENDROOT
BRANCH   1   2
ATOM      2  S   UNL     1       6.872   5.220  18.475  0.00  0.00    +0.000 S 
ATOM      3  O   UNL     1       6.690   5.053  19.898  0.00  0.00    +0.000 OA
ATOM      4  O   UNL     1       7.769   4.333  17.765  0.00  0.00    +0.000 OA
BRANCH   2   5
ATOM      5  C   UNL     1       7.501   6.875  18.277  0.00  0.00    +0.000 A 
ATOM      6  C   UNL     1       6.932   7.759  17.349  0.00  0.00    +0.000 A 
ATOM      7  C   UNL     1       7.405   9.077  17.269  0.00  0.00    +0.000 A 
ATOM      8  C   UNL     1       8.401   9.511  18.131  0.00  0.00    +0.000 A 
ATOM      9 CL   UNL     1       8.941  11.145  18.055  0.00  0.00    +0.000 Cl
ATOM     10  C   UNL     1       8.954   8.649  19.072  0.00  0.00    +0.000 A 
ATOM     11  C   UNL     1       8.510   7.323  19.142  0.00  0.00    +0.000 A 
ENDBRANCH   2   5
ENDBRANCH   1   2
BRANCH   1  12
ATOM     12  C   UNL     1       5.115   3.923  16.739  0.00  0.00    +0.000 C 
BRANCH  12  13
ATOM     13  C   UNL     1       3.861   3.120  17.125  0.00  0.00    +0.000 C 
ATOM     14  O   UNL     1       2.728   3.493  16.818  0.00  0.00    +0.000 OA
ATOM     15  N   UNL     1       4.102   2.014  17.934  0.00  0.00    +0.000 N 
ATOM     16  H   UNL     1       5.039   1.612  17.977  0.00  0.00    +0.000 HD
BRANCH  15  17
ATOM     17  N   UNL     1       3.026   1.352  18.564  0.00  0.00    +0.000 NA
ATOM     18  H   UNL     1       2.446   2.069  19.022  0.00  0.00    +0.000 HD
ATOM     19  H   UNL     1       3.395   0.793  19.339  0.00  0.00    +0.000 HD
ENDBRANCH  15  17
ENDBRANCH  12  13
BRANCH  12  20
ATOM     20  C   UNL     1       4.945   4.218  15.209  0.00  0.00    +0.000 C 
BRANCH  20  22
ATOM     21  C   UNL     1       5.838   3.547  12.895  0.00  0.00    +0.000 C 
ATOM     22  C   UNL     1       6.209   3.890  14.345  0.00  0.00    +0.000 C 
ATOM     23  C   UNL     1       7.213   5.046  14.330  0.00  0.00    +0.000 C 
ENDBRANCH  20  22
ENDBRANCH  12  20
ENDBRANCH   1  12
BRANCH   1  24
ATOM     24  C   UNL     1       4.144   5.374  18.574  0.00  0.00    +0.000 C 
BRANCH  24  25
ATOM     25  C   UNL     1       3.348   6.679  18.674  0.00  0.00    +0.000 A 
ATOM     26  C   UNL     1       3.205   7.637  17.659  0.00  0.00    +0.000 A 
ATOM     27  C   UNL     1       2.301   8.721  17.803  0.00  0.00    +0.000 A 
ATOM     28  C   UNL     1       1.511   8.860  18.956  0.00  0.00    +0.000 A 
ATOM     29  C   UNL     1       1.675   7.926  19.981  0.00  0.00    +0.000 A 
ATOM     30  C   UNL     1       2.549   6.845  19.825  0.00  0.00    +0.000 A 
BRANCH  28  31
ATOM     31  C   UNL     1       0.457   9.935  19.121  0.00  0.00    +0.000 C 
ATOM     32  F   UNL     1       0.957  11.169  19.405  0.00  0.00    +0.000 F 
ATOM     33  F   UNL     1      -0.291  10.096  17.989  0.00  0.00    +0.000 F 
ATOM     34  F   UNL     1      -0.439   9.653  20.108  0.00  0.00    +0.000 F 
ENDBRANCH  28  31
ENDBRANCH  24  25
ENDBRANCH   1  24
TORSDOF 10
ENDMDL
MODEL 8
REMARK VINA RESULT:      -7.4      2.811      5.426
REMARK  Name = 
REMARK  12 active torsions:
REMARK  status: ('A' for Active; 'I' for Inactive)
REMARK    1  A    between atoms: C_1  and  C_2
REMARK    2  A    between atoms: C_2  and  C_3
REMARK    3  A    between atoms: C_2  and  C_4
REMARK    4  A    between atoms: C_4  and  C_5
REMARK    5  A    between atoms: C_5  and  C_6
REMARK    6  A    between atoms: C_5  and  N_10
REMARK    7  A    between atoms: N_8  and  N_9
REMARK    8  A    between atoms: N_10  and  C_11
REMARK    9  A    between atoms: N_10  and  S_22
REMARK   10  A    between atoms: C_11  and  C_12
REMARK   11  A    between atoms: C_15  and  C_16
REMARK   12  A    between atoms: S_22  and  C_25
REMARK                            x       y       z     vdW  Elec       q    Type
REMARK                         _______ _______ _______ _____ _____    ______ ____
ROOT
ATOM      1  N   UNL     1       3.885   5.117  18.255  0.00  0.00    +0.000 NA
ENDROOT
BRANCH   1   2
ATOM      2  S   UNL     1       5.508   4.608  17.938  0.00  0.00    +0.000 S 
ATOM      3  O   UNL     1       6.009   3.819  19.040  0.00  0.00    +0.000 OA
ATOM      4  O   UNL     1       5.524   4.052  16.602  0.00  0.00    +0.000 OA
BRANCH   2   5
ATOM      5  C   UNL     1       6.524   6.070  17.913  0.00  0.00    +0.000 A 
ATOM      6  C   UNL     1       6.175   7.181  17.132  0.00  0.00    +0.000 A 
ATOM      7  C   UNL     1       6.959   8.342  17.190  0.00  0.00    +0.000 A 
ATOM      8  C   UNL     1       8.049   8.403  18.046  0.00  0.00    +0.000 A 
ATOM      9 CL   UNL     1       8.978   9.851  18.143  0.00  0.00    +0.000 Cl
ATOM     10  C   UNL     1       8.390   7.315  18.843  0.00  0.00    +0.000 A 
ATOM     11  C   UNL     1       7.631   6.140  18.772  0.00  0.00    +0.000 A 
ENDBRANCH   2   5
ENDBRANCH   1   2
BRANCH   1  12
ATOM     12  C   UNL     1       2.879   3.999  18.646  0.00  0.00    +0.000 C 
BRANCH  12  13
ATOM     13  C   UNL     1       3.122   2.688  17.878  0.00  0.00    +0.000 C 
ATOM     14  O   UNL     1       2.452   2.376  16.893  0.00  0.00    +0.000 OA
ATOM     15  N   UNL     1       4.073   1.847  18.447  0.00  0.00    +0.000 N 
ATOM     16  H   UNL     1       4.753   2.223  19.109  0.00  0.00    +0.000 HD
BRANCH  15  17
ATOM     17  N   UNL     1       4.201   0.517  17.992  0.00  0.00    +0.000 NA
ATOM     18  H   UNL     1       4.548   0.553  17.023  0.00  0.00    +0.000 HD
ATOM     19  H   UNL     1       3.266   0.107  17.910  0.00  0.00    +0.000 HD
ENDBRANCH  15  17
ENDBRANCH  12  13
BRANCH  12  20
ATOM     20  C   UNL     1       2.848   3.579  20.155  0.00  0.00    +0.000 C 
BRANCH  20  22
ATOM     21  C   UNL     1       1.453   2.598  22.078  0.00  0.00    +0.000 C 
ATOM     22  C   UNL     1       1.615   2.699  20.554  0.00  0.00    +0.000 C 
ATOM     23  C   UNL     1       0.309   3.235  19.961  0.00  0.00    +0.000 C 
ENDBRANCH  20  22
ENDBRANCH  12  20
ENDBRANCH   1  12
BRANCH   1  24
ATOM     24  C   UNL     1       3.778   6.299  19.212  0.00  0.00    +0.000 C 
BRANCH  24  25
ATOM     25  C   UNL     1       2.822   7.484  19.039  0.00  0.00    +0.000 A 
ATOM     26  C   UNL     1       2.599   8.197  17.852  0.00  0.00    +0.000 A 
ATOM     27  C   UNL     1       1.561   9.161  17.765  0.00  0.00    +0.000 A 
ATOM     28  C   UNL     1       0.717   9.419  18.857  0.00  0.00    +0.000 A 
ATOM     29  C   UNL     1       0.957   8.734  20.049  0.00  0.00    +0.000 A 
ATOM     30  C   UNL     1       1.964   7.767  20.123  0.00  0.00    +0.000 A 
BRANCH  28  31
ATOM     31  C   UNL     1      -0.469  10.360  18.790  0.00  0.00    +0.000 C 
ATOM     32  F   UNL     1      -1.027  10.643  19.998  0.00  0.00    +0.000 F 
ATOM     33  F   UNL     1      -0.133  11.569  18.250  0.00  0.00    +0.000 F 
ATOM     34  F   UNL     1      -1.479   9.885  18.008  0.00  0.00    +0.000 F 
ENDBRANCH  28  31
ENDBRANCH  24  25
ENDBRANCH   1  24
TORSDOF 10
ENDMDL
MODEL 9
REMARK VINA RESULT:      -7.4      3.322      5.785
REMARK  Name = 
REMARK  12 active torsions:
REMARK  status: ('A' for Active; 'I' for Inactive)
REMARK    1  A    between atoms: C_1  and  C_2
REMARK    2  A    between atoms: C_2  and  C_3
REMARK    3  A    between atoms: C_2  and  C_4
REMARK    4  A    between atoms: C_4  and  C_5
REMARK    5  A    between atoms: C_5  and  C_6
REMARK    6  A    between atoms: C_5  and  N_10
REMARK    7  A    between atoms: N_8  and  N_9
REMARK    8  A    between atoms: N_10  and  C_11
REMARK    9  A    between atoms: N_10  and  S_22
REMARK   10  A    between atoms: C_11  and  C_12
REMARK   11  A    between atoms: C_15  and  C_16
REMARK   12  A    between atoms: S_22  and  C_25
REMARK                            x       y       z     vdW  Elec       q    Type
REMARK                         _______ _______ _______ _____ _____    ______ ____
ROOT
ATOM      1  N   UNL     1       4.451   4.620  18.372  0.00  0.00    +0.000 NA
ENDROOT
BRANCH   1   2
ATOM      2  S   UNL     1       6.046   5.116  17.923  0.00  0.00    +0.000 S 
ATOM      3  O   UNL     1       6.154   6.555  17.968  0.00  0.00    +0.000 OA
ATOM      4  O   UNL     1       6.971   4.309  18.689  0.00  0.00    +0.000 OA
BRANCH   2   5
ATOM      5  C   UNL     1       6.268   4.687  16.208  0.00  0.00    +0.000 A 
ATOM      6  C   UNL     1       5.232   4.101  15.468  0.00  0.00    +0.000 A 
ATOM      7  C   UNL     1       5.417   3.842  14.102  0.00  0.00    +0.000 A 
ATOM      8  C   UNL     1       6.604   4.200  13.482  0.00  0.00    +0.000 A 
ATOM      9 CL   UNL     1       6.803   3.919  11.794  0.00  0.00    +0.000 Cl
ATOM     10  C   UNL     1       7.630   4.805  14.202  0.00  0.00    +0.000 A 
ATOM     11  C   UNL     1       7.467   5.042  15.572  0.00  0.00    +0.000 A 
ENDBRANCH   2   5
ENDBRANCH   1   2
BRANCH   1  12
ATOM     12  C   UNL     1       4.233   3.093  18.561  0.00  0.00    +0.000 C 
BRANCH  12  13
ATOM     13  C   UNL     1       4.203   2.679  20.043  0.00  0.00    +0.000 C 
ATOM     14  O   UNL     1       5.120   2.039  20.559  0.00  0.00    +0.000 OA
ATOM     15  N   UNL     1       3.022   2.987  20.711  0.00  0.00    +0.000 N 
ATOM     16  H   UNL     1       2.396   3.699  20.333  0.00  0.00    +0.000 HD
BRANCH  15  17
ATOM     17  N   UNL     1       2.768   2.437  21.986  0.00  0.00    +0.000 NA
ATOM     18  H   UNL     1       1.965   1.798  21.893  0.00  0.00    +0.000 HD
ATOM     19  H   UNL     1       2.429   3.182  22.602  0.00  0.00    +0.000 HD
ENDBRANCH  15  17
ENDBRANCH  12  13
BRANCH  12  20
ATOM     20  C   UNL     1       2.923   2.489  17.951  0.00  0.00    +0.000 C 
BRANCH  20  22
ATOM     21  C   UNL     1       1.124   4.182  17.241  0.00  0.00    +0.000 C 
ATOM     22  C   UNL     1       1.614   3.248  18.358  0.00  0.00    +0.000 C 
ATOM     23  C   UNL     1       0.479   2.286  18.720  0.00  0.00    +0.000 C 
ENDBRANCH  20  22
ENDBRANCH  12  20
ENDBRANCH   1  12
BRANCH   1  24
ATOM     24  C   UNL     1       3.862   5.398  19.544  0.00  0.00    +0.000 C 
BRANCH  24  25
ATOM     25  C   UNL     1       2.875   6.563  19.418  0.00  0.00    +0.000 A 
ATOM     26  C   UNL     1       2.106   7.108  20.457  0.00  0.00    +0.000 A 
ATOM     27  C   UNL     1       1.359   8.299  20.262  0.00  0.00    +0.000 A 
ATOM     28  C   UNL     1       1.378   8.975  19.032  0.00  0.00    +0.000 A 
ATOM     29  C   UNL     1       2.117   8.417  17.987  0.00  0.00    +0.000 A 
ATOM     30  C   UNL     1       2.872   7.258  18.190  0.00  0.00    +0.000 A 
BRANCH  28  31
ATOM     31  C   UNL     1       0.684  10.302  18.799  0.00  0.00    +0.000 C 
ATOM     32  F   UNL     1      -0.362  10.240  17.931  0.00  0.00    +0.000 F 
ATOM     33  F   UNL     1       0.172  10.821  19.954  0.00  0.00    +0.000 F 
ATOM     34  F   UNL     1       1.523  11.260  18.314  0.00  0.00    +0.000 F 
ENDBRANCH  28  31
ENDBRANCH  24  25
ENDBRANCH   1  24
TORSDOF 10
ENDMDL
