MODEL 1
REMARK VINA RESULT:      -8.9      0.000      0.000
REMARK  Name = 
REMARK  10 active torsions:
REMARK  status: ('A' for Active; 'I' for Inactive)
REMARK    1  A    between atoms: C_8  and  C_9
REMARK    2  A    between atoms: C_9  and  N_10
REMARK    3  A    between atoms: N_10  and  C_11
REMARK    4  A    between atoms: N_18  and  C_19
REMARK    5  A    between atoms: C_19  and  C_20
REMARK    6  A    between atoms: C_19  and  C_25
REMARK    7  A    between atoms: C_20  and  C_21
REMARK    8  A    between atoms: C_21  and  C_22
REMARK    9  A    between atoms: C_22  and  O_24
REMARK   10  A    between atoms: C_25  and  O_27
REMARK                            x       y       z     vdW  Elec       q    Type
REMARK                         _______ _______ _______ _____ _____    ______ ____
ROOT
ATOM      1  C   UNL     1       1.638   8.079  19.802  0.00  0.00    +0.000 A 
ATOM      2  C   UNL     1       1.574   6.919  20.607  0.00  0.00    +0.000 A 
ATOM      3  C   UNL     1       2.354   5.783  20.333  0.00  0.00    +0.000 A 
ATOM      4  C   UNL     1       3.160   5.825  19.212  0.00  0.00    +0.000 A 
ATOM      5  C   UNL     1       3.172   6.920  18.362  0.00  0.00    +0.000 A 
ATOM      6  C   UNL     1       2.410   8.042  18.635  0.00  0.00    +0.000 A 
ATOM      7  C   UNL     1       4.130   6.710  17.245  0.00  0.00    +0.000 C 
ATOM      8  N   UNL     1       4.621   5.362  17.494  0.00  0.00    +0.000 N 
ATOM      9  C   UNL     1       4.128   4.848  18.689  0.00  0.00    +0.000 C 
ATOM     10  O   UNL     1       4.435   3.805  19.230  0.00  0.00    +0.000 OA
ENDROOT
BRANCH   1  11
ATOM     11  N   UNL     1       0.858   9.187  20.172  0.00  0.00    +0.000 N 
ATOM     12  H   UNL     1      -0.093   8.881  20.396  0.00  0.00    +0.000 HD
BRANCH  11  13
ATOM     13  C   UNL     1       0.787  10.332  19.249  0.00  0.00    +0.000 C 
BRANCH  13  21
ATOM     14  N   UNL     1      -6.348  12.132  17.046  0.00  0.00    +0.000 N 
ATOM     15  C   UNL     1      -5.044  11.735  17.216  0.00  0.00    +0.000 A 
ATOM     16  N   UNL     1      -4.480  11.026  16.240  0.00  0.00    +0.000 NA
ATOM     17  C   UNL     1      -3.230  10.596  16.460  0.00  0.00    +0.000 A 
ATOM     18  N   UNL     1      -2.691   9.754  15.470  0.00  0.00    +0.000 N 
ATOM     19  C   UNL     1      -2.504  10.862  17.612  0.00  0.00    +0.000 A 
ATOM     20  N   UNL     1      -1.221  10.424  17.811  0.00  0.00    +0.000 NA
ATOM     21  C   UNL     1      -0.634  10.781  18.976  0.00  0.00    +0.000 A 
ATOM     22  C   UNL     1      -1.326  11.545  19.898  0.00  0.00    +0.000 A 
ATOM     23  N   UNL     1      -2.588  11.990  19.685  0.00  0.00    +0.000 NA
ATOM     24  C   UNL     1      -3.194  11.649  18.540  0.00  0.00    +0.000 A 
ATOM     25  N   UNL     1      -4.434  12.087  18.344  0.00  0.00    +0.000 NA
ATOM     26  H   UNL     1      -6.624  12.151  16.076  0.00  0.00    +0.000 HD
ATOM     27  H   UNL     1      -6.592  12.914  17.637  0.00  0.00    +0.000 HD
ATOM     28  H   UNL     1      -3.274   9.772  14.640  0.00  0.00    +0.000 HD
ATOM     29  H   UNL     1      -1.704   9.932  15.314  0.00  0.00    +0.000 HD
ENDBRANCH  13  21
ENDBRANCH  11  13
ENDBRANCH   1  11
BRANCH   8  30
ATOM     30  C   UNL     1       5.687   4.722  16.704  0.00  0.00    +0.000 C 
BRANCH  30  31
ATOM     31  C   UNL     1       7.145   5.059  17.106  0.00  0.00    +0.000 C 
ATOM     32  O   UNL     1       7.854   4.382  17.837  0.00  0.00    +0.000 OA
BRANCH  31  33
ATOM     33  O   UNL     1       7.614   6.212  16.572  0.00  0.00    +0.000 OA
ATOM     34  H   UNL     1       8.532   6.449  16.804  0.00  0.00    +0.000 HD
ENDBRANCH  31  33
ENDBRANCH  30  31
BRANCH  30  35
ATOM     35  C   UNL     1       5.471   4.929  15.192  0.00  0.00    +0.000 C 
BRANCH  35  36
ATOM     36  C   UNL     1       6.205   3.932  14.291  0.00  0.00    +0.000 C 
BRANCH  36  37
ATOM     37  C   UNL     1       7.181   4.652  13.380  0.00  0.00    +0.000 C 
ATOM     38  O   UNL     1       7.911   5.564  13.719  0.00  0.00    +0.000 OA
BRANCH  37  39
ATOM     39  O   UNL     1       7.140   4.191  12.110  0.00  0.00    +0.000 OA
ATOM     40  H   UNL     1       7.964   4.322  11.607  0.00  0.00    +0.000 HD
ENDBRANCH  37  39
ENDBRANCH  36  37
ENDBRANCH  35  36
ENDBRANCH  30  35
ENDBRANCH   8  30
TORSDOF 10
ENDMDL
MODEL 2
REMARK VINA RESULT:      -8.7      2.407      3.298
REMARK  Name = 
REMARK  10 active torsions:
REMARK  status: ('A' for Active; 'I' for Inactive)
REMARK    1  A    between atoms: C_8  and  C_9
REMARK    2  A    between atoms: C_9  and  N_10
REMARK    3  A    between atoms: N_10  and  C_11
REMARK    4  A    between atoms: N_18  and  C_19
REMARK    5  A    between atoms: C_19  and  C_20
REMARK    6  A    between atoms: C_19  and  C_25
REMARK    7  A    between atoms: C_20  and  C_21
REMARK    8  A    between atoms: C_21  and  C_22
REMARK    9  A    between atoms: C_22  and  O_24
REMARK   10  A    between atoms: C_25  and  O_27
REMARK                            x       y       z     vdW  Elec       q    Type
REMARK                         _______ _______ _______ _____ _____    ______ ____
ROOT
ATOM      1  C   UNL     1       1.867   6.173  20.240  0.00  0.00    +0.000 A 
ATOM      2  C   UNL     1       1.507   4.807  20.283  0.00  0.00    +0.000 A 
ATOM      3  C   UNL     1       2.141   3.848  19.476  0.00  0.00    +0.000 A 
ATOM      4  C   UNL     1       3.108   4.299  18.598  0.00  0.00    +0.000 A 
ATOM      5  C   UNL     1       3.414   5.646  18.479  0.00  0.00    +0.000 A 
ATOM      6  C   UNL     1       2.796   6.590  19.279  0.00  0.00    +0.000 A 
ATOM      7  C   UNL     1       4.490   5.854  17.475  0.00  0.00    +0.000 C 
ATOM      8  N   UNL     1       4.729   4.507  16.977  0.00  0.00    +0.000 N 
ATOM      9  C   UNL     1       3.987   3.561  17.677  0.00  0.00    +0.000 C 
ATOM     10  O   UNL     1       4.047   2.352  17.580  0.00  0.00    +0.000 OA
ENDROOT
BRANCH   1  11
ATOM     11  N   UNL     1       1.215   7.059  21.112  0.00  0.00    +0.000 N 
ATOM     12  H   UNL     1       0.208   7.047  20.928  0.00  0.00    +0.000 HD
BRANCH  11  13
ATOM     13  C   UNL     1       1.675   8.457  21.163  0.00  0.00    +0.000 C 
BRANCH  13  21
ATOM     14  N   UNL     1      -3.801  13.572  22.851  0.00  0.00    +0.000 N 
ATOM     15  C   UNL     1      -2.813  12.767  22.338  0.00  0.00    +0.000 A 
ATOM     16  N   UNL     1      -2.548  12.865  21.037  0.00  0.00    +0.000 NA
ATOM     17  C   UNL     1      -1.626  12.023  20.550  0.00  0.00    +0.000 A 
ATOM     18  N   UNL     1      -1.440  12.062  19.156  0.00  0.00    +0.000 N 
ATOM     19  C   UNL     1      -0.938  11.092  21.315  0.00  0.00    +0.000 A 
ATOM     20  N   UNL     1       0.010  10.248  20.799  0.00  0.00    +0.000 NA
ATOM     21  C   UNL     1       0.612   9.409  21.673  0.00  0.00    +0.000 A 
ATOM     22  C   UNL     1       0.258   9.426  23.010  0.00  0.00    +0.000 A 
ATOM     23  N   UNL     1      -0.667  10.277  23.515  0.00  0.00    +0.000 NA
ATOM     24  C   UNL     1      -1.281  11.118  22.671  0.00  0.00    +0.000 A 
ATOM     25  N   UNL     1      -2.191  11.944  23.177  0.00  0.00    +0.000 NA
ATOM     26  H   UNL     1      -3.974  14.386  22.279  0.00  0.00    +0.000 HD
ATOM     27  H   UNL     1      -3.721  13.688  23.851  0.00  0.00    +0.000 HD
ATOM     28  H   UNL     1      -1.898  12.877  18.764  0.00  0.00    +0.000 HD
ATOM     29  H   UNL     1      -0.465  11.942  18.899  0.00  0.00    +0.000 HD
ENDBRANCH  13  21
ENDBRANCH  11  13
ENDBRANCH   1  11
BRANCH   8  30
ATOM     30  C   UNL     1       5.796   4.167  16.020  0.00  0.00    +0.000 C 
BRANCH  30  31
ATOM     31  C   UNL     1       7.172   4.842  16.248  0.00  0.00    +0.000 C 
ATOM     32  O   UNL     1       7.518   5.922  15.789  0.00  0.00    +0.000 OA
BRANCH  31  33
ATOM     33  O   UNL     1       8.018   4.125  17.026  0.00  0.00    +0.000 OA
ATOM     34  H   UNL     1       8.066   3.169  16.838  0.00  0.00    +0.000 HD
ENDBRANCH  31  33
ENDBRANCH  30  31
BRANCH  30  35
ATOM     35  C   UNL     1       5.328   4.352  14.563  0.00  0.00    +0.000 C 
BRANCH  35  36
ATOM     36  C   UNL     1       6.309   3.851  13.500  0.00  0.00    +0.000 C 
BRANCH  36  37
ATOM     37  C   UNL     1       5.566   3.188  12.357  0.00  0.00    +0.000 C 
ATOM     38  O   UNL     1       4.479   3.535  11.933  0.00  0.00    +0.000 OA
BRANCH  37  39
ATOM     39  O   UNL     1       6.231   2.122  11.856  0.00  0.00    +0.000 OA
ATOM     40  H   UNL     1       6.934   1.776  12.435  0.00  0.00    +0.000 HD
ENDBRANCH  37  39
ENDBRANCH  36  37
ENDBRANCH  35  36
ENDBRANCH  30  35
ENDBRANCH   8  30
TORSDOF 10
ENDMDL
MODEL 3
REMARK VINA RESULT:      -8.7      2.061      3.059
REMARK  Name = 
REMARK  10 active torsions:
REMARK  status: ('A' for Active; 'I' for Inactive)
REMARK    1  A    between atoms: C_8  and  C_9
REMARK    2  A    between atoms: C_9  and  N_10
REMARK    3  A    between atoms: N_10  and  C_11
REMARK    4  A    between atoms: N_18  and  C_19
REMARK    5  A    between atoms: C_19  and  C_20
REMARK    6  A    between atoms: C_19  and  C_25
REMARK    7  A    between atoms: C_20  and  C_21
REMARK    8  A    between atoms: C_21  and  C_22
REMARK    9  A    between atoms: C_22  and  O_24
REMARK   10  A    between atoms: C_25  and  O_27
REMARK                            x       y       z     vdW  Elec       q    Type
REMARK                         _______ _______ _______ _____ _____    ______ ____
ROOT
ATOM      1  C   UNL     1       1.557   9.682  18.675  0.00  0.00    +0.000 A 
ATOM      2  C   UNL     1       1.054   9.160  19.889  0.00  0.00    +0.000 A 
ATOM      3  C   UNL     1       1.419   7.887  20.355  0.00  0.00    +0.000 A 
ATOM      4  C   UNL     1       2.261   7.138  19.556  0.00  0.00    +0.000 A 
ATOM      5  C   UNL     1       2.696   7.597  18.323  0.00  0.00    +0.000 A 
ATOM      6  C   UNL     1       2.343   8.853  17.865  0.00  0.00    +0.000 A 
ATOM      7  C   UNL     1       3.594   6.603  17.678  0.00  0.00    +0.000 C 
ATOM      8  N   UNL     1       3.584   5.499  18.627  0.00  0.00    +0.000 N 
ATOM      9  C   UNL     1       2.871   5.817  19.779  0.00  0.00    +0.000 C 
ATOM     10  O   UNL     1       2.772   5.160  20.795  0.00  0.00    +0.000 OA
ENDROOT
BRANCH   1  11
ATOM     11  N   UNL     1       1.177  10.982  18.303  0.00  0.00    +0.000 N 
ATOM     12  H   UNL     1       1.986  11.483  17.926  0.00  0.00    +0.000 HD
BRANCH  11  13
ATOM     13  C   UNL     1       0.515  11.831  19.307  0.00  0.00    +0.000 C 
BRANCH  13  21
ATOM     14  N   UNL     1      -6.957  11.788  17.530  0.00  0.00    +0.000 N 
ATOM     15  C   UNL     1      -5.587  11.752  17.617  0.00  0.00    +0.000 A 
ATOM     16  N   UNL     1      -4.911  11.317  16.555  0.00  0.00    +0.000 NA
ATOM     17  C   UNL     1      -3.580  11.231  16.689  0.00  0.00    +0.000 A 
ATOM     18  N   UNL     1      -2.893  10.662  15.601  0.00  0.00    +0.000 N 
ATOM     19  C   UNL     1      -2.887  11.581  17.839  0.00  0.00    +0.000 A 
ATOM     20  N   UNL     1      -1.524  11.497  17.950  0.00  0.00    +0.000 NA
ATOM     21  C   UNL     1      -0.988  11.894  19.127  0.00  0.00    +0.000 A 
ATOM     22  C   UNL     1      -1.806  12.351  20.145  0.00  0.00    +0.000 A 
ATOM     23  N   UNL     1      -3.151  12.449  20.019  0.00  0.00    +0.000 NA
ATOM     24  C   UNL     1      -3.709  12.060  18.865  0.00  0.00    +0.000 A 
ATOM     25  N   UNL     1      -5.031  12.155  18.754  0.00  0.00    +0.000 NA
ATOM     26  H   UNL     1      -7.285  11.819  16.576  0.00  0.00    +0.000 HD
ATOM     27  H   UNL     1      -7.369  12.416  18.205  0.00  0.00    +0.000 HD
ATOM     28  H   UNL     1      -3.506  10.594  14.797  0.00  0.00    +0.000 HD
ATOM     29  H   UNL     1      -2.002  11.118  15.433  0.00  0.00    +0.000 HD
ENDBRANCH  13  21
ENDBRANCH  11  13
ENDBRANCH   1  11
BRANCH   8  30
ATOM     30  C   UNL     1       4.417   4.293  18.486  0.00  0.00    +0.000 C 
BRANCH  30  31
ATOM     31  C   UNL     1       5.952   4.501  18.534  0.00  0.00    +0.000 C 
ATOM     32  O   UNL     1       6.571   5.007  19.460  0.00  0.00    +0.000 OA
BRANCH  31  33
ATOM     33  O   UNL     1       6.605   4.069  17.428  0.00  0.00    +0.000 OA
ATOM     34  H   UNL     1       6.683   4.712  16.699  0.00  0.00    +0.000 HD
ENDBRANCH  31  33
ENDBRANCH  30  31
BRANCH  30  35
ATOM     35  C   UNL     1       4.014   3.468  17.248  0.00  0.00    +0.000 C 
BRANCH  35  36
ATOM     36  C   UNL     1       2.521   3.146  17.143  0.00  0.00    +0.000 C 
BRANCH  36  37
ATOM     37  C   UNL     1       2.078   2.273  18.300  0.00  0.00    +0.000 C 
ATOM     38  O   UNL     1       1.140   2.511  19.038  0.00  0.00    +0.000 OA
BRANCH  37  39
ATOM     39  O   UNL     1       2.866   1.186  18.461  0.00  0.00    +0.000 OA
ATOM     40  H   UNL     1       3.777   1.387  18.743  0.00  0.00    +0.000 HD
ENDBRANCH  37  39
ENDBRANCH  36  37
ENDBRANCH  35  36
ENDBRANCH  30  35
ENDBRANCH   8  30
TORSDOF 10
ENDMDL
MODEL 4
REMARK VINA RESULT:      -8.5      1.415      2.089
REMARK  Name = 
REMARK  10 active torsions:
REMARK  status: ('A' for Active; 'I' for Inactive)
REMARK    1  A    between atoms: C_8  and  C_9
REMARK    2  A    between atoms: C_9  and  N_10
REMARK    3  A    between atoms: N_10  and  C_11
REMARK    4  A    between atoms: N_18  and  C_19
REMARK    5  A    between atoms: C_19  and  C_20
REMARK    6  A    between atoms: C_19  and  C_25
REMARK    7  A    between atoms: C_20  and  C_21
REMARK    8  A    between atoms: C_21  and  C_22
REMARK    9  A    between atoms: C_22  and  O_24
REMARK   10  A    between atoms: C_25  and  O_27
REMARK                            x       y       z     vdW  Elec       q    Type
REMARK                         _______ _______ _______ _____ _____    ______ ____
ROOT
ATOM      1  C   UNL     1       1.535   9.678  19.079  0.00  0.00    +0.000 A 
ATOM      2  C   UNL     1       1.121   9.095  20.299  0.00  0.00    +0.000 A 
ATOM      3  C   UNL     1       1.442   7.770  20.633  0.00  0.00    +0.000 A 
ATOM      4  C   UNL     1       2.148   7.035  19.700  0.00  0.00    +0.000 A 
ATOM      5  C   UNL     1       2.488   7.561  18.463  0.00  0.00    +0.000 A 
ATOM      6  C   UNL     1       2.179   8.869  18.135  0.00  0.00    +0.000 A 
ATOM      7  C   UNL     1       3.248   6.568  17.659  0.00  0.00    +0.000 C 
ATOM      8  N   UNL     1       3.256   5.396  18.524  0.00  0.00    +0.000 N 
ATOM      9  C   UNL     1       2.686   5.667  19.763  0.00  0.00    +0.000 C 
ATOM     10  O   UNL     1       2.643   4.940  20.735  0.00  0.00    +0.000 OA
ENDROOT
BRANCH   1  11
ATOM     11  N   UNL     1       1.210  11.023  18.842  0.00  0.00    +0.000 N 
ATOM     12  H   UNL     1       2.061  11.553  18.634  0.00  0.00    +0.000 HD
BRANCH  11  13
ATOM     13  C   UNL     1       0.436  11.747  19.865  0.00  0.00    +0.000 C 
BRANCH  13  21
ATOM     14  N   UNL     1      -6.801  11.926  17.299  0.00  0.00    +0.000 N 
ATOM     15  C   UNL     1      -5.448  11.860  17.530  0.00  0.00    +0.000 A 
ATOM     16  N   UNL     1      -4.668  11.462  16.527  0.00  0.00    +0.000 NA
ATOM     17  C   UNL     1      -3.361  11.345  16.798  0.00  0.00    +0.000 A 
ATOM     18  N   UNL     1      -2.568  10.814  15.764  0.00  0.00    +0.000 N 
ATOM     19  C   UNL     1      -2.790  11.628  18.031  0.00  0.00    +0.000 A 
ATOM     20  N   UNL     1      -1.449  11.514  18.283  0.00  0.00    +0.000 NA
ATOM     21  C   UNL     1      -1.037  11.847  19.529  0.00  0.00    +0.000 A 
ATOM     22  C   UNL     1      -1.954  12.271  20.473  0.00  0.00    +0.000 A 
ATOM     23  N   UNL     1      -3.276  12.400  20.210  0.00  0.00    +0.000 NA
ATOM     24  C   UNL     1      -3.712  12.075  18.985  0.00  0.00    +0.000 A 
ATOM     25  N   UNL     1      -5.012  12.200  18.738  0.00  0.00    +0.000 NA
ATOM     26  H   UNL     1      -7.023  12.006  16.318  0.00  0.00    +0.000 HD
ATOM     27  H   UNL     1      -7.274  12.530  17.956  0.00  0.00    +0.000 HD
ATOM     28  H   UNL     1      -3.092  10.795  14.896  0.00  0.00    +0.000 HD
ATOM     29  H   UNL     1      -1.658  11.261  15.715  0.00  0.00    +0.000 HD
ENDBRANCH  13  21
ENDBRANCH  11  13
ENDBRANCH   1  11
BRANCH   8  30
ATOM     30  C   UNL     1       3.988   4.156  18.211  0.00  0.00    +0.000 C 
BRANCH  30  31
ATOM     31  C   UNL     1       5.233   3.848  19.081  0.00  0.00    +0.000 C 
ATOM     32  O   UNL     1       6.119   4.644  19.358  0.00  0.00    +0.000 OA
BRANCH  31  33
ATOM     33  O   UNL     1       5.287   2.574  19.539  0.00  0.00    +0.000 OA
ATOM     34  H   UNL     1       5.500   1.890  18.878  0.00  0.00    +0.000 HD
ENDBRANCH  31  33
ENDBRANCH  30  31
BRANCH  30  35
ATOM     35  C   UNL     1       4.328   4.063  16.711  0.00  0.00    +0.000 C 
BRANCH  35  36
ATOM     36  C   UNL     1       5.823   3.996  16.389  0.00  0.00    +0.000 C 
BRANCH  36  37
ATOM     37  C   UNL     1       6.343   5.361  15.981  0.00  0.00    +0.000 C 
ATOM     38  O   UNL     1       5.878   6.050  15.093  0.00  0.00    +0.000 OA
BRANCH  37  39
ATOM     39  O   UNL     1       7.425   5.738  16.698  0.00  0.00    +0.000 OA
ATOM     40  H   UNL     1       7.673   6.674  16.592  0.00  0.00    +0.000 HD
ENDBRANCH  37  39
ENDBRANCH  36  37
ENDBRANCH  35  36
ENDBRANCH  30  35
ENDBRANCH   8  30
TORSDOF 10
ENDMDL
MODEL 5
REMARK VINA RESULT:      -8.5      2.264      3.012
REMARK  Name = 
REMARK  10 active torsions:
REMARK  status: ('A' for Active; 'I' for Inactive)
REMARK    1  A    between atoms: C_8  and  C_9
REMARK    2  A    between atoms: C_9  and  N_10
REMARK    3  A    between atoms: N_10  and  C_11
REMARK    4  A    between atoms: N_18  and  C_19
REMARK    5  A    between atoms: C_19  and  C_20
REMARK    6  A    between atoms: C_19  and  C_25
REMARK    7  A    between atoms: C_20  and  C_21
REMARK    8  A    between atoms: C_21  and  C_22
REMARK    9  A    between atoms: C_22  and  O_24
REMARK   10  A    between atoms: C_25  and  O_27
REMARK                            x       y       z     vdW  Elec       q    Type
REMARK                         _______ _______ _______ _____ _____    ______ ____
ROOT
ATOM      1  C   UNL     1       1.836   6.679  20.335  0.00  0.00    +0.000 A 
ATOM      2  C   UNL     1       1.496   5.315  20.487  0.00  0.00    +0.000 A 
ATOM      3  C   UNL     1       2.156   4.304  19.770  0.00  0.00    +0.000 A 
ATOM      4  C   UNL     1       3.128   4.697  18.871  0.00  0.00    +0.000 A 
ATOM      5  C   UNL     1       3.415   6.034  18.645  0.00  0.00    +0.000 A 
ATOM      6  C   UNL     1       2.771   7.031  19.355  0.00  0.00    +0.000 A 
ATOM      7  C   UNL     1       4.502   6.177  17.640  0.00  0.00    +0.000 C 
ATOM      8  N   UNL     1       4.769   4.797  17.260  0.00  0.00    +0.000 N 
ATOM      9  C   UNL     1       4.032   3.900  18.025  0.00  0.00    +0.000 C 
ATOM     10  O   UNL     1       4.112   2.688  18.030  0.00  0.00    +0.000 OA
ENDROOT
BRANCH   1  11
ATOM     11  N   UNL     1       1.158   7.623  21.123  0.00  0.00    +0.000 N 
ATOM     12  H   UNL     1       0.157   7.405  21.140  0.00  0.00    +0.000 HD
BRANCH  11  13
ATOM     13  C   UNL     1       1.328   9.051  20.806  0.00  0.00    +0.000 C 
BRANCH  13  21
ATOM     14  N   UNL     1      -4.227  13.829  23.111  0.00  0.00    +0.000 N 
ATOM     15  C   UNL     1      -3.240  13.098  22.495  0.00  0.00    +0.000 A 
ATOM     16  N   UNL     1      -3.047  13.292  21.192  0.00  0.00    +0.000 NA
ATOM     17  C   UNL     1      -2.123  12.520  20.604  0.00  0.00    +0.000 A 
ATOM     18  N   UNL     1      -2.012  12.658  19.208  0.00  0.00    +0.000 N 
ATOM     19  C   UNL     1      -1.364  11.567  21.268  0.00  0.00    +0.000 A 
ATOM     20  N   UNL     1      -0.415  10.797  20.649  0.00  0.00    +0.000 NA
ATOM     21  C   UNL     1       0.261   9.925  21.433  0.00  0.00    +0.000 A 
ATOM     22  C   UNL     1      -0.022   9.841  22.784  0.00  0.00    +0.000 A 
ATOM     23  N   UNL     1      -0.949  10.620  23.391  0.00  0.00    +0.000 NA
ATOM     24  C   UNL     1      -1.635  11.491  22.638  0.00  0.00    +0.000 A 
ATOM     25  N   UNL     1      -2.546  12.247  23.244  0.00  0.00    +0.000 NA
ATOM     26  H   UNL     1      -4.458  14.671  22.605  0.00  0.00    +0.000 HD
ATOM     27  H   UNL     1      -4.099  13.882  24.111  0.00  0.00    +0.000 HD
ATOM     28  H   UNL     1      -2.518  13.479  18.896  0.00  0.00    +0.000 HD
ATOM     29  H   UNL     1      -1.049  12.593  18.895  0.00  0.00    +0.000 HD
ENDBRANCH  13  21
ENDBRANCH  11  13
ENDBRANCH   1  11
BRANCH   8  30
ATOM     30  C   UNL     1       5.855   4.397  16.348  0.00  0.00    +0.000 C 
BRANCH  30  31
ATOM     31  C   UNL     1       7.286   4.853  16.731  0.00  0.00    +0.000 C 
ATOM     32  O   UNL     1       8.089   4.198  17.380  0.00  0.00    +0.000 OA
BRANCH  31  33
ATOM     33  O   UNL     1       7.612   6.089  16.281  0.00  0.00    +0.000 OA
ATOM     34  H   UNL     1       8.250   6.122  15.544  0.00  0.00    +0.000 HD
ENDBRANCH  31  33
ENDBRANCH  30  31
BRANCH  30  35
ATOM     35  C   UNL     1       5.532   4.769  14.887  0.00  0.00    +0.000 C 
BRANCH  35  36
ATOM     36  C   UNL     1       6.108   3.818  13.835  0.00  0.00    +0.000 C 
BRANCH  36  37
ATOM     37  C   UNL     1       7.104   4.540  12.949  0.00  0.00    +0.000 C 
ATOM     38  O   UNL     1       7.313   4.284  11.777  0.00  0.00    +0.000 OA
BRANCH  37  39
ATOM     39  O   UNL     1       7.783   5.504  13.610  0.00  0.00    +0.000 OA
ATOM     40  H   UNL     1       8.478   5.940  13.085  0.00  0.00    +0.000 HD
ENDBRANCH  37  39
ENDBRANCH  36  37
ENDBRANCH  35  36
ENDBRANCH  30  35
ENDBRANCH   8  30
TORSDOF 10
ENDMDL
MODEL 6
REMARK VINA RESULT:      -8.5      2.021      2.916
REMARK  Name = 
REMARK  10 active torsions:
REMARK  status: ('A' for Active; 'I' for Inactive)
REMARK    1  A    between atoms: C_8  and  C_9
REMARK    2  A    between atoms: C_9  and  N_10
REMARK    3  A    between atoms: N_10  and  C_11
REMARK    4  A    between atoms: N_18  and  C_19
REMARK    5  A    between atoms: C_19  and  C_20
REMARK    6  A    between atoms: C_19  and  C_25
REMARK    7  A    between atoms: C_20  and  C_21
REMARK    8  A    between atoms: C_21  and  C_22
REMARK    9  A    between atoms: C_22  and  O_24
REMARK   10  A    between atoms: C_25  and  O_27
REMARK                            x       y       z     vdW  Elec       q    Type
REMARK                         _______ _______ _______ _____ _____    ______ ____
ROOT
ATOM      1  C   UNL     1       2.120   6.394  20.344  0.00  0.00    +0.000 A 
ATOM      2  C   UNL     1       1.599   5.080  20.317  0.00  0.00    +0.000 A 
ATOM      3  C   UNL     1       2.115   4.096  19.458  0.00  0.00    +0.000 A 
ATOM      4  C   UNL     1       3.130   4.474  18.600  0.00  0.00    +0.000 A 
ATOM      5  C   UNL     1       3.594   5.780  18.551  0.00  0.00    +0.000 A 
ATOM      6  C   UNL     1       3.093   6.747  19.402  0.00  0.00    +0.000 A 
ATOM      7  C   UNL     1       4.689   5.911  17.553  0.00  0.00    +0.000 C 
ATOM      8  N   UNL     1       4.767   4.573  16.985  0.00  0.00    +0.000 N 
ATOM      9  C   UNL     1       3.916   3.687  17.637  0.00  0.00    +0.000 C 
ATOM     10  O   UNL     1       3.832   2.486  17.477  0.00  0.00    +0.000 OA
ENDROOT
BRANCH   1  11
ATOM     11  N   UNL     1       1.577   7.304  21.265  0.00  0.00    +0.000 N 
ATOM     12  H   UNL     1       1.633   6.914  22.211  0.00  0.00    +0.000 HD
BRANCH  11  13
ATOM     13  C   UNL     1       0.210   7.802  21.035  0.00  0.00    +0.000 C 
BRANCH  13  21
ATOM     14  N   UNL     1      -0.461  15.139  18.866  0.00  0.00    +0.000 N 
ATOM     15  C   UNL     1      -0.404  13.777  19.030  0.00  0.00    +0.000 A 
ATOM     16  N   UNL     1      -0.898  13.015  18.056  0.00  0.00    +0.000 NA
ATOM     17  C   UNL     1      -0.889  11.692  18.270  0.00  0.00    +0.000 A 
ATOM     18  N   UNL     1      -1.516  10.909  17.283  0.00  0.00    +0.000 N 
ATOM     19  C   UNL     1      -0.388  11.090  19.416  0.00  0.00    +0.000 A 
ATOM     20  N   UNL     1      -0.378   9.733  19.609  0.00  0.00    +0.000 NA
ATOM     21  C   UNL     1       0.163   9.292  20.768  0.00  0.00    +0.000 A 
ATOM     22  C   UNL     1       0.665  10.194  21.689  0.00  0.00    +0.000 A 
ATOM     23  N   UNL     1       0.668  11.533  21.481  0.00  0.00    +0.000 NA
ATOM     24  C   UNL     1       0.136  11.997  20.342  0.00  0.00    +0.000 A 
ATOM     25  N   UNL     1       0.139  13.313  20.151  0.00  0.00    +0.000 NA
ATOM     26  H   UNL     1      -0.543  15.410  17.897  0.00  0.00    +0.000 HD
ATOM     27  H   UNL     1       0.203  15.625  19.452  0.00  0.00    +0.000 HD
ATOM     28  H   UNL     1      -1.699  11.469  16.457  0.00  0.00    +0.000 HD
ATOM     29  H   UNL     1      -1.025  10.037  17.120  0.00  0.00    +0.000 HD
ENDBRANCH  13  21
ENDBRANCH  11  13
ENDBRANCH   1  11
BRANCH   8  30
ATOM     30  C   UNL     1       5.786   4.160  16.006  0.00  0.00    +0.000 C 
BRANCH  30  31
ATOM     31  C   UNL     1       7.197   4.780  16.170  0.00  0.00    +0.000 C 
ATOM     32  O   UNL     1       7.604   5.779  15.593  0.00  0.00    +0.000 OA
BRANCH  31  33
ATOM     33  O   UNL     1       7.998   4.114  17.036  0.00  0.00    +0.000 OA
ATOM     34  H   UNL     1       8.200   3.188  16.805  0.00  0.00    +0.000 HD
ENDBRANCH  31  33
ENDBRANCH  30  31
BRANCH  30  35
ATOM     35  C   UNL     1       5.280   4.321  14.559  0.00  0.00    +0.000 C 
BRANCH  35  36
ATOM     36  C   UNL     1       6.276   3.906  13.474  0.00  0.00    +0.000 C 
BRANCH  36  37
ATOM     37  C   UNL     1       5.568   3.184  12.345  0.00  0.00    +0.000 C 
ATOM     38  O   UNL     1       4.496   3.511  11.868  0.00  0.00    +0.000 OA
BRANCH  37  39
ATOM     39  O   UNL     1       6.243   2.091  11.923  0.00  0.00    +0.000 OA
ATOM     40  H   UNL     1       6.650   1.568  12.638  0.00  0.00    +0.000 HD
ENDBRANCH  37  39
ENDBRANCH  36  37
ENDBRANCH  35  36
ENDBRANCH  30  35
ENDBRANCH   8  30
TORSDOF 10
ENDMDL
MODEL 7
REMARK VINA RESULT:      -8.4      1.712      2.987
REMARK  Name = 
REMARK  10 active torsions:
REMARK  status: ('A' for Active; 'I' for Inactive)
REMARK    1  A    between atoms: C_8  and  C_9
REMARK    2  A    between atoms: C_9  and  N_10
REMARK    3  A    between atoms: N_10  and  C_11
REMARK    4  A    between atoms: N_18  and  C_19
REMARK    5  A    between atoms: C_19  and  C_20
REMARK    6  A    between atoms: C_19  and  C_25
REMARK    7  A    between atoms: C_20  and  C_21
REMARK    8  A    between atoms: C_21  and  C_22
REMARK    9  A    between atoms: C_22  and  O_24
REMARK   10  A    between atoms: C_25  and  O_27
REMARK                            x       y       z     vdW  Elec       q    Type
REMARK                         _______ _______ _______ _____ _____    ______ ____
ROOT
ATOM      1  C   UNL     1       1.283   8.745  19.722  0.00  0.00    +0.000 A 
ATOM      2  C   UNL     1       1.700   9.288  18.485  0.00  0.00    +0.000 A 
ATOM      3  C   UNL     1       2.622   8.625  17.659  0.00  0.00    +0.000 A 
ATOM      4  C   UNL     1       3.146   7.434  18.123  0.00  0.00    +0.000 A 
ATOM      5  C   UNL     1       2.816   6.929  19.371  0.00  0.00    +0.000 A 
ATOM      6  C   UNL     1       1.902   7.577  20.183  0.00  0.00    +0.000 A 
ATOM      7  C   UNL     1       3.509   5.637  19.617  0.00  0.00    +0.000 C 
ATOM      8  N   UNL     1       4.322   5.477  18.419  0.00  0.00    +0.000 N 
ATOM      9  C   UNL     1       4.068   6.479  17.488  0.00  0.00    +0.000 C 
ATOM     10  O   UNL     1       4.496   6.564  16.355  0.00  0.00    +0.000 OA
ENDROOT
BRANCH   1  11
ATOM     11  N   UNL     1       0.324   9.450  20.467  0.00  0.00    +0.000 N 
ATOM     12  H   UNL     1      -0.591   9.001  20.364  0.00  0.00    +0.000 HD
BRANCH  11  13
ATOM     13  C   UNL     1       0.174  10.895  20.226  0.00  0.00    +0.000 C 
BRANCH  13  21
ATOM     14  N   UNL     1      -6.654  12.266  16.988  0.00  0.00    +0.000 N 
ATOM     15  C   UNL     1      -5.374  11.930  17.355  0.00  0.00    +0.000 A 
ATOM     16  N   UNL     1      -4.672  11.164  16.522  0.00  0.00    +0.000 NA
ATOM     17  C   UNL     1      -3.450  10.797  16.935  0.00  0.00    +0.000 A 
ATOM     18  N   UNL     1      -2.768   9.896  16.096  0.00  0.00    +0.000 N 
ATOM     19  C   UNL     1      -2.887  11.179  18.144  0.00  0.00    +0.000 A 
ATOM     20  N   UNL     1      -1.631  10.803  18.541  0.00  0.00    +0.000 NA
ATOM     21  C   UNL     1      -1.209  11.272  19.738  0.00  0.00    +0.000 A 
ATOM     22  C   UNL     1      -2.033  12.083  20.496  0.00  0.00    +0.000 A 
ATOM     23  N   UNL     1      -3.267  12.466  20.087  0.00  0.00    +0.000 NA
ATOM     24  C   UNL     1      -3.711  12.014  18.906  0.00  0.00    +0.000 A 
ATOM     25  N   UNL     1      -4.925  12.392  18.518  0.00  0.00    +0.000 NA
ATOM     26  H   UNL     1      -6.801  12.198  15.991  0.00  0.00    +0.000 HD
ATOM     27  H   UNL     1      -6.991  13.084  17.474  0.00  0.00    +0.000 HD
ATOM     28  H   UNL     1      -3.238   9.828  15.200  0.00  0.00    +0.000 HD
ATOM     29  H   UNL     1      -1.774  10.095  16.054  0.00  0.00    +0.000 HD
ENDBRANCH  13  21
ENDBRANCH  11  13
ENDBRANCH   1  11
BRANCH   8  30
ATOM     30  C   UNL     1       5.130   4.279  18.135  0.00  0.00    +0.000 C 
BRANCH  30  31
ATOM     31  C   UNL     1       6.620   4.516  17.780  0.00  0.00    +0.000 C 
ATOM     32  O   UNL     1       7.534   4.616  18.585  0.00  0.00    +0.000 OA
BRANCH  31  33
ATOM     33  O   UNL     1       6.863   4.614  16.451  0.00  0.00    +0.000 OA
ATOM     34  H   UNL     1       6.522   5.415  16.011  0.00  0.00    +0.000 HD
ENDBRANCH  31  33
ENDBRANCH  30  31
BRANCH  30  35
ATOM     35  C   UNL     1       4.452   3.376  17.087  0.00  0.00    +0.000 C 
BRANCH  35  36
ATOM     36  C   UNL     1       3.015   2.965  17.418  0.00  0.00    +0.000 C 
BRANCH  36  37
ATOM     37  C   UNL     1       2.998   1.898  18.494  0.00  0.00    +0.000 C 
ATOM     38  O   UNL     1       2.298   1.920  19.490  0.00  0.00    +0.000 OA
BRANCH  37  39
ATOM     39  O   UNL     1       3.882   0.903  18.253  0.00  0.00    +0.000 OA
ATOM     40  H   UNL     1       3.482   0.018  18.176  0.00  0.00    +0.000 HD
ENDBRANCH  37  39
ENDBRANCH  36  37
ENDBRANCH  35  36
ENDBRANCH  30  35
ENDBRANCH   8  30
TORSDOF 10
ENDMDL
MODEL 8
REMARK VINA RESULT:      -8.4      1.816      2.534
REMARK  Name = 
REMARK  10 active torsions:
REMARK  status: ('A' for Active; 'I' for Inactive)
REMARK    1  A    between atoms: C_8  and  C_9
REMARK    2  A    between atoms: C_9  and  N_10
REMARK    3  A    between atoms: N_10  and  C_11
REMARK    4  A    between atoms: N_18  and  C_19
REMARK    5  A    between atoms: C_19  and  C_20
REMARK    6  A    between atoms: C_19  and  C_25
REMARK    7  A    between atoms: C_20  and  C_21
REMARK    8  A    between atoms: C_21  and  C_22
REMARK    9  A    between atoms: C_22  and  O_24
REMARK   10  A    between atoms: C_25  and  O_27
REMARK                            x       y       z     vdW  Elec       q    Type
REMARK                         _______ _______ _______ _____ _____    ______ ____
ROOT
ATOM      1  C   UNL     1       1.980   6.046  20.187  0.00  0.00    +0.000 A 
ATOM      2  C   UNL     1       1.613   4.681  20.169  0.00  0.00    +0.000 A 
ATOM      3  C   UNL     1       2.215   3.764  19.292  0.00  0.00    +0.000 A 
ATOM      4  C   UNL     1       3.157   4.257  18.410  0.00  0.00    +0.000 A 
ATOM      5  C   UNL     1       3.468   5.606  18.354  0.00  0.00    +0.000 A 
ATOM      6  C   UNL     1       2.881   6.510  19.221  0.00  0.00    +0.000 A 
ATOM      7  C   UNL     1       4.514   5.863  17.329  0.00  0.00    +0.000 C 
ATOM      8  N   UNL     1       4.729   4.543  16.753  0.00  0.00    +0.000 N 
ATOM      9  C   UNL     1       4.002   3.565  17.424  0.00  0.00    +0.000 C 
ATOM     10  O   UNL     1       4.052   2.362  17.261  0.00  0.00    +0.000 OA
ENDROOT
BRANCH   1  11
ATOM     11  N   UNL     1       1.361   6.887  21.126  0.00  0.00    +0.000 N 
ATOM     12  H   UNL     1       0.356   6.935  20.937  0.00  0.00    +0.000 HD
BRANCH  11  13
ATOM     13  C   UNL     1       1.881   8.255  21.290  0.00  0.00    +0.000 C 
BRANCH  13  21
ATOM     14  N   UNL     1      -3.608  13.451  19.924  0.00  0.00    +0.000 N 
ATOM     15  C   UNL     1      -2.596  12.522  19.932  0.00  0.00    +0.000 A 
ATOM     16  N   UNL     1      -2.212  12.014  18.762  0.00  0.00    +0.000 NA
ATOM     17  C   UNL     1      -1.269  11.063  18.805  0.00  0.00    +0.000 A 
ATOM     18  N   UNL     1      -0.957  10.457  17.574  0.00  0.00    +0.000 N 
ATOM     19  C   UNL     1      -0.675  10.605  19.972  0.00  0.00    +0.000 A 
ATOM     20  N   UNL     1       0.297   9.639  19.992  0.00  0.00    +0.000 NA
ATOM     21  C   UNL     1       0.798   9.311  21.205  0.00  0.00    +0.000 A 
ATOM     22  C   UNL     1       0.325   9.935  22.345  0.00  0.00    +0.000 A 
ATOM     23  N   UNL     1      -0.623  10.903  22.314  0.00  0.00    +0.000 NA
ATOM     24  C   UNL     1      -1.138  11.246  21.126  0.00  0.00    +0.000 A 
ATOM     25  N   UNL     1      -2.071  12.193  21.108  0.00  0.00    +0.000 NA
ATOM     26  H   UNL     1      -3.709  13.905  19.028  0.00  0.00    +0.000 HD
ATOM     27  H   UNL     1      -3.616  14.017  20.759  0.00  0.00    +0.000 HD
ATOM     28  H   UNL     1      -1.359  10.990  16.810  0.00  0.00    +0.000 HD
ATOM     29  H   UNL     1       0.034  10.254  17.490  0.00  0.00    +0.000 HD
ENDBRANCH  13  21
ENDBRANCH  11  13
ENDBRANCH   1  11
BRANCH   8  30
ATOM     30  C   UNL     1       5.763   4.250  15.746  0.00  0.00    +0.000 C 
BRANCH  30  31
ATOM     31  C   UNL     1       7.184   4.799  16.032  0.00  0.00    +0.000 C 
ATOM     32  O   UNL     1       7.692   5.771  15.491  0.00  0.00    +0.000 OA
BRANCH  31  33
ATOM     33  O   UNL     1       7.870   4.098  16.967  0.00  0.00    +0.000 OA
ATOM     34  H   UNL     1       7.493   4.101  17.866  0.00  0.00    +0.000 HD
ENDBRANCH  31  33
ENDBRANCH  30  31
BRANCH  30  35
ATOM     35  C   UNL     1       5.299   4.639  14.329  0.00  0.00    +0.000 C 
BRANCH  35  36
ATOM     36  C   UNL     1       5.305   3.498  13.309  0.00  0.00    +0.000 C 
BRANCH  36  37
ATOM     37  C   UNL     1       6.548   3.558  12.444  0.00  0.00    +0.000 C 
ATOM     38  O   UNL     1       7.246   4.544  12.290  0.00  0.00    +0.000 OA
BRANCH  37  39
ATOM     39  O   UNL     1       6.800   2.389  11.815  0.00  0.00    +0.000 OA
ATOM     40  H   UNL     1       6.602   2.393  10.861  0.00  0.00    +0.000 HD
ENDBRANCH  37  39
ENDBRANCH  36  37
ENDBRANCH  35  36
ENDBRANCH  30  35
ENDBRANCH   8  30
TORSDOF 10
ENDMDL
MODEL 9
REMARK VINA RESULT:      -8.3      1.443      2.216
REMARK  Name = 
REMARK  10 active torsions:
REMARK  status: ('A' for Active; 'I' for Inactive)
REMARK    1  A    between atoms: C_8  and  C_9
REMARK    2  A    between atoms: C_9  and  N_10
REMARK    3  A    between atoms: N_10  and  C_11
REMARK    4  A    between atoms: N_18  and  C_19
REMARK    5  A    between atoms: C_19  and  C_20
REMARK    6  A    between atoms: C_19  and  C_25
REMARK    7  A    between atoms: C_20  and  C_21
REMARK    8  A    between atoms: C_21  and  C_22
REMARK    9  A    between atoms: C_22  and  O_24
REMARK   10  A    between atoms: C_25  and  O_27
REMARK                            x       y       z     vdW  Elec       q    Type
REMARK                         _______ _______ _______ _____ _____    ______ ____
ROOT
ATOM      1  C   UNL     1       1.425   9.407  19.369  0.00  0.00    +0.000 A 
ATOM      2  C   UNL     1       1.089   8.658  20.520  0.00  0.00    +0.000 A 
ATOM      3  C   UNL     1       1.576   7.357  20.725  0.00  0.00    +0.000 A 
ATOM      4  C   UNL     1       2.367   6.813  19.731  0.00  0.00    +0.000 A 
ATOM      5  C   UNL     1       2.637   7.499  18.557  0.00  0.00    +0.000 A 
ATOM      6  C   UNL     1       2.164   8.783  18.357  0.00  0.00    +0.000 A 
ATOM      7  C   UNL     1       3.515   6.694  17.667  0.00  0.00    +0.000 C 
ATOM      8  N   UNL     1       3.672   5.452  18.411  0.00  0.00    +0.000 N 
ATOM      9  C   UNL     1       3.073   5.524  19.665  0.00  0.00    +0.000 C 
ATOM     10  O   UNL     1       3.125   4.704  20.559  0.00  0.00    +0.000 OA
ENDROOT
BRANCH   1  11
ATOM     11  N   UNL     1       0.932  10.717  19.263  0.00  0.00    +0.000 N 
ATOM     12  H   UNL     1       1.711  11.370  19.137  0.00  0.00    +0.000 HD
BRANCH  11  13
ATOM     13  C   UNL     1       0.055  11.224  20.332  0.00  0.00    +0.000 C 
BRANCH  13  21
ATOM     14  N   UNL     1      -6.841  12.245  17.106  0.00  0.00    +0.000 N 
ATOM     15  C   UNL     1      -5.542  11.982  17.469  0.00  0.00    +0.000 A 
ATOM     16  N   UNL     1      -4.788  11.294  16.614  0.00  0.00    +0.000 NA
ATOM     17  C   UNL     1      -3.546  10.995  17.020  0.00  0.00    +0.000 A 
ATOM     18  N   UNL     1      -2.803  10.171  16.155  0.00  0.00    +0.000 N 
ATOM     19  C   UNL     1      -3.013  11.373  18.244  0.00  0.00    +0.000 A 
ATOM     20  N   UNL     1      -1.735  11.068  18.635  0.00  0.00    +0.000 NA
ATOM     21  C   UNL     1      -1.349  11.523  19.849  0.00  0.00    +0.000 A 
ATOM     22  C   UNL     1      -2.228  12.252  20.630  0.00  0.00    +0.000 A 
ATOM     23  N   UNL     1      -3.483  12.565  20.228  0.00  0.00    +0.000 NA
ATOM     24  C   UNL     1      -3.893  12.125  19.030  0.00  0.00    +0.000 A 
ATOM     25  N   UNL     1      -5.128  12.434  18.648  0.00  0.00    +0.000 NA
ATOM     26  H   UNL     1      -6.981  12.201  16.107  0.00  0.00    +0.000 HD
ATOM     27  H   UNL     1      -7.233  13.022  17.618  0.00  0.00    +0.000 HD
ATOM     28  H   UNL     1      -3.265  10.102  15.255  0.00  0.00    +0.000 HD
ATOM     29  H   UNL     1      -1.824  10.437  16.125  0.00  0.00    +0.000 HD
ENDBRANCH  13  21
ENDBRANCH  11  13
ENDBRANCH   1  11
BRANCH   8  30
ATOM     30  C   UNL     1       4.553   4.351  17.985  0.00  0.00    +0.000 C 
BRANCH  30  31
ATOM     31  C   UNL     1       4.178   2.931  18.480  0.00  0.00    +0.000 C 
ATOM     32  O   UNL     1       3.279   2.237  18.027  0.00  0.00    +0.000 OA
BRANCH  31  33
ATOM     33  O   UNL     1       4.944   2.480  19.502  0.00  0.00    +0.000 OA
ATOM     34  H   UNL     1       5.738   1.973  19.250  0.00  0.00    +0.000 HD
ENDBRANCH  31  33
ENDBRANCH  30  31
BRANCH  30  35
ATOM     35  C   UNL     1       6.033   4.664  18.284  0.00  0.00    +0.000 C 
BRANCH  35  36
ATOM     36  C   UNL     1       6.987   4.464  17.104  0.00  0.00    +0.000 C 
BRANCH  36  37
ATOM     37  C   UNL     1       7.134   5.748  16.311  0.00  0.00    +0.000 C 
ATOM     38  O   UNL     1       6.903   6.865  16.738  0.00  0.00    +0.000 OA
BRANCH  37  39
ATOM     39  O   UNL     1       7.528   5.529  15.037  0.00  0.00    +0.000 OA
ATOM     40  H   UNL     1       6.939   5.911  14.361  0.00  0.00    +0.000 HD
ENDBRANCH  37  39
ENDBRANCH  36  37
ENDBRANCH  35  36
ENDBRANCH  30  35
ENDBRANCH   8  30
TORSDOF 10
ENDMDL
