MODEL 1
REMARK VINA RESULT:      -6.6      0.000      0.000
REMARK  Name = 
REMARK  5 active torsions:
REMARK  status: ('A' for Active; 'I' for Inactive)
REMARK    1  A    between atoms: N_1  and  C_2
REMARK    2  A    between atoms: C_2  and  C_3
REMARK    3  A    between atoms: C_3  and  C_4
REMARK    4  A    between atoms: C_10  and  O_11
REMARK    5  A    between atoms: C_12  and  O_13
REMARK                            x       y       z     vdW  Elec       q    Type
REMARK                         _______ _______ _______ _____ _____    ______ ____
ROOT
ATOM      1  C   UNL     1       4.638   4.792  17.551  0.00  0.00    +0.000 A 
ATOM      2  C   UNL     1       5.186   5.672  18.467  0.00  0.00    +0.000 A 
ATOM      3  N   UNL     1       4.470   5.599  19.627  0.00  0.00    +0.000 N 
ATOM      4  C   UNL     1       3.447   4.695  19.481  0.00  0.00    +0.000 A 
ATOM      5  C   UNL     1       2.465   4.305  20.387  0.00  0.00    +0.000 A 
ATOM      6  F   UNL     1       2.405   4.827  21.619  0.00  0.00    +0.000 F 
ATOM      7  C   UNL     1       1.534   3.353  19.983  0.00  0.00    +0.000 A 
ATOM      8  C   UNL     1       1.580   2.810  18.706  0.00  0.00    +0.000 A 
ATOM      9  C   UNL     1       2.552   3.225  17.792  0.00  0.00    +0.000 A 
ATOM     10  F   UNL     1       2.565   2.726  16.547  0.00  0.00    +0.000 F 
ATOM     11  C   UNL     1       3.519   4.173  18.187  0.00  0.00    +0.000 A 
ATOM     12  H   UNL     1       4.649   6.137  20.467  0.00  0.00    +0.000 HD
ENDROOT
BRANCH   7  13
ATOM     13  O   UNL     1       0.544   2.936  20.836  0.00  0.00    +0.000 OA
ATOM     14  H   UNL     1       0.466   3.622  21.527  0.00  0.00    +0.000 HD
ENDBRANCH   7  13
BRANCH   8  15
ATOM     15  O   UNL     1       0.667   1.853  18.352  0.00  0.00    +0.000 OA
ATOM     16  H   UNL     1       1.148   1.247  17.754  0.00  0.00    +0.000 HD
ENDBRANCH   8  15
BRANCH   1  17
ATOM     17  C   UNL     1       5.101   4.574  16.143  0.00  0.00    +0.000 C 
BRANCH  17  18
ATOM     18  C   UNL     1       6.629   4.414  16.109  0.00  0.00    +0.000 C 
BRANCH  18  19
ATOM     19  N   UNL     1       7.359   5.436  15.369  0.00  0.00    +0.000 NA
ATOM     20  H   UNL     1       6.724   6.141  15.006  0.00  0.00    +0.000 HD
ATOM     21  H   UNL     1       7.907   5.999  16.030  0.00  0.00    +0.000 HD
ENDBRANCH  18  19
ENDBRANCH  17  18
ENDBRANCH   1  17
TORSDOF 5
ENDMDL
MODEL 2
REMARK VINA RESULT:      -6.5      3.218      5.284
REMARK  Name = 
REMARK  5 active torsions:
REMARK  status: ('A' for Active; 'I' for Inactive)
REMARK    1  A    between atoms: N_1  and  C_2
REMARK    2  A    between atoms: C_2  and  C_3
REMARK    3  A    between atoms: C_3  and  C_4
REMARK    4  A    between atoms: C_10  and  O_11
REMARK    5  A    between atoms: C_12  and  O_13
REMARK                            x       y       z     vdW  Elec       q    Type
REMARK                         _______ _______ _______ _____ _____    ______ ____
ROOT
ATOM      1  C   UNL     1       2.455   2.942  18.929  0.00  0.00    +0.000 A 
ATOM      2  C   UNL     1       3.059   1.760  18.541  0.00  0.00    +0.000 A 
ATOM      3  N   UNL     1       4.088   2.052  17.692  0.00  0.00    +0.000 N 
ATOM      4  C   UNL     1       4.158   3.410  17.503  0.00  0.00    +0.000 A 
ATOM      5  C   UNL     1       5.032   4.158  16.720  0.00  0.00    +0.000 A 
ATOM      6  F   UNL     1       5.991   3.572  15.990  0.00  0.00    +0.000 F 
ATOM      7  C   UNL     1       4.889   5.542  16.707  0.00  0.00    +0.000 A 
ATOM      8  C   UNL     1       3.894   6.162  17.451  0.00  0.00    +0.000 A 
ATOM      9  C   UNL     1       3.003   5.403  18.215  0.00  0.00    +0.000 A 
ATOM     10  F   UNL     1       2.019   6.006  18.899  0.00  0.00    +0.000 F 
ATOM     11  C   UNL     1       3.143   4.000  18.260  0.00  0.00    +0.000 A 
ATOM     12  H   UNL     1       4.702   1.377  17.253  0.00  0.00    +0.000 HD
ENDROOT
BRANCH   7  13
ATOM     13  O   UNL     1       5.722   6.325  15.949  0.00  0.00    +0.000 OA
ATOM     14  H   UNL     1       5.470   7.252  16.127  0.00  0.00    +0.000 HD
ENDBRANCH   7  13
BRANCH   8  15
ATOM     15  O   UNL     1       3.800   7.527  17.439  0.00  0.00    +0.000 OA
ATOM     16  H   UNL     1       3.757   7.790  18.380  0.00  0.00    +0.000 HD
ENDBRANCH   8  15
BRANCH   1  17
ATOM     17  C   UNL     1       1.270   3.077  19.835  0.00  0.00    +0.000 C 
BRANCH  17  18
ATOM     18  C   UNL     1       1.718   3.567  21.220  0.00  0.00    +0.000 C 
BRANCH  18  19
ATOM     19  N   UNL     1       2.548   2.643  21.983  0.00  0.00    +0.000 NA
ATOM     20  H   UNL     1       2.785   3.034  22.890  0.00  0.00    +0.000 HD
ATOM     21  H   UNL     1       1.977   1.839  22.268  0.00  0.00    +0.000 HD
ENDBRANCH  18  19
ENDBRANCH  17  18
ENDBRANCH   1  17
TORSDOF 5
ENDMDL
MODEL 3
REMARK VINA RESULT:      -6.4      1.006      1.006
REMARK  Name = 
REMARK  5 active torsions:
REMARK  status: ('A' for Active; 'I' for Inactive)
REMARK    1  A    between atoms: N_1  and  C_2
REMARK    2  A    between atoms: C_2  and  C_3
REMARK    3  A    between atoms: C_3  and  C_4
REMARK    4  A    between atoms: C_10  and  O_11
REMARK    5  A    between atoms: C_12  and  O_13
REMARK                            x       y       z     vdW  Elec       q    Type
REMARK                         _______ _______ _______ _____ _____    ______ ____
ROOT
ATOM      1  C   UNL     1       4.293   5.176  17.114  0.00  0.00    +0.000 A 
ATOM      2  C   UNL     1       4.225   6.488  17.545  0.00  0.00    +0.000 A 
ATOM      3  N   UNL     1       3.339   6.562  18.582  0.00  0.00    +0.000 N 
ATOM      4  C   UNL     1       2.811   5.319  18.828  0.00  0.00    +0.000 A 
ATOM      5  C   UNL     1       1.871   4.919  19.773  0.00  0.00    +0.000 A 
ATOM      6  F   UNL     1       1.324   5.796  20.627  0.00  0.00    +0.000 F 
ATOM      7  C   UNL     1       1.506   3.578  19.816  0.00  0.00    +0.000 A 
ATOM      8  C   UNL     1       2.059   2.661  18.932  0.00  0.00    +0.000 A 
ATOM      9  C   UNL     1       2.982   3.073  17.967  0.00  0.00    +0.000 A 
ATOM     10  F   UNL     1       3.482   2.189  17.090  0.00  0.00    +0.000 F 
ATOM     11  C   UNL     1       3.384   4.424  17.921  0.00  0.00    +0.000 A 
ATOM     12  H   UNL     1       3.091   7.404  19.089  0.00  0.00    +0.000 HD
ENDROOT
BRANCH   7  13
ATOM     13  O   UNL     1       0.582   3.132  20.726  0.00  0.00    +0.000 OA
ATOM     14  H   UNL     1      -0.283   3.143  20.272  0.00  0.00    +0.000 HD
ENDBRANCH   7  13
BRANCH   8  15
ATOM     15  O   UNL     1       1.699   1.343  19.021  0.00  0.00    +0.000 OA
ATOM     16  H   UNL     1       2.524   0.841  18.867  0.00  0.00    +0.000 HD
ENDBRANCH   8  15
BRANCH   1  17
ATOM     17  C   UNL     1       5.125   4.656  15.981  0.00  0.00    +0.000 C 
BRANCH  17  18
ATOM     18  C   UNL     1       6.609   4.645  16.378  0.00  0.00    +0.000 C 
BRANCH  18  19
ATOM     19  N   UNL     1       7.400   5.775  15.908  0.00  0.00    +0.000 NA
ATOM     20  H   UNL     1       7.859   5.555  15.029  0.00  0.00    +0.000 HD
ATOM     21  H   UNL     1       6.766   6.525  15.606  0.00  0.00    +0.000 HD
ENDBRANCH  18  19
ENDBRANCH  17  18
ENDBRANCH   1  17
TORSDOF 5
ENDMDL
MODEL 4
REMARK VINA RESULT:      -6.4      3.136      3.964
REMARK  Name = 
REMARK  5 active torsions:
REMARK  status: ('A' for Active; 'I' for Inactive)
REMARK    1  A    between atoms: N_1  and  C_2
REMARK    2  A    between atoms: C_2  and  C_3
REMARK    3  A    between atoms: C_3  and  C_4
REMARK    4  A    between atoms: C_10  and  O_11
REMARK    5  A    between atoms: C_12  and  O_13
REMARK                            x       y       z     vdW  Elec       q    Type
REMARK                         _______ _______ _______ _____ _____    ______ ____
ROOT
ATOM      1  C   UNL     1       2.684   7.086  18.775  0.00  0.00    +0.000 A 
ATOM      2  C   UNL     1       2.024   7.129  19.989  0.00  0.00    +0.000 A 
ATOM      3  N   UNL     1       2.181   5.925  20.615  0.00  0.00    +0.000 N 
ATOM      4  C   UNL     1       2.921   5.085  19.820  0.00  0.00    +0.000 A 
ATOM      5  C   UNL     1       3.319   3.769  20.038  0.00  0.00    +0.000 A 
ATOM      6  F   UNL     1       2.983   3.116  21.159  0.00  0.00    +0.000 F 
ATOM      7  C   UNL     1       4.079   3.137  19.060  0.00  0.00    +0.000 A 
ATOM      8  C   UNL     1       4.427   3.800  17.890  0.00  0.00    +0.000 A 
ATOM      9  C   UNL     1       4.003   5.112  17.665  0.00  0.00    +0.000 A 
ATOM     10  F   UNL     1       4.308   5.732  16.515  0.00  0.00    +0.000 F 
ATOM     11  C   UNL     1       3.250   5.780  18.653  0.00  0.00    +0.000 A 
ATOM     12  H   UNL     1       1.801   5.675  21.520  0.00  0.00    +0.000 HD
ENDROOT
BRANCH   7  13
ATOM     13  O   UNL     1       4.494   1.840  19.224  0.00  0.00    +0.000 OA
ATOM     14  H   UNL     1       5.156   1.849  19.942  0.00  0.00    +0.000 HD
ENDBRANCH   7  13
BRANCH   8  15
ATOM     15  O   UNL     1       5.202   3.158  16.961  0.00  0.00    +0.000 OA
ATOM     16  H   UNL     1       5.665   2.454  17.456  0.00  0.00    +0.000 HD
ENDBRANCH   8  15
BRANCH   1  17
ATOM     17  C   UNL     1       2.745   8.186  17.759  0.00  0.00    +0.000 C 
BRANCH  17  18
ATOM     18  C   UNL     1       1.679   9.249  18.068  0.00  0.00    +0.000 C 
BRANCH  18  19
ATOM     19  N   UNL     1       1.950  10.587  17.558  0.00  0.00    +0.000 NA
ATOM     20  H   UNL     1       2.781  10.589  16.972  0.00  0.00    +0.000 HD
ATOM     21  H   UNL     1       1.232  10.833  16.866  0.00  0.00    +0.000 HD
ENDBRANCH  18  19
ENDBRANCH  17  18
ENDBRANCH   1  17
TORSDOF 5
ENDMDL
MODEL 5
REMARK VINA RESULT:      -6.4      2.076      2.281
REMARK  Name = 
REMARK  5 active torsions:
REMARK  status: ('A' for Active; 'I' for Inactive)
REMARK    1  A    between atoms: N_1  and  C_2
REMARK    2  A    between atoms: C_2  and  C_3
REMARK    3  A    between atoms: C_3  and  C_4
REMARK    4  A    between atoms: C_10  and  O_11
REMARK    5  A    between atoms: C_12  and  O_13
REMARK                            x       y       z     vdW  Elec       q    Type
REMARK                         _______ _______ _______ _____ _____    ______ ____
ROOT
ATOM      1  C   UNL     1       4.145   6.319  17.379  0.00  0.00    +0.000 A 
ATOM      2  C   UNL     1       3.228   7.189  17.939  0.00  0.00    +0.000 A 
ATOM      3  N   UNL     1       2.288   6.460  18.611  0.00  0.00    +0.000 N 
ATOM      4  C   UNL     1       2.566   5.122  18.485  0.00  0.00    +0.000 A 
ATOM      5  C   UNL     1       1.884   4.018  18.988  0.00  0.00    +0.000 A 
ATOM      6  F   UNL     1       0.768   4.159  19.717  0.00  0.00    +0.000 F 
ATOM      7  C   UNL     1       2.387   2.750  18.715  0.00  0.00    +0.000 A 
ATOM      8  C   UNL     1       3.537   2.589  17.954  0.00  0.00    +0.000 A 
ATOM      9  C   UNL     1       4.202   3.700  17.430  0.00  0.00    +0.000 A 
ATOM     10  F   UNL     1       5.290   3.535  16.662  0.00  0.00    +0.000 F 
ATOM     11  C   UNL     1       3.723   4.996  17.713  0.00  0.00    +0.000 A 
ATOM     12  H   UNL     1       1.496   6.840  19.115  0.00  0.00    +0.000 HD
ENDROOT
BRANCH   7  13
ATOM     13  O   UNL     1       1.751   1.628  19.184  0.00  0.00    +0.000 OA
ATOM     14  H   UNL     1       1.627   1.760  20.144  0.00  0.00    +0.000 HD
ENDBRANCH   7  13
BRANCH   8  15
ATOM     15  O   UNL     1       4.021   1.328  17.730  0.00  0.00    +0.000 OA
ATOM     16  H   UNL     1       3.307   0.724  18.017  0.00  0.00    +0.000 HD
ENDBRANCH   8  15
BRANCH   1  17
ATOM     17  C   UNL     1       5.326   6.696  16.537  0.00  0.00    +0.000 C 
BRANCH  17  18
ATOM     18  C   UNL     1       6.610   6.652  17.378  0.00  0.00    +0.000 C 
BRANCH  18  19
ATOM     19  N   UNL     1       7.584   7.702  17.107  0.00  0.00    +0.000 NA
ATOM     20  H   UNL     1       8.456   7.522  17.595  0.00  0.00    +0.000 HD
ATOM     21  H   UNL     1       7.895   7.625  16.131  0.00  0.00    +0.000 HD
ENDBRANCH  18  19
ENDBRANCH  17  18
ENDBRANCH   1  17
TORSDOF 5
ENDMDL
MODEL 6
REMARK VINA RESULT:      -6.4      2.192      2.393
REMARK  Name = 
REMARK  5 active torsions:
REMARK  status: ('A' for Active; 'I' for Inactive)
REMARK    1  A    between atoms: N_1  and  C_2
REMARK    2  A    between atoms: C_2  and  C_3
REMARK    3  A    between atoms: C_3  and  C_4
REMARK    4  A    between atoms: C_10  and  O_11
REMARK    5  A    between atoms: C_12  and  O_13
REMARK                            x       y       z     vdW  Elec       q    Type
REMARK                         _______ _______ _______ _____ _____    ______ ____
ROOT
ATOM      1  C   UNL     1       4.027   6.517  17.644  0.00  0.00    +0.000 A 
ATOM      2  C   UNL     1       3.013   7.383  18.010  0.00  0.00    +0.000 A 
ATOM      3  N   UNL     1       2.312   6.825  19.041  0.00  0.00    +0.000 N 
ATOM      4  C   UNL     1       2.840   5.595  19.345  0.00  0.00    +0.000 A 
ATOM      5  C   UNL     1       2.448   4.669  20.307  0.00  0.00    +0.000 A 
ATOM      6  F   UNL     1       1.405   4.902  21.116  0.00  0.00    +0.000 F 
ATOM      7  C   UNL     1       3.166   3.482  20.414  0.00  0.00    +0.000 A 
ATOM      8  C   UNL     1       4.243   3.225  19.576  0.00  0.00    +0.000 A 
ATOM      9  C   UNL     1       4.615   4.146  18.595  0.00  0.00    +0.000 A 
ATOM     10  F   UNL     1       5.632   3.873  17.763  0.00  0.00    +0.000 F 
ATOM     11  C   UNL     1       3.915   5.366  18.483  0.00  0.00    +0.000 A 
ATOM     12  H   UNL     1       1.513   7.241  19.505  0.00  0.00    +0.000 HD
ENDROOT
BRANCH   7  13
ATOM     13  O   UNL     1       2.819   2.535  21.343  0.00  0.00    +0.000 OA
ATOM     14  H   UNL     1       2.623   1.717  20.845  0.00  0.00    +0.000 HD
ENDBRANCH   7  13
BRANCH   8  15
ATOM     15  O   UNL     1       4.946   2.060  19.728  0.00  0.00    +0.000 OA
ATOM     16  H   UNL     1       5.865   2.280  19.477  0.00  0.00    +0.000 HD
ENDBRANCH   8  15
BRANCH   1  17
ATOM     17  C   UNL     1       5.017   6.726  16.539  0.00  0.00    +0.000 C 
BRANCH  17  18
ATOM     18  C   UNL     1       6.401   7.044  17.124  0.00  0.00    +0.000 C 
BRANCH  18  19
ATOM     19  N   UNL     1       7.531   6.393  16.473  0.00  0.00    +0.000 NA
ATOM     20  H   UNL     1       7.505   6.544  15.469  0.00  0.00    +0.000 HD
ATOM     21  H   UNL     1       8.392   6.896  16.717  0.00  0.00    +0.000 HD
ENDBRANCH  18  19
ENDBRANCH  17  18
ENDBRANCH   1  17
TORSDOF 5
ENDMDL
MODEL 7
REMARK VINA RESULT:      -6.3      3.312      4.654
REMARK  Name = 
REMARK  5 active torsions:
REMARK  status: ('A' for Active; 'I' for Inactive)
REMARK    1  A    between atoms: N_1  and  C_2
REMARK    2  A    between atoms: C_2  and  C_3
REMARK    3  A    between atoms: C_3  and  C_4
REMARK    4  A    between atoms: C_10  and  O_11
REMARK    5  A    between atoms: C_12  and  O_13
REMARK                            x       y       z     vdW  Elec       q    Type
REMARK                         _______ _______ _______ _____ _____    ______ ____
ROOT
ATOM      1  C   UNL     1       2.479   4.574  18.668  0.00  0.00    +0.000 A 
ATOM      2  C   UNL     1       2.585   5.238  19.877  0.00  0.00    +0.000 A 
ATOM      3  N   UNL     1       3.895   5.559  20.086  0.00  0.00    +0.000 N 
ATOM      4  C   UNL     1       4.656   5.100  19.040  0.00  0.00    +0.000 A 
ATOM      5  C   UNL     1       6.029   5.187  18.829  0.00  0.00    +0.000 A 
ATOM      6  F   UNL     1       6.835   5.783  19.717  0.00  0.00    +0.000 F 
ATOM      7  C   UNL     1       6.555   4.634  17.665  0.00  0.00    +0.000 A 
ATOM      8  C   UNL     1       5.731   4.006  16.740  0.00  0.00    +0.000 A 
ATOM      9  C   UNL     1       4.358   3.899  16.970  0.00  0.00    +0.000 A 
ATOM     10  F   UNL     1       3.574   3.255  16.092  0.00  0.00    +0.000 F 
ATOM     11  C   UNL     1       3.799   4.471  18.133  0.00  0.00    +0.000 A 
ATOM     12  H   UNL     1       4.262   6.047  20.894  0.00  0.00    +0.000 HD
ENDROOT
BRANCH   7  13
ATOM     13  O   UNL     1       7.902   4.690  17.410  0.00  0.00    +0.000 OA
ATOM     14  H   UNL     1       8.295   5.239  18.116  0.00  0.00    +0.000 HD
ENDBRANCH   7  13
BRANCH   8  15
ATOM     15  O   UNL     1       6.278   3.500  15.592  0.00  0.00    +0.000 OA
ATOM     16  H   UNL     1       5.780   2.678  15.410  0.00  0.00    +0.000 HD
ENDBRANCH   8  15
BRANCH   1  17
ATOM     17  C   UNL     1       1.223   4.022  18.066  0.00  0.00    +0.000 C 
BRANCH  17  18
ATOM     18  C   UNL     1       0.862   2.686  18.732  0.00  0.00    +0.000 C 
BRANCH  18  19
ATOM     19  N   UNL     1       1.827   1.608  18.558  0.00  0.00    +0.000 NA
ATOM     20  H   UNL     1       1.389   0.703  18.703  0.00  0.00    +0.000 HD
ATOM     21  H   UNL     1       2.076   1.539  17.564  0.00  0.00    +0.000 HD
ENDBRANCH  18  19
ENDBRANCH  17  18
ENDBRANCH   1  17
TORSDOF 5
ENDMDL
MODEL 8
REMARK VINA RESULT:      -6.3      3.290      4.591
REMARK  Name = 
REMARK  5 active torsions:
REMARK  status: ('A' for Active; 'I' for Inactive)
REMARK    1  A    between atoms: N_1  and  C_2
REMARK    2  A    between atoms: C_2  and  C_3
REMARK    3  A    between atoms: C_3  and  C_4
REMARK    4  A    between atoms: C_10  and  O_11
REMARK    5  A    between atoms: C_12  and  O_13
REMARK                            x       y       z     vdW  Elec       q    Type
REMARK                         _______ _______ _______ _____ _____    ______ ____
ROOT
ATOM      1  C   UNL     1       6.021   4.335  14.371  0.00  0.00    +0.000 A 
ATOM      2  C   UNL     1       7.153   5.058  14.042  0.00  0.00    +0.000 A 
ATOM      3  N   UNL     1       7.696   5.566  15.188  0.00  0.00    +0.000 N 
ATOM      4  C   UNL     1       6.926   5.201  16.264  0.00  0.00    +0.000 A 
ATOM      5  C   UNL     1       7.084   5.494  17.615  0.00  0.00    +0.000 A 
ATOM      6  F   UNL     1       8.105   6.245  18.052  0.00  0.00    +0.000 F 
ATOM      7  C   UNL     1       6.150   4.990  18.515  0.00  0.00    +0.000 A 
ATOM      8  C   UNL     1       5.083   4.218  18.075  0.00  0.00    +0.000 A 
ATOM      9  C   UNL     1       4.915   3.949  16.715  0.00  0.00    +0.000 A 
ATOM     10  F   UNL     1       3.859   3.236  16.293  0.00  0.00    +0.000 F 
ATOM     11  C   UNL     1       5.862   4.431  15.787  0.00  0.00    +0.000 A 
ATOM     12  H   UNL     1       8.530   6.138  15.244  0.00  0.00    +0.000 HD
ENDROOT
BRANCH   7  13
ATOM     13  O   UNL     1       6.258   5.253  19.857  0.00  0.00    +0.000 OA
ATOM     14  H   UNL     1       6.174   4.394  20.316  0.00  0.00    +0.000 HD
ENDBRANCH   7  13
BRANCH   8  15
ATOM     15  O   UNL     1       4.200   3.712  18.991  0.00  0.00    +0.000 OA
ATOM     16  H   UNL     1       3.451   3.369  18.464  0.00  0.00    +0.000 HD
ENDBRANCH   8  15
BRANCH   1  17
ATOM     17  C   UNL     1       5.108   3.632  13.413  0.00  0.00    +0.000 C 
BRANCH  17  18
ATOM     18  C   UNL     1       5.860   3.299  12.115  0.00  0.00    +0.000 C 
BRANCH  18  19
ATOM     19  N   UNL     1       5.898   1.890  11.747  0.00  0.00    +0.000 NA
ATOM     20  H   UNL     1       5.638   1.303  12.535  0.00  0.00    +0.000 HD
ATOM     21  H   UNL     1       5.123   1.692  11.102  0.00  0.00    +0.000 HD
ENDBRANCH  18  19
ENDBRANCH  17  18
ENDBRANCH   1  17
TORSDOF 5
ENDMDL
MODEL 9
REMARK VINA RESULT:      -6.3      3.488      5.147
REMARK  Name = 
REMARK  5 active torsions:
REMARK  status: ('A' for Active; 'I' for Inactive)
REMARK    1  A    between atoms: N_1  and  C_2
REMARK    2  A    between atoms: C_2  and  C_3
REMARK    3  A    between atoms: C_3  and  C_4
REMARK    4  A    between atoms: C_10  and  O_11
REMARK    5  A    between atoms: C_12  and  O_13
REMARK                            x       y       z     vdW  Elec       q    Type
REMARK                         _______ _______ _______ _____ _____    ______ ____
ROOT
ATOM      1  C   UNL     1       3.085   3.044  19.363  0.00  0.00    +0.000 A 
ATOM      2  C   UNL     1       4.119   2.195  19.712  0.00  0.00    +0.000 A 
ATOM      3  N   UNL     1       5.304   2.793  19.388  0.00  0.00    +0.000 N 
ATOM      4  C   UNL     1       5.061   4.016  18.813  0.00  0.00    +0.000 A 
ATOM      5  C   UNL     1       5.954   4.963  18.320  0.00  0.00    +0.000 A 
ATOM      6  F   UNL     1       7.278   4.757  18.353  0.00  0.00    +0.000 F 
ATOM      7  C   UNL     1       5.441   6.139  17.785  0.00  0.00    +0.000 A 
ATOM      8  C   UNL     1       4.070   6.361  17.737  0.00  0.00    +0.000 A 
ATOM      9  C   UNL     1       3.178   5.395  18.209  0.00  0.00    +0.000 A 
ATOM     10  F   UNL     1       1.855   5.599  18.122  0.00  0.00    +0.000 F 
ATOM     11  C   UNL     1       3.677   4.204  18.777  0.00  0.00    +0.000 A 
ATOM     12  H   UNL     1       6.224   2.395  19.531  0.00  0.00    +0.000 HD
ENDROOT
BRANCH   7  13
ATOM     13  O   UNL     1       6.277   7.104  17.282  0.00  0.00    +0.000 OA
ATOM     14  H   UNL     1       5.782   7.558  16.573  0.00  0.00    +0.000 HD
ENDBRANCH   7  13
BRANCH   8  15
ATOM     15  O   UNL     1       3.600   7.543  17.231  0.00  0.00    +0.000 OA
ATOM     16  H   UNL     1       4.364   8.153  17.252  0.00  0.00    +0.000 HD
ENDBRANCH   8  15
BRANCH   1  17
ATOM     17  C   UNL     1       1.620   2.771  19.522  0.00  0.00    +0.000 C 
BRANCH  17  18
ATOM     18  C   UNL     1       1.121   3.330  20.863  0.00  0.00    +0.000 C 
BRANCH  18  19
ATOM     19  N   UNL     1       1.546   2.603  22.052  0.00  0.00    +0.000 NA
ATOM     20  H   UNL     1       2.048   1.757  21.799  0.00  0.00    +0.000 HD
ATOM     21  H   UNL     1       2.293   3.132  22.518  0.00  0.00    +0.000 HD
ENDBRANCH  18  19
ENDBRANCH  17  18
ENDBRANCH   1  17
TORSDOF 5
ENDMDL
