MODEL 1
REMARK VINA RESULT:      -8.1      0.000      0.000
REMARK  Name = 
REMARK  10 active torsions:
REMARK  status: ('A' for Active; 'I' for Inactive)
REMARK    1  A    between atoms: C_1  and  C_2
REMARK    2  A    between atoms: C_3  and  N_4
REMARK    3  A    between atoms: N_4  and  C_5
REMARK    4  A    between atoms: C_6  and  C_7
REMARK    5  A    between atoms: C_12  and  C_13
REMARK    6  A    between atoms: C_14  and  C_15
REMARK    7  A    between atoms: C_18  and  O_19
REMARK    8  A    between atoms: O_19  and  C_20
REMARK    9  A    between atoms: C_20  and  C_21
REMARK   10  A    between atoms: C_21  and  N_22
REMARK                            x       y       z     vdW  Elec       q    Type
REMARK                         _______ _______ _______ _____ _____    ______ ____
ROOT
ATOM      1  C   UNL     1       5.182   5.220  16.590  0.00  0.00    +0.000 A 
ATOM      2  C   UNL     1       6.194   5.016  15.617  0.00  0.00    +0.000 A 
ATOM      3  C   UNL     1       7.311   5.832  15.618  0.00  0.00    +0.000 A 
ATOM      4  N   UNL     1       7.477   6.883  16.443  0.00  0.00    +0.000 NA
ATOM      5  C   UNL     1       6.464   7.139  17.297  0.00  0.00    +0.000 A 
ATOM      6  C   UNL     1       5.294   6.374  17.435  0.00  0.00    +0.000 A 
ENDROOT
BRANCH   1   7
ATOM      7  N   UNL     1       4.107   4.269  16.704  0.00  0.00    +0.000 N 
ATOM      8  H   UNL     1       3.275   4.555  16.192  0.00  0.00    +0.000 HD
BRANCH   7  11
ATOM      9  C   UNL     1       1.207   4.375  17.636  0.00  0.00    +0.000 C 
ATOM     10  C   UNL     1       2.351   3.806  18.429  0.00  0.00    +0.000 A 
ATOM     11  C   UNL     1       3.681   3.673  17.950  0.00  0.00    +0.000 A 
ATOM     12  C   UNL     1       4.625   2.976  18.742  0.00  0.00    +0.000 A 
ATOM     13  C   UNL     1       4.313   2.405  19.977  0.00  0.00    +0.000 A 
ATOM     14  C   UNL     1       3.045   2.669  20.478  0.00  0.00    +0.000 A 
ATOM     15  N   UNL     1       2.492   2.350  21.697  0.00  0.00    +0.000 N 
ATOM     16  C   UNL     1       1.229   2.866  21.794  0.00  0.00    +0.000 A 
ATOM     17  C   UNL     1       0.936   3.472  20.597  0.00  0.00    +0.000 A 
ATOM     18  C   UNL     1       2.079   3.359  19.751  0.00  0.00    +0.000 A 
ATOM     19  H   UNL     1       2.975   1.850  22.430  0.00  0.00    +0.000 HD
ENDBRANCH   7  11
ENDBRANCH   1   7
BRANCH   2  20
ATOM     20  C   UNL     1       6.159   3.957  14.636  0.00  0.00    +0.000 C 
ATOM     21  N   UNL     1       6.198   3.092  13.886  0.00  0.00    +0.000 NA
ENDBRANCH   2  20
BRANCH   6  22
ATOM     22  C   UNL     1       4.281   6.806  18.428  0.00  0.00    +0.000 C 
ATOM     23  C   UNL     1       3.081   7.348  18.115  0.00  0.00    +0.000 C 
BRANCH  23  24
ATOM     24  C   UNL     1       2.190   7.980  19.087  0.00  0.00    +0.000 A 
ATOM     25  C   UNL     1       1.691   9.234  18.736  0.00  0.00    +0.000 A 
ATOM     26  C   UNL     1       0.978   9.976  19.651  0.00  0.00    +0.000 A 
ATOM     27  C   UNL     1       0.705   9.499  20.937  0.00  0.00    +0.000 A 
ATOM     28  C   UNL     1       1.151   8.225  21.284  0.00  0.00    +0.000 A 
ATOM     29  C   UNL     1       1.882   7.466  20.352  0.00  0.00    +0.000 A 
BRANCH  27  30
ATOM     30  O   UNL     1       0.014  10.257  21.866  0.00  0.00    +0.000 OA
BRANCH  30  31
ATOM     31  C   UNL     1      -0.366  11.536  21.324  0.00  0.00    +0.000 C 
BRANCH  31  32
ATOM     32  C   UNL     1      -1.865  11.765  21.302  0.00  0.00    +0.000 C 
BRANCH  32  33
ATOM     33  N   UNL     1      -2.282  12.731  20.256  0.00  0.00    +0.000 NA
ATOM     34  C   UNL     1      -3.419  12.282  19.428  0.00  0.00    +0.000 C 
ATOM     35  C   UNL     1      -2.790  11.366  18.403  0.00  0.00    +0.000 C 
ATOM     36  C   UNL     1      -1.537  12.135  18.036  0.00  0.00    +0.000 C 
ATOM     37  C   UNL     1      -1.176  12.923  19.296  0.00  0.00    +0.000 C 
ENDBRANCH  32  33
ENDBRANCH  31  32
ENDBRANCH  30  31
ENDBRANCH  27  30
ENDBRANCH  23  24
ENDBRANCH   6  22
TORSDOF 9
ENDMDL
MODEL 2
REMARK VINA RESULT:      -8.0      1.381      1.747
REMARK  Name = 
REMARK  10 active torsions:
REMARK  status: ('A' for Active; 'I' for Inactive)
REMARK    1  A    between atoms: C_1  and  C_2
REMARK    2  A    between atoms: C_3  and  N_4
REMARK    3  A    between atoms: N_4  and  C_5
REMARK    4  A    between atoms: C_6  and  C_7
REMARK    5  A    between atoms: C_12  and  C_13
REMARK    6  A    between atoms: C_14  and  C_15
REMARK    7  A    between atoms: C_18  and  O_19
REMARK    8  A    between atoms: O_19  and  C_20
REMARK    9  A    between atoms: C_20  and  C_21
REMARK   10  A    between atoms: C_21  and  N_22
REMARK                            x       y       z     vdW  Elec       q    Type
REMARK                         _______ _______ _______ _____ _____    ______ ____
ROOT
ATOM      1  C   UNL     1       5.174   5.142  16.576  0.00  0.00    +0.000 A 
ATOM      2  C   UNL     1       6.178   4.934  15.595  0.00  0.00    +0.000 A 
ATOM      3  C   UNL     1       7.290   5.757  15.578  0.00  0.00    +0.000 A 
ATOM      4  N   UNL     1       7.457   6.818  16.390  0.00  0.00    +0.000 NA
ATOM      5  C   UNL     1       6.450   7.077  17.251  0.00  0.00    +0.000 A 
ATOM      6  C   UNL     1       5.287   6.306  17.408  0.00  0.00    +0.000 A 
ENDROOT
BRANCH   1   7
ATOM      7  N   UNL     1       4.106   4.185  16.710  0.00  0.00    +0.000 N 
ATOM      8  H   UNL     1       3.260   4.472  16.224  0.00  0.00    +0.000 HD
BRANCH   7  11
ATOM      9  C   UNL     1       1.236   4.284  17.729  0.00  0.00    +0.000 C 
ATOM     10  C   UNL     1       2.402   3.705  18.481  0.00  0.00    +0.000 A 
ATOM     11  C   UNL     1       3.717   3.576  17.962  0.00  0.00    +0.000 A 
ATOM     12  C   UNL     1       4.683   2.869  18.717  0.00  0.00    +0.000 A 
ATOM     13  C   UNL     1       4.408   2.285  19.955  0.00  0.00    +0.000 A 
ATOM     14  C   UNL     1       3.155   2.545  20.496  0.00  0.00    +0.000 A 
ATOM     15  N   UNL     1       2.639   2.213  21.728  0.00  0.00    +0.000 N 
ATOM     16  C   UNL     1       1.379   2.729  21.868  0.00  0.00    +0.000 A 
ATOM     17  C   UNL     1       1.052   3.348  20.687  0.00  0.00    +0.000 A 
ATOM     18  C   UNL     1       2.169   3.244  19.806  0.00  0.00    +0.000 A 
ATOM     19  H   UNL     1       3.142   1.704  22.441  0.00  0.00    +0.000 HD
ENDBRANCH   7  11
ENDBRANCH   1   7
BRANCH   2  20
ATOM     20  C   UNL     1       6.141   3.865  14.626  0.00  0.00    +0.000 C 
ATOM     21  N   UNL     1       6.155   3.060  13.810  0.00  0.00    +0.000 NA
ENDBRANCH   2  20
BRANCH   6  22
ATOM     22  C   UNL     1       4.280   6.742  18.406  0.00  0.00    +0.000 C 
ATOM     23  C   UNL     1       3.106   7.343  18.101  0.00  0.00    +0.000 C 
BRANCH  23  24
ATOM     24  C   UNL     1       2.230   7.974  19.086  0.00  0.00    +0.000 A 
ATOM     25  C   UNL     1       2.060   7.283  20.285  0.00  0.00    +0.000 A 
ATOM     26  C   UNL     1       1.131   7.715  21.206  0.00  0.00    +0.000 A 
ATOM     27  C   UNL     1       0.356   8.859  20.994  0.00  0.00    +0.000 A 
ATOM     28  C   UNL     1       0.553   9.590  19.824  0.00  0.00    +0.000 A 
ATOM     29  C   UNL     1       1.499   9.151  18.880  0.00  0.00    +0.000 A 
BRANCH  27  30
ATOM     30  O   UNL     1      -0.598   9.275  21.906  0.00  0.00    +0.000 OA
BRANCH  30  31
ATOM     31  C   UNL     1      -0.156  10.435  22.636  0.00  0.00    +0.000 C 
BRANCH  31  32
ATOM     32  C   UNL     1      -1.240  11.479  22.831  0.00  0.00    +0.000 C 
BRANCH  32  33
ATOM     33  N   UNL     1      -0.693  12.848  22.996  0.00  0.00    +0.000 NA
ATOM     34  C   UNL     1      -1.686  13.855  23.420  0.00  0.00    +0.000 C 
ATOM     35  C   UNL     1      -2.394  14.237  22.139  0.00  0.00    +0.000 C 
ATOM     36  C   UNL     1      -1.233  14.333  21.169  0.00  0.00    +0.000 C 
ATOM     37  C   UNL     1      -0.197  13.340  21.695  0.00  0.00    +0.000 C 
ENDBRANCH  32  33
ENDBRANCH  31  32
ENDBRANCH  30  31
ENDBRANCH  27  30
ENDBRANCH  23  24
ENDBRANCH   6  22
TORSDOF 9
ENDMDL
MODEL 3
REMARK VINA RESULT:      -7.9      1.318      1.980
REMARK  Name = 
REMARK  10 active torsions:
REMARK  status: ('A' for Active; 'I' for Inactive)
REMARK    1  A    between atoms: C_1  and  C_2
REMARK    2  A    between atoms: C_3  and  N_4
REMARK    3  A    between atoms: N_4  and  C_5
REMARK    4  A    between atoms: C_6  and  C_7
REMARK    5  A    between atoms: C_12  and  C_13
REMARK    6  A    between atoms: C_14  and  C_15
REMARK    7  A    between atoms: C_18  and  O_19
REMARK    8  A    between atoms: O_19  and  C_20
REMARK    9  A    between atoms: C_20  and  C_21
REMARK   10  A    between atoms: C_21  and  N_22
REMARK                            x       y       z     vdW  Elec       q    Type
REMARK                         _______ _______ _______ _____ _____    ______ ____
ROOT
ATOM      1  C   UNL     1       5.072   5.220  16.620  0.00  0.00    +0.000 A 
ATOM      2  C   UNL     1       6.102   5.119  15.650  0.00  0.00    +0.000 A 
ATOM      3  C   UNL     1       7.141   6.033  15.665  0.00  0.00    +0.000 A 
ATOM      4  N   UNL     1       7.206   7.087  16.501  0.00  0.00    +0.000 NA
ATOM      5  C   UNL     1       6.171   7.241  17.353  0.00  0.00    +0.000 A 
ATOM      6  C   UNL     1       5.075   6.372  17.477  0.00  0.00    +0.000 A 
ENDROOT
BRANCH   1   7
ATOM      7  N   UNL     1       4.087   4.174  16.719  0.00  0.00    +0.000 N 
ATOM      8  H   UNL     1       3.261   4.359  16.154  0.00  0.00    +0.000 HD
BRANCH   7  11
ATOM      9  C   UNL     1       1.186   4.307  17.642  0.00  0.00    +0.000 C 
ATOM     10  C   UNL     1       2.322   3.732  18.440  0.00  0.00    +0.000 A 
ATOM     11  C   UNL     1       3.653   3.586  17.966  0.00  0.00    +0.000 A 
ATOM     12  C   UNL     1       4.589   2.884  18.762  0.00  0.00    +0.000 A 
ATOM     13  C   UNL     1       4.268   2.320  19.999  0.00  0.00    +0.000 A 
ATOM     14  C   UNL     1       3.001   2.596  20.495  0.00  0.00    +0.000 A 
ATOM     15  N   UNL     1       2.442   2.285  21.713  0.00  0.00    +0.000 N 
ATOM     16  C   UNL     1       1.183   2.812  21.805  0.00  0.00    +0.000 A 
ATOM     17  C   UNL     1       0.898   3.416  20.605  0.00  0.00    +0.000 A 
ATOM     18  C   UNL     1       2.043   3.291  19.763  0.00  0.00    +0.000 A 
ATOM     19  H   UNL     1       2.918   1.784  22.449  0.00  0.00    +0.000 HD
ENDBRANCH   7  11
ENDBRANCH   1   7
BRANCH   2  20
ATOM     20  C   UNL     1       6.169   4.072  14.658  0.00  0.00    +0.000 C 
ATOM     21  N   UNL     1       6.298   3.243  13.878  0.00  0.00    +0.000 NA
ENDBRANCH   2  20
BRANCH   6  22
ATOM     22  C   UNL     1       4.022   6.699  18.469  0.00  0.00    +0.000 C 
ATOM     23  C   UNL     1       2.919   7.437  18.202  0.00  0.00    +0.000 C 
BRANCH  23  24
ATOM     24  C   UNL     1       2.010   7.948  19.227  0.00  0.00    +0.000 A 
ATOM     25  C   UNL     1       1.437   9.193  18.971  0.00  0.00    +0.000 A 
ATOM     26  C   UNL     1       0.698   9.828  19.945  0.00  0.00    +0.000 A 
ATOM     27  C   UNL     1       0.472   9.247  21.197  0.00  0.00    +0.000 A 
ATOM     28  C   UNL     1       0.993   7.980  21.447  0.00  0.00    +0.000 A 
ATOM     29  C   UNL     1       1.750   7.330  20.456  0.00  0.00    +0.000 A 
BRANCH  27  30
ATOM     30  O   UNL     1      -0.245   9.898  22.185  0.00  0.00    +0.000 OA
BRANCH  30  31
ATOM     31  C   UNL     1      -0.737  11.172  21.726  0.00  0.00    +0.000 C 
BRANCH  31  32
ATOM     32  C   UNL     1      -1.222  12.074  22.845  0.00  0.00    +0.000 C 
BRANCH  32  33
ATOM     33  N   UNL     1      -2.377  12.915  22.444  0.00  0.00    +0.000 NA
ATOM     34  C   UNL     1      -2.209  14.355  22.721  0.00  0.00    +0.000 C 
ATOM     35  C   UNL     1      -2.554  14.492  24.186  0.00  0.00    +0.000 C 
ATOM     36  C   UNL     1      -3.770  13.594  24.296  0.00  0.00    +0.000 C 
ATOM     37  C   UNL     1      -3.566  12.522  23.226  0.00  0.00    +0.000 C 
ENDBRANCH  32  33
ENDBRANCH  31  32
ENDBRANCH  30  31
ENDBRANCH  27  30
ENDBRANCH  23  24
ENDBRANCH   6  22
TORSDOF 9
ENDMDL
MODEL 4
REMARK VINA RESULT:      -7.8      2.275      5.163
REMARK  Name = 
REMARK  10 active torsions:
REMARK  status: ('A' for Active; 'I' for Inactive)
REMARK    1  A    between atoms: C_1  and  C_2
REMARK    2  A    between atoms: C_3  and  N_4
REMARK    3  A    between atoms: N_4  and  C_5
REMARK    4  A    between atoms: C_6  and  C_7
REMARK    5  A    between atoms: C_12  and  C_13
REMARK    6  A    between atoms: C_14  and  C_15
REMARK    7  A    between atoms: C_18  and  O_19
REMARK    8  A    between atoms: O_19  and  C_20
REMARK    9  A    between atoms: C_20  and  C_21
REMARK   10  A    between atoms: C_21  and  N_22
REMARK                            x       y       z     vdW  Elec       q    Type
REMARK                         _______ _______ _______ _____ _____    ______ ____
ROOT
ATOM      1  C   UNL     1       3.138   4.626  20.189  0.00  0.00    +0.000 A 
ATOM      2  C   UNL     1       3.094   3.208  20.166  0.00  0.00    +0.000 A 
ATOM      3  C   UNL     1       1.870   2.568  20.095  0.00  0.00    +0.000 A 
ATOM      4  N   UNL     1       0.684   3.203  20.131  0.00  0.00    +0.000 NA
ATOM      5  C   UNL     1       0.727   4.545  20.260  0.00  0.00    +0.000 A 
ATOM      6  C   UNL     1       1.892   5.328  20.301  0.00  0.00    +0.000 A 
ENDROOT
BRANCH   1   7
ATOM      7  N   UNL     1       4.408   5.297  20.086  0.00  0.00    +0.000 N 
ATOM      8  H   UNL     1       4.369   6.262  20.408  0.00  0.00    +0.000 HD
BRANCH   7  11
ATOM      9  C   UNL     1       3.401   6.135  17.334  0.00  0.00    +0.000 C 
ATOM     10  C   UNL     1       4.757   5.551  17.618  0.00  0.00    +0.000 A 
ATOM     11  C   UNL     1       5.254   5.252  18.915  0.00  0.00    +0.000 A 
ATOM     12  C   UNL     1       6.606   4.855  19.053  0.00  0.00    +0.000 A 
ATOM     13  C   UNL     1       7.483   4.743  17.973  0.00  0.00    +0.000 A 
ATOM     14  C   UNL     1       6.933   4.910  16.708  0.00  0.00    +0.000 A 
ATOM     15  N   UNL     1       7.505   4.749  15.468  0.00  0.00    +0.000 N 
ATOM     16  C   UNL     1       6.574   4.953  14.486  0.00  0.00    +0.000 A 
ATOM     17  C   UNL     1       5.399   5.314  15.099  0.00  0.00    +0.000 A 
ATOM     18  C   UNL     1       5.608   5.287  16.510  0.00  0.00    +0.000 A 
ATOM     19  H   UNL     1       8.463   4.470  15.312  0.00  0.00    +0.000 HD
ENDBRANCH   7  11
ENDBRANCH   1   7
BRANCH   2  20
ATOM     20  C   UNL     1       4.271   2.371  20.157  0.00  0.00    +0.000 C 
ATOM     21  N   UNL     1       5.192   1.693  20.225  0.00  0.00    +0.000 NA
ENDBRANCH   2  20
BRANCH   6  22
ATOM     22  C   UNL     1       1.751   6.797  20.451  0.00  0.00    +0.000 C 
ATOM     23  C   UNL     1       0.843   7.405  21.250  0.00  0.00    +0.000 C 
BRANCH  23  24
ATOM     24  C   UNL     1       0.555   8.838  21.219  0.00  0.00    +0.000 A 
ATOM     25  C   UNL     1      -0.061   9.363  22.353  0.00  0.00    +0.000 A 
ATOM     26  C   UNL     1      -0.516  10.663  22.354  0.00  0.00    +0.000 A 
ATOM     27  C   UNL     1      -0.356  11.503  21.248  0.00  0.00    +0.000 A 
ATOM     28  C   UNL     1       0.306  11.008  20.126  0.00  0.00    +0.000 A 
ATOM     29  C   UNL     1       0.770   9.680  20.121  0.00  0.00    +0.000 A 
BRANCH  27  30
ATOM     30  O   UNL     1      -0.839  12.800  21.238  0.00  0.00    +0.000 OA
BRANCH  30  31
ATOM     31  C   UNL     1      -1.651  13.067  22.398  0.00  0.00    +0.000 C 
BRANCH  31  32
ATOM     32  C   UNL     1      -3.102  13.362  22.069  0.00  0.00    +0.000 C 
BRANCH  32  33
ATOM     33  N   UNL     1      -3.804  14.075  23.164  0.00  0.00    +0.000 NA
ATOM     34  C   UNL     1      -3.541  13.534  24.512  0.00  0.00    +0.000 C 
ATOM     35  C   UNL     1      -4.469  12.346  24.621  0.00  0.00    +0.000 C 
ATOM     36  C   UNL     1      -5.739  12.896  24.001  0.00  0.00    +0.000 C 
ATOM     37  C   UNL     1      -5.263  13.934  22.985  0.00  0.00    +0.000 C 
ENDBRANCH  32  33
ENDBRANCH  31  32
ENDBRANCH  30  31
ENDBRANCH  27  30
ENDBRANCH  23  24
ENDBRANCH   6  22
TORSDOF 9
ENDMDL
MODEL 5
REMARK VINA RESULT:      -7.8      1.088      1.470
REMARK  Name = 
REMARK  10 active torsions:
REMARK  status: ('A' for Active; 'I' for Inactive)
REMARK    1  A    between atoms: C_1  and  C_2
REMARK    2  A    between atoms: C_3  and  N_4
REMARK    3  A    between atoms: N_4  and  C_5
REMARK    4  A    between atoms: C_6  and  C_7
REMARK    5  A    between atoms: C_12  and  C_13
REMARK    6  A    between atoms: C_14  and  C_15
REMARK    7  A    between atoms: C_18  and  O_19
REMARK    8  A    between atoms: O_19  and  C_20
REMARK    9  A    between atoms: C_20  and  C_21
REMARK   10  A    between atoms: C_21  and  N_22
REMARK                            x       y       z     vdW  Elec       q    Type
REMARK                         _______ _______ _______ _____ _____    ______ ____
ROOT
ATOM      1  C   UNL     1       5.170   5.236  16.586  0.00  0.00    +0.000 A 
ATOM      2  C   UNL     1       6.200   5.046  15.630  0.00  0.00    +0.000 A 
ATOM      3  C   UNL     1       7.301   5.884  15.642  0.00  0.00    +0.000 A 
ATOM      4  N   UNL     1       7.434   6.943  16.463  0.00  0.00    +0.000 NA
ATOM      5  C   UNL     1       6.404   7.184  17.300  0.00  0.00    +0.000 A 
ATOM      6  C   UNL     1       5.247   6.398  17.426  0.00  0.00    +0.000 A 
ENDROOT
BRANCH   1   7
ATOM      7  N   UNL     1       4.111   4.265  16.690  0.00  0.00    +0.000 N 
ATOM      8  H   UNL     1       3.278   4.537  16.173  0.00  0.00    +0.000 HD
BRANCH   7  11
ATOM      9  C   UNL     1       1.202   4.304  17.595  0.00  0.00    +0.000 C 
ATOM     10  C   UNL     1       2.350   3.761  18.398  0.00  0.00    +0.000 A 
ATOM     11  C   UNL     1       3.688   3.659  17.932  0.00  0.00    +0.000 A 
ATOM     12  C   UNL     1       4.640   2.983  18.732  0.00  0.00    +0.000 A 
ATOM     13  C   UNL     1       4.330   2.405  19.965  0.00  0.00    +0.000 A 
ATOM     14  C   UNL     1       3.051   2.639  20.453  0.00  0.00    +0.000 A 
ATOM     15  N   UNL     1       2.494   2.306  21.667  0.00  0.00    +0.000 N 
ATOM     16  C   UNL     1       1.218   2.793  21.752  0.00  0.00    +0.000 A 
ATOM     17  C   UNL     1       0.923   3.393  20.553  0.00  0.00    +0.000 A 
ATOM     18  C   UNL     1       2.076   3.307  19.718  0.00  0.00    +0.000 A 
ATOM     19  H   UNL     1       2.981   1.817  22.404  0.00  0.00    +0.000 HD
ENDBRANCH   7  11
ENDBRANCH   1   7
BRANCH   2  20
ATOM     20  C   UNL     1       6.201   3.981  14.655  0.00  0.00    +0.000 C 
ATOM     21  N   UNL     1       6.274   3.155  13.865  0.00  0.00    +0.000 NA
ENDBRANCH   2  20
BRANCH   6  22
ATOM     22  C   UNL     1       4.210   6.816  18.401  0.00  0.00    +0.000 C 
ATOM     23  C   UNL     1       3.027   7.384  18.068  0.00  0.00    +0.000 C 
BRANCH  23  24
ATOM     24  C   UNL     1       2.117   8.001  19.031  0.00  0.00    +0.000 A 
ATOM     25  C   UNL     1       1.512   9.190  18.627  0.00  0.00    +0.000 A 
ATOM     26  C   UNL     1       0.768   9.927  19.522  0.00  0.00    +0.000 A 
ATOM     27  C   UNL     1       0.568   9.506  20.840  0.00  0.00    +0.000 A 
ATOM     28  C   UNL     1       1.123   8.292  21.243  0.00  0.00    +0.000 A 
ATOM     29  C   UNL     1       1.885   7.539  20.332  0.00  0.00    +0.000 A 
BRANCH  27  30
ATOM     30  O   UNL     1      -0.154  10.261  21.747  0.00  0.00    +0.000 OA
BRANCH  30  31
ATOM     31  C   UNL     1      -0.228  11.641  21.342  0.00  0.00    +0.000 C 
BRANCH  31  32
ATOM     32  C   UNL     1      -1.648  12.163  21.224  0.00  0.00    +0.000 C 
BRANCH  32  33
ATOM     33  N   UNL     1      -1.970  13.183  22.252  0.00  0.00    +0.000 NA
ATOM     34  C   UNL     1      -2.857  14.265  21.781  0.00  0.00    +0.000 C 
ATOM     35  C   UNL     1      -1.928  15.214  21.057  0.00  0.00    +0.000 C 
ATOM     36  C   UNL     1      -0.736  15.243  21.992  0.00  0.00    +0.000 C 
ATOM     37  C   UNL     1      -0.731  13.871  22.666  0.00  0.00    +0.000 C 
ENDBRANCH  32  33
ENDBRANCH  31  32
ENDBRANCH  30  31
ENDBRANCH  27  30
ENDBRANCH  23  24
ENDBRANCH   6  22
TORSDOF 9
ENDMDL
MODEL 6
REMARK VINA RESULT:      -7.8      1.305      1.746
REMARK  Name = 
REMARK  10 active torsions:
REMARK  status: ('A' for Active; 'I' for Inactive)
REMARK    1  A    between atoms: C_1  and  C_2
REMARK    2  A    between atoms: C_3  and  N_4
REMARK    3  A    between atoms: N_4  and  C_5
REMARK    4  A    between atoms: C_6  and  C_7
REMARK    5  A    between atoms: C_12  and  C_13
REMARK    6  A    between atoms: C_14  and  C_15
REMARK    7  A    between atoms: C_18  and  O_19
REMARK    8  A    between atoms: O_19  and  C_20
REMARK    9  A    between atoms: C_20  and  C_21
REMARK   10  A    between atoms: C_21  and  N_22
REMARK                            x       y       z     vdW  Elec       q    Type
REMARK                         _______ _______ _______ _____ _____    ______ ____
ROOT
ATOM      1  C   UNL     1       5.105   5.352  16.673  0.00  0.00    +0.000 A 
ATOM      2  C   UNL     1       6.203   5.188  15.790  0.00  0.00    +0.000 A 
ATOM      3  C   UNL     1       7.254   6.086  15.840  0.00  0.00    +0.000 A 
ATOM      4  N   UNL     1       7.276   7.178  16.627  0.00  0.00    +0.000 NA
ATOM      5  C   UNL     1       6.183   7.390  17.389  0.00  0.00    +0.000 A 
ATOM      6  C   UNL     1       5.065   6.544  17.472  0.00  0.00    +0.000 A 
ENDROOT
BRANCH   1   7
ATOM      7  N   UNL     1       4.096   4.327  16.748  0.00  0.00    +0.000 N 
ATOM      8  H   UNL     1       3.263   4.557  16.211  0.00  0.00    +0.000 HD
BRANCH   7  11
ATOM      9  C   UNL     1       1.195   4.382  17.678  0.00  0.00    +0.000 C 
ATOM     10  C   UNL     1       2.342   3.801  18.457  0.00  0.00    +0.000 A 
ATOM     11  C   UNL     1       3.675   3.693  17.976  0.00  0.00    +0.000 A 
ATOM     12  C   UNL     1       4.623   2.983  18.750  0.00  0.00    +0.000 A 
ATOM     13  C   UNL     1       4.315   2.376  19.969  0.00  0.00    +0.000 A 
ATOM     14  C   UNL     1       3.044   2.614  20.474  0.00  0.00    +0.000 A 
ATOM     15  N   UNL     1       2.493   2.257  21.684  0.00  0.00    +0.000 N 
ATOM     16  C   UNL     1       1.225   2.759  21.793  0.00  0.00    +0.000 A 
ATOM     17  C   UNL     1       0.928   3.395  20.613  0.00  0.00    +0.000 A 
ATOM     18  C   UNL     1       2.073   3.316  19.766  0.00  0.00    +0.000 A 
ATOM     19  H   UNL     1       2.979   1.741  22.403  0.00  0.00    +0.000 HD
ENDBRANCH   7  11
ENDBRANCH   1   7
BRANCH   2  20
ATOM     20  C   UNL     1       6.324   4.092  14.858  0.00  0.00    +0.000 C 
ATOM     21  N   UNL     1       6.348   3.237  14.096  0.00  0.00    +0.000 NA
ENDBRANCH   2  20
BRANCH   6  22
ATOM     22  C   UNL     1       3.947   6.936  18.364  0.00  0.00    +0.000 C 
ATOM     23  C   UNL     1       2.887   7.687  17.983  0.00  0.00    +0.000 C 
BRANCH  23  24
ATOM     24  C   UNL     1       1.915   8.260  18.912  0.00  0.00    +0.000 A 
ATOM     25  C   UNL     1       1.146   9.314  18.421  0.00  0.00    +0.000 A 
ATOM     26  C   UNL     1       0.321  10.022  19.267  0.00  0.00    +0.000 A 
ATOM     27  C   UNL     1       0.201   9.700  20.623  0.00  0.00    +0.000 A 
ATOM     28  C   UNL     1       0.923   8.615  21.116  0.00  0.00    +0.000 A 
ATOM     29  C   UNL     1       1.768   7.892  20.256  0.00  0.00    +0.000 A 
BRANCH  27  30
ATOM     30  O   UNL     1      -0.605  10.430  21.479  0.00  0.00    +0.000 OA
BRANCH  30  31
ATOM     31  C   UNL     1      -0.659  11.817  21.095  0.00  0.00    +0.000 C 
BRANCH  31  32
ATOM     32  C   UNL     1      -0.603  12.774  22.271  0.00  0.00    +0.000 C 
BRANCH  32  33
ATOM     33  N   UNL     1       0.554  13.700  22.200  0.00  0.00    +0.000 NA
ATOM     34  C   UNL     1       0.213  15.121  22.409  0.00  0.00    +0.000 C 
ATOM     35  C   UNL     1      -0.300  15.579  21.062  0.00  0.00    +0.000 C 
ATOM     36  C   UNL     1       0.691  14.922  20.121  0.00  0.00    +0.000 C 
ATOM     37  C   UNL     1       1.140  13.653  20.845  0.00  0.00    +0.000 C 
ENDBRANCH  32  33
ENDBRANCH  31  32
ENDBRANCH  30  31
ENDBRANCH  27  30
ENDBRANCH  23  24
ENDBRANCH   6  22
TORSDOF 9
ENDMDL
MODEL 7
REMARK VINA RESULT:      -7.7      1.780      4.988
REMARK  Name = 
REMARK  10 active torsions:
REMARK  status: ('A' for Active; 'I' for Inactive)
REMARK    1  A    between atoms: C_1  and  C_2
REMARK    2  A    between atoms: C_3  and  N_4
REMARK    3  A    between atoms: N_4  and  C_5
REMARK    4  A    between atoms: C_6  and  C_7
REMARK    5  A    between atoms: C_12  and  C_13
REMARK    6  A    between atoms: C_14  and  C_15
REMARK    7  A    between atoms: C_18  and  O_19
REMARK    8  A    between atoms: O_19  and  C_20
REMARK    9  A    between atoms: C_20  and  C_21
REMARK   10  A    between atoms: C_21  and  N_22
REMARK                            x       y       z     vdW  Elec       q    Type
REMARK                         _______ _______ _______ _____ _____    ______ ____
ROOT
ATOM      1  C   UNL     1       3.490   4.166  19.817  0.00  0.00    +0.000 A 
ATOM      2  C   UNL     1       3.369   2.811  20.220  0.00  0.00    +0.000 A 
ATOM      3  C   UNL     1       2.127   2.202  20.192  0.00  0.00    +0.000 A 
ATOM      4  N   UNL     1       0.982   2.839  19.882  0.00  0.00    +0.000 NA
ATOM      5  C   UNL     1       1.085   4.155  19.602  0.00  0.00    +0.000 A 
ATOM      6  C   UNL     1       2.280   4.891  19.551  0.00  0.00    +0.000 A 
ENDROOT
BRANCH   1   7
ATOM      7  N   UNL     1       4.799   4.749  19.677  0.00  0.00    +0.000 N 
ATOM      8  H   UNL     1       4.938   5.552  20.287  0.00  0.00    +0.000 HD
BRANCH   7  11
ATOM      9  C   UNL     1       3.864   3.450  17.084  0.00  0.00    +0.000 C 
ATOM     10  C   UNL     1       5.050   4.364  17.215  0.00  0.00    +0.000 A 
ATOM     11  C   UNL     1       5.423   5.041  18.406  0.00  0.00    +0.000 A 
ATOM     12  C   UNL     1       6.467   5.995  18.351  0.00  0.00    +0.000 A 
ATOM     13  C   UNL     1       7.154   6.309  17.177  0.00  0.00    +0.000 A 
ATOM     14  C   UNL     1       6.859   5.535  16.062  0.00  0.00    +0.000 A 
ATOM     15  N   UNL     1       7.440   5.525  14.815  0.00  0.00    +0.000 N 
ATOM     16  C   UNL     1       6.877   4.550  14.038  0.00  0.00    +0.000 A 
ATOM     17  C   UNL     1       5.875   3.964  14.771  0.00  0.00    +0.000 A 
ATOM     18  C   UNL     1       5.852   4.574  16.060  0.00  0.00    +0.000 A 
ATOM     19  H   UNL     1       8.207   6.121  14.536  0.00  0.00    +0.000 HD
ENDBRANCH   7  11
ENDBRANCH   1   7
BRANCH   2  20
ATOM     20  C   UNL     1       4.489   1.990  20.615  0.00  0.00    +0.000 C 
ATOM     21  N   UNL     1       5.366   1.361  21.002  0.00  0.00    +0.000 NA
ENDBRANCH   2  20
BRANCH   6  22
ATOM     22  C   UNL     1       2.206   6.337  19.229  0.00  0.00    +0.000 C 
ATOM     23  C   UNL     1       1.897   7.308  20.120  0.00  0.00    +0.000 C 
BRANCH  23  24
ATOM     24  C   UNL     1       1.601   8.691  19.752  0.00  0.00    +0.000 A 
ATOM     25  C   UNL     1       0.926   9.449  20.708  0.00  0.00    +0.000 A 
ATOM     26  C   UNL     1       0.462  10.707  20.394  0.00  0.00    +0.000 A 
ATOM     27  C   UNL     1       0.669  11.277  19.134  0.00  0.00    +0.000 A 
ATOM     28  C   UNL     1       1.388  10.553  18.185  0.00  0.00    +0.000 A 
ATOM     29  C   UNL     1       1.862   9.267  18.502  0.00  0.00    +0.000 A 
BRANCH  27  30
ATOM     30  O   UNL     1       0.177  12.529  18.808  0.00  0.00    +0.000 OA
BRANCH  30  31
ATOM     31  C   UNL     1      -0.098  13.309  19.987  0.00  0.00    +0.000 C 
BRANCH  31  32
ATOM     32  C   UNL     1      -1.572  13.379  20.339  0.00  0.00    +0.000 C 
BRANCH  32  33
ATOM     33  N   UNL     1      -1.808  13.857  21.724  0.00  0.00    +0.000 NA
ATOM     34  C   UNL     1      -1.059  13.120  22.761  0.00  0.00    +0.000 C 
ATOM     35  C   UNL     1      -1.883  11.874  22.996  0.00  0.00    +0.000 C 
ATOM     36  C   UNL     1      -3.290  12.437  22.998  0.00  0.00    +0.000 C 
ATOM     37  C   UNL     1      -3.228  13.655  22.077  0.00  0.00    +0.000 C 
ENDBRANCH  32  33
ENDBRANCH  31  32
ENDBRANCH  30  31
ENDBRANCH  27  30
ENDBRANCH  23  24
ENDBRANCH   6  22
TORSDOF 9
ENDMDL
MODEL 8
REMARK VINA RESULT:      -7.6      1.777      5.054
REMARK  Name = 
REMARK  10 active torsions:
REMARK  status: ('A' for Active; 'I' for Inactive)
REMARK    1  A    between atoms: C_1  and  C_2
REMARK    2  A    between atoms: C_3  and  N_4
REMARK    3  A    between atoms: N_4  and  C_5
REMARK    4  A    between atoms: C_6  and  C_7
REMARK    5  A    between atoms: C_12  and  C_13
REMARK    6  A    between atoms: C_14  and  C_15
REMARK    7  A    between atoms: C_18  and  O_19
REMARK    8  A    between atoms: O_19  and  C_20
REMARK    9  A    between atoms: C_20  and  C_21
REMARK   10  A    between atoms: C_21  and  N_22
REMARK                            x       y       z     vdW  Elec       q    Type
REMARK                         _______ _______ _______ _____ _____    ______ ____
ROOT
ATOM      1  C   UNL     1       3.450   4.254  20.055  0.00  0.00    +0.000 A 
ATOM      2  C   UNL     1       3.336   2.908  20.488  0.00  0.00    +0.000 A 
ATOM      3  C   UNL     1       2.106   2.429  20.902  0.00  0.00    +0.000 A 
ATOM      4  N   UNL     1       0.998   3.186  21.006  0.00  0.00    +0.000 NA
ATOM      5  C   UNL     1       1.134   4.492  20.694  0.00  0.00    +0.000 A 
ATOM      6  C   UNL     1       2.305   5.105  20.221  0.00  0.00    +0.000 A 
ENDROOT
BRANCH   1   7
ATOM      7  N   UNL     1       4.680   4.706  19.461  0.00  0.00    +0.000 N 
ATOM      8  H   UNL     1       4.892   5.676  19.686  0.00  0.00    +0.000 HD
BRANCH   7  11
ATOM      9  C   UNL     1       7.483   5.286  18.413  0.00  0.00    +0.000 C 
ATOM     10  C   UNL     1       6.320   4.840  17.572  0.00  0.00    +0.000 A 
ATOM     11  C   UNL     1       5.043   4.480  18.080  0.00  0.00    +0.000 A 
ATOM     12  C   UNL     1       4.088   3.926  17.195  0.00  0.00    +0.000 A 
ATOM     13  C   UNL     1       4.337   3.712  15.838  0.00  0.00    +0.000 A 
ATOM     14  C   UNL     1       5.541   4.199  15.346  0.00  0.00    +0.000 A 
ATOM     15  N   UNL     1       6.014   4.243  14.054  0.00  0.00    +0.000 N 
ATOM     16  C   UNL     1       7.229   4.872  14.017  0.00  0.00    +0.000 A 
ATOM     17  C   UNL     1       7.576   5.180  15.309  0.00  0.00    +0.000 A 
ATOM     18  C   UNL     1       6.514   4.764  16.165  0.00  0.00    +0.000 A 
ATOM     19  H   UNL     1       5.508   3.904  13.248  0.00  0.00    +0.000 HD
ENDBRANCH   7  11
ENDBRANCH   1   7
BRANCH   2  20
ATOM     20  C   UNL     1       4.433   1.968  20.476  0.00  0.00    +0.000 C 
ATOM     21  N   UNL     1       5.341   1.271  20.510  0.00  0.00    +0.000 NA
ENDBRANCH   2  20
BRANCH   6  22
ATOM     22  C   UNL     1       2.274   6.559  19.931  0.00  0.00    +0.000 C 
ATOM     23  C   UNL     1       1.540   7.464  20.618  0.00  0.00    +0.000 C 
BRANCH  23  24
ATOM     24  C   UNL     1       1.334   8.846  20.188  0.00  0.00    +0.000 A 
ATOM     25  C   UNL     1       0.857   9.725  21.160  0.00  0.00    +0.000 A 
ATOM     26  C   UNL     1       0.480  11.003  20.811  0.00  0.00    +0.000 A 
ATOM     27  C   UNL     1       0.584  11.472  19.498  0.00  0.00    +0.000 A 
ATOM     28  C   UNL     1       1.108  10.622  18.526  0.00  0.00    +0.000 A 
ATOM     29  C   UNL     1       1.492   9.315  18.878  0.00  0.00    +0.000 A 
BRANCH  27  30
ATOM     30  O   UNL     1       0.177  12.746  19.142  0.00  0.00    +0.000 OA
BRANCH  30  31
ATOM     31  C   UNL     1      -1.251  12.810  18.961  0.00  0.00    +0.000 C 
BRANCH  31  32
ATOM     32  C   UNL     1      -1.753  11.983  17.793  0.00  0.00    +0.000 C 
BRANCH  32  33
ATOM     33  N   UNL     1      -2.816  11.025  18.185  0.00  0.00    +0.000 NA
ATOM     34  C   UNL     1      -3.225  10.095  17.114  0.00  0.00    +0.000 C 
ATOM     35  C   UNL     1      -4.190  10.902  16.273  0.00  0.00    +0.000 C 
ATOM     36  C   UNL     1      -5.003  11.609  17.340  0.00  0.00    +0.000 C 
ATOM     37  C   UNL     1      -4.047  11.769  18.522  0.00  0.00    +0.000 C 
ENDBRANCH  32  33
ENDBRANCH  31  32
ENDBRANCH  30  31
ENDBRANCH  27  30
ENDBRANCH  23  24
ENDBRANCH   6  22
TORSDOF 9
ENDMDL
MODEL 9
REMARK VINA RESULT:      -7.6      1.697      4.752
REMARK  Name = 
REMARK  10 active torsions:
REMARK  status: ('A' for Active; 'I' for Inactive)
REMARK    1  A    between atoms: C_1  and  C_2
REMARK    2  A    between atoms: C_3  and  N_4
REMARK    3  A    between atoms: N_4  and  C_5
REMARK    4  A    between atoms: C_6  and  C_7
REMARK    5  A    between atoms: C_12  and  C_13
REMARK    6  A    between atoms: C_14  and  C_15
REMARK    7  A    between atoms: C_18  and  O_19
REMARK    8  A    between atoms: O_19  and  C_20
REMARK    9  A    between atoms: C_20  and  C_21
REMARK   10  A    between atoms: C_21  and  N_22
REMARK                            x       y       z     vdW  Elec       q    Type
REMARK                         _______ _______ _______ _____ _____    ______ ____
ROOT
ATOM      1  C   UNL     1       3.227   4.321  20.162  0.00  0.00    +0.000 A 
ATOM      2  C   UNL     1       3.213   2.923  20.407  0.00  0.00    +0.000 A 
ATOM      3  C   UNL     1       2.014   2.236  20.349  0.00  0.00    +0.000 A 
ATOM      4  N   UNL     1       0.818   2.821  20.154  0.00  0.00    +0.000 NA
ATOM      5  C   UNL     1       0.822   4.164  20.027  0.00  0.00    +0.000 A 
ATOM      6  C   UNL     1       1.962   4.984  20.022  0.00  0.00    +0.000 A 
ENDROOT
BRANCH   1   7
ATOM      7  N   UNL     1       4.488   5.007  20.047  0.00  0.00    +0.000 N 
ATOM      8  H   UNL     1       4.464   5.940  20.453  0.00  0.00    +0.000 HD
BRANCH   7  11
ATOM      9  C   UNL     1       3.255   4.491  17.309  0.00  0.00    +0.000 C 
ATOM     10  C   UNL     1       4.715   4.735  17.568  0.00  0.00    +0.000 A 
ATOM     11  C   UNL     1       5.269   5.069  18.833  0.00  0.00    +0.000 A 
ATOM     12  C   UNL     1       6.636   5.428  18.906  0.00  0.00    +0.000 A 
ATOM     13  C   UNL     1       7.475   5.473  17.792  0.00  0.00    +0.000 A 
ATOM     14  C   UNL     1       6.941   5.011  16.596  0.00  0.00    +0.000 A 
ATOM     15  N   UNL     1       7.543   4.825  15.373  0.00  0.00    +0.000 N 
ATOM     16  C   UNL     1       6.653   4.285  14.484  0.00  0.00    +0.000 A 
ATOM     17  C   UNL     1       5.442   4.180  15.123  0.00  0.00    +0.000 A 
ATOM     18  C   UNL     1       5.608   4.633  16.465  0.00  0.00    +0.000 A 
ATOM     19  H   UNL     1       8.516   5.015  15.180  0.00  0.00    +0.000 HD
ENDBRANCH   7  11
ENDBRANCH   1   7
BRANCH   2  20
ATOM     20  C   UNL     1       4.401   2.144  20.666  0.00  0.00    +0.000 C 
ATOM     21  N   UNL     1       5.371   1.586  20.912  0.00  0.00    +0.000 NA
ENDBRANCH   2  20
BRANCH   6  22
ATOM     22  C   UNL     1       1.779   6.449  19.874  0.00  0.00    +0.000 C 
ATOM     23  C   UNL     1       1.359   7.274  20.861  0.00  0.00    +0.000 C 
BRANCH  23  24
ATOM     24  C   UNL     1       0.962   8.665  20.650  0.00  0.00    +0.000 A 
ATOM     25  C   UNL     1       1.332   9.229  19.430  0.00  0.00    +0.000 A 
ATOM     26  C   UNL     1       1.146  10.575  19.205  0.00  0.00    +0.000 A 
ATOM     27  C   UNL     1       0.561  11.410  20.162  0.00  0.00    +0.000 A 
ATOM     28  C   UNL     1       0.137  10.850  21.365  0.00  0.00    +0.000 A 
ATOM     29  C   UNL     1       0.328   9.476  21.599  0.00  0.00    +0.000 A 
BRANCH  27  30
ATOM     30  O   UNL     1       0.401  12.768  19.947  0.00  0.00    +0.000 OA
BRANCH  30  31
ATOM     31  C   UNL     1      -0.974  13.099  19.677  0.00  0.00    +0.000 C 
BRANCH  31  32
ATOM     32  C   UNL     1      -1.487  12.537  18.365  0.00  0.00    +0.000 C 
BRANCH  32  33
ATOM     33  N   UNL     1      -2.558  11.528  18.554  0.00  0.00    +0.000 NA
ATOM     34  C   UNL     1      -2.110  10.128  18.420  0.00  0.00    +0.000 C 
ATOM     35  C   UNL     1      -2.081   9.892  16.927  0.00  0.00    +0.000 C 
ATOM     36  C   UNL     1      -3.363  10.571  16.488  0.00  0.00    +0.000 C 
ATOM     37  C   UNL     1      -3.581  11.693  17.502  0.00  0.00    +0.000 C 
ENDBRANCH  32  33
ENDBRANCH  31  32
ENDBRANCH  30  31
ENDBRANCH  27  30
ENDBRANCH  23  24
ENDBRANCH   6  22
TORSDOF 9
ENDMDL
