MODEL 1
REMARK VINA RESULT:      -8.9      0.000      0.000
REMARK  Name = 
REMARK  6 active torsions:
REMARK  status: ('A' for Active; 'I' for Inactive)
REMARK    1  A    between atoms: C_1  and  C_2
REMARK    2  A    between atoms: C_7  and  N_8
REMARK    3  A    between atoms: N_11  and  C_12
REMARK    4  A    between atoms: C_15  and  O_16
REMARK    5  A    between atoms: O_16  and  C_17
REMARK    6  A    between atoms: C_21  and  C_22
REMARK                            x       y       z     vdW  Elec       q    Type
REMARK                         _______ _______ _______ _____ _____    ______ ____
ROOT
ATOM      1  C   UNL     1       1.733   9.072  19.082  0.00  0.00    +0.000 A 
ATOM      2  C   UNL     1       1.780   8.067  20.054  0.00  0.00    +0.000 A 
ATOM      3  C   UNL     1       2.354   6.823  19.752  0.00  0.00    +0.000 A 
ATOM      4  C   UNL     1       2.905   6.592  18.490  0.00  0.00    +0.000 A 
ATOM      5  C   UNL     1       2.922   7.625  17.550  0.00  0.00    +0.000 A 
ATOM      6  C   UNL     1       2.286   8.839  17.824  0.00  0.00    +0.000 A 
ENDROOT
BRANCH   1  10
ATOM      7  N   UNL     1      -0.544  11.746  19.945  0.00  0.00    +0.000 N 
ATOM      8  C   UNL     1      -0.161  10.419  19.817  0.00  0.00    +0.000 C 
ATOM      9  O   UNL     1      -0.871   9.460  20.110  0.00  0.00    +0.000 OA
ATOM     10  N   UNL     1       1.133  10.323  19.331  0.00  0.00    +0.000 N 
ATOM     11  H   UNL     1      -0.284  12.294  19.132  0.00  0.00    +0.000 HD
ATOM     12  H   UNL     1       1.735  11.047  19.700  0.00  0.00    +0.000 HD
BRANCH   7  19
ATOM     13  C   UNL     1      -3.406  12.783  23.867  0.00  0.00    +0.000 C 
ATOM     14  C   UNL     1      -3.245  12.567  22.390  0.00  0.00    +0.000 A 
ATOM     15  C   UNL     1      -4.327  12.738  21.514  0.00  0.00    +0.000 A 
ATOM     16  C   UNL     1      -4.151  12.586  20.138  0.00  0.00    +0.000 A 
ATOM     17  C   UNL     1      -2.890  12.283  19.636  0.00  0.00    +0.000 A 
ATOM     18  F   UNL     1      -2.725  12.144  18.311  0.00  0.00    +0.000 F 
ATOM     19  C   UNL     1      -1.810  12.069  20.491  0.00  0.00    +0.000 A 
ATOM     20  C   UNL     1      -1.990  12.205  21.871  0.00  0.00    +0.000 A 
ENDBRANCH   7  19
ENDBRANCH   1  10
BRANCH   4  21
ATOM     21  O   UNL     1       3.458   5.347  18.277  0.00  0.00    +0.000 OA
BRANCH  21  22
ATOM     22  C   UNL     1       4.772   5.242  17.872  0.00  0.00    +0.000 A 
ATOM     23  C   UNL     1       5.866   5.388  18.721  0.00  0.00    +0.000 A 
ATOM     24  C   UNL     1       7.131   5.212  18.191  0.00  0.00    +0.000 A 
ATOM     25  N   UNL     1       7.372   4.971  16.886  0.00  0.00    +0.000 NA
ATOM     26  C   UNL     1       6.295   4.909  16.063  0.00  0.00    +0.000 A 
ATOM     27  C   UNL     1       4.988   5.033  16.513  0.00  0.00    +0.000 A 
BRANCH  26  28
ATOM     28  C   UNL     1       6.634   4.707  14.657  0.00  0.00    +0.000 A 
ATOM     29  C   UNL     1       6.094   3.893  13.673  0.00  0.00    +0.000 A 
ATOM     30  C   UNL     1       6.820   4.107  12.474  0.00  0.00    +0.000 A 
ATOM     31  C   UNL     1       7.786   5.047  12.745  0.00  0.00    +0.000 A 
ATOM     32  N   UNL     1       7.662   5.405  14.060  0.00  0.00    +0.000 N 
ATOM     33  H   UNL     1       8.227   6.085  14.556  0.00  0.00    +0.000 HD
ENDBRANCH  26  28
ENDBRANCH  21  22
ENDBRANCH   4  21
TORSDOF 5
ENDMDL
MODEL 2
REMARK VINA RESULT:      -8.8      1.131      1.604
REMARK  Name = 
REMARK  6 active torsions:
REMARK  status: ('A' for Active; 'I' for Inactive)
REMARK    1  A    between atoms: C_1  and  C_2
REMARK    2  A    between atoms: C_7  and  N_8
REMARK    3  A    between atoms: N_11  and  C_12
REMARK    4  A    between atoms: C_15  and  O_16
REMARK    5  A    between atoms: O_16  and  C_17
REMARK    6  A    between atoms: C_21  and  C_22
REMARK                            x       y       z     vdW  Elec       q    Type
REMARK                         _______ _______ _______ _____ _____    ______ ____
ROOT
ATOM      1  C   UNL     1       1.591   9.123  19.409  0.00  0.00    +0.000 A 
ATOM      2  C   UNL     1       1.812   8.062  20.294  0.00  0.00    +0.000 A 
ATOM      3  C   UNL     1       2.274   6.828  19.811  0.00  0.00    +0.000 A 
ATOM      4  C   UNL     1       2.541   6.664  18.449  0.00  0.00    +0.000 A 
ATOM      5  C   UNL     1       2.390   7.750  17.585  0.00  0.00    +0.000 A 
ATOM      6  C   UNL     1       1.860   8.956  18.052  0.00  0.00    +0.000 A 
ENDROOT
BRANCH   1  10
ATOM      7  N   UNL     1      -0.473  11.816  20.661  0.00  0.00    +0.000 N 
ATOM      8  C   UNL     1      -0.199  10.498  20.329  0.00  0.00    +0.000 C 
ATOM      9  O   UNL     1      -0.995   9.570  20.460  0.00  0.00    +0.000 OA
ATOM     10  N   UNL     1       1.093  10.367  19.847  0.00  0.00    +0.000 N 
ATOM     11  H   UNL     1      -0.148  12.460  19.948  0.00  0.00    +0.000 HD
ATOM     12  H   UNL     1       1.744  10.969  20.331  0.00  0.00    +0.000 HD
BRANCH   7  19
ATOM     13  C   UNL     1      -5.158  13.390  20.184  0.00  0.00    +0.000 C 
ATOM     14  C   UNL     1      -4.014  12.940  21.046  0.00  0.00    +0.000 A 
ATOM     15  C   UNL     1      -4.171  12.791  22.432  0.00  0.00    +0.000 A 
ATOM     16  C   UNL     1      -3.115  12.321  23.214  0.00  0.00    +0.000 A 
ATOM     17  C   UNL     1      -1.910  11.981  22.609  0.00  0.00    +0.000 A 
ATOM     18  F   UNL     1      -0.901  11.522  23.366  0.00  0.00    +0.000 F 
ATOM     19  C   UNL     1      -1.720  12.158  21.239  0.00  0.00    +0.000 A 
ATOM     20  C   UNL     1      -2.772  12.646  20.458  0.00  0.00    +0.000 A 
ENDBRANCH   7  19
ENDBRANCH   1  10
BRANCH   4  21
ATOM     21  O   UNL     1       3.001   5.424  18.058  0.00  0.00    +0.000 OA
BRANCH  21  22
ATOM     22  C   UNL     1       4.342   5.247  17.786  0.00  0.00    +0.000 A 
ATOM     23  C   UNL     1       5.348   5.302  18.747  0.00  0.00    +0.000 A 
ATOM     24  C   UNL     1       6.648   5.059  18.343  0.00  0.00    +0.000 A 
ATOM     25  N   UNL     1       7.009   4.837  17.063  0.00  0.00    +0.000 NA
ATOM     26  C   UNL     1       6.022   4.863  16.132  0.00  0.00    +0.000 A 
ATOM     27  C   UNL     1       4.685   5.058  16.450  0.00  0.00    +0.000 A 
BRANCH  26  28
ATOM     28  C   UNL     1       6.492   4.675  14.763  0.00  0.00    +0.000 A 
ATOM     29  C   UNL     1       6.078   3.837  13.739  0.00  0.00    +0.000 A 
ATOM     30  C   UNL     1       6.896   4.083  12.608  0.00  0.00    +0.000 A 
ATOM     31  C   UNL     1       7.793   5.065  12.959  0.00  0.00    +0.000 A 
ATOM     32  N   UNL     1       7.537   5.418  14.256  0.00  0.00    +0.000 N 
ATOM     33  H   UNL     1       8.025   6.122  14.796  0.00  0.00    +0.000 HD
ENDBRANCH  26  28
ENDBRANCH  21  22
ENDBRANCH   4  21
TORSDOF 5
ENDMDL
MODEL 3
REMARK VINA RESULT:      -8.7      1.788      2.454
REMARK  Name = 
REMARK  6 active torsions:
REMARK  status: ('A' for Active; 'I' for Inactive)
REMARK    1  A    between atoms: C_1  and  C_2
REMARK    2  A    between atoms: C_7  and  N_8
REMARK    3  A    between atoms: N_11  and  C_12
REMARK    4  A    between atoms: C_15  and  O_16
REMARK    5  A    between atoms: O_16  and  C_17
REMARK    6  A    between atoms: C_21  and  C_22
REMARK                            x       y       z     vdW  Elec       q    Type
REMARK                         _______ _______ _______ _____ _____    ______ ____
ROOT
ATOM      1  C   UNL     1       1.891   7.160  20.409  0.00  0.00    +0.000 A 
ATOM      2  C   UNL     1       2.360   7.542  19.148  0.00  0.00    +0.000 A 
ATOM      3  C   UNL     1       2.876   6.579  18.267  0.00  0.00    +0.000 A 
ATOM      4  C   UNL     1       2.896   5.232  18.635  0.00  0.00    +0.000 A 
ATOM      5  C   UNL     1       2.357   4.849  19.866  0.00  0.00    +0.000 A 
ATOM      6  C   UNL     1       1.911   5.815  20.772  0.00  0.00    +0.000 A 
ENDROOT
BRANCH   1  10
ATOM      7  N   UNL     1       0.404  10.041  22.011  0.00  0.00    +0.000 N 
ATOM      8  C   UNL     1       0.764   9.260  20.924  0.00  0.00    +0.000 C 
ATOM      9  O   UNL     1       0.536   9.553  19.753  0.00  0.00    +0.000 OA
ATOM     10  N   UNL     1       1.399   8.099  21.338  0.00  0.00    +0.000 N 
ATOM     11  H   UNL     1       1.153  10.108  22.693  0.00  0.00    +0.000 HD
ATOM     12  H   UNL     1       0.998   7.726  22.187  0.00  0.00    +0.000 HD
BRANCH   7  19
ATOM     13  C   UNL     1      -0.321  14.275  19.522  0.00  0.00    +0.000 C 
ATOM     14  C   UNL     1      -0.697  13.331  20.627  0.00  0.00    +0.000 A 
ATOM     15  C   UNL     1      -1.806  13.585  21.447  0.00  0.00    +0.000 A 
ATOM     16  C   UNL     1      -2.175  12.671  22.436  0.00  0.00    +0.000 A 
ATOM     17  C   UNL     1      -1.449  11.496  22.591  0.00  0.00    +0.000 A 
ATOM     18  F   UNL     1      -1.813  10.619  23.539  0.00  0.00    +0.000 F 
ATOM     19  C   UNL     1      -0.320  11.242  21.814  0.00  0.00    +0.000 A 
ATOM     20  C   UNL     1       0.060  12.165  20.835  0.00  0.00    +0.000 A 
ENDBRANCH   7  19
ENDBRANCH   1  10
BRANCH   4  21
ATOM     21  O   UNL     1       3.410   4.349  17.710  0.00  0.00    +0.000 OA
BRANCH  21  22
ATOM     22  C   UNL     1       4.744   4.417  17.366  0.00  0.00    +0.000 A 
ATOM     23  C   UNL     1       5.784   4.522  18.286  0.00  0.00    +0.000 A 
ATOM     24  C   UNL     1       7.080   4.536  17.806  0.00  0.00    +0.000 A 
ATOM     25  N   UNL     1       7.396   4.519  16.495  0.00  0.00    +0.000 NA
ATOM     26  C   UNL     1       6.365   4.494  15.613  0.00  0.00    +0.000 A 
ATOM     27  C   UNL     1       5.034   4.438  16.005  0.00  0.00    +0.000 A 
BRANCH  26  28
ATOM     28  C   UNL     1       6.778   4.539  14.214  0.00  0.00    +0.000 A 
ATOM     29  C   UNL     1       6.404   3.797  13.104  0.00  0.00    +0.000 A 
ATOM     30  C   UNL     1       7.129   4.279  11.985  0.00  0.00    +0.000 A 
ATOM     31  C   UNL     1       7.931   5.304  12.429  0.00  0.00    +0.000 A 
ATOM     32  N   UNL     1       7.708   5.456  13.770  0.00  0.00    +0.000 N 
ATOM     33  H   UNL     1       8.145   6.137  14.381  0.00  0.00    +0.000 HD
ENDBRANCH  26  28
ENDBRANCH  21  22
ENDBRANCH   4  21
TORSDOF 5
ENDMDL
MODEL 4
REMARK VINA RESULT:      -8.6      1.502      1.887
REMARK  Name = 
REMARK  6 active torsions:
REMARK  status: ('A' for Active; 'I' for Inactive)
REMARK    1  A    between atoms: C_1  and  C_2
REMARK    2  A    between atoms: C_7  and  N_8
REMARK    3  A    between atoms: N_11  and  C_12
REMARK    4  A    between atoms: C_15  and  O_16
REMARK    5  A    between atoms: O_16  and  C_17
REMARK    6  A    between atoms: C_21  and  C_22
REMARK                            x       y       z     vdW  Elec       q    Type
REMARK                         _______ _______ _______ _____ _____    ______ ____
ROOT
ATOM      1  C   UNL     1       1.598   9.056  18.579  0.00  0.00    +0.000 A 
ATOM      2  C   UNL     1       1.618   8.351  19.786  0.00  0.00    +0.000 A 
ATOM      3  C   UNL     1       2.362   7.166  19.897  0.00  0.00    +0.000 A 
ATOM      4  C   UNL     1       3.108   6.703  18.811  0.00  0.00    +0.000 A 
ATOM      5  C   UNL     1       3.142   7.452  17.633  0.00  0.00    +0.000 A 
ATOM      6  C   UNL     1       2.344   8.591  17.498  0.00  0.00    +0.000 A 
ENDROOT
BRANCH   1  10
ATOM      7  N   UNL     1      -1.068  11.452  18.098  0.00  0.00    +0.000 N 
ATOM      8  C   UNL     1      -0.545  10.183  18.288  0.00  0.00    +0.000 C 
ATOM      9  O   UNL     1      -1.218   9.156  18.352  0.00  0.00    +0.000 OA
ATOM     10  N   UNL     1       0.835  10.230  18.413  0.00  0.00    +0.000 N 
ATOM     11  H   UNL     1      -0.533  11.983  17.420  0.00  0.00    +0.000 HD
ATOM     12  H   UNL     1       1.145  11.046  18.923  0.00  0.00    +0.000 HD
BRANCH   7  19
ATOM     13  C   UNL     1      -5.376  12.740  20.204  0.00  0.00    +0.000 C 
ATOM     14  C   UNL     1      -4.600  12.246  19.017  0.00  0.00    +0.000 A 
ATOM     15  C   UNL     1      -5.233  12.015  17.787  0.00  0.00    +0.000 A 
ATOM     16  C   UNL     1      -4.491  11.607  16.678  0.00  0.00    +0.000 A 
ATOM     17  C   UNL     1      -3.114  11.450  16.793  0.00  0.00    +0.000 A 
ATOM     18  F   UNL     1      -2.405  11.064  15.721  0.00  0.00    +0.000 F 
ATOM     19  C   UNL     1      -2.470  11.637  18.015  0.00  0.00    +0.000 A 
ATOM     20  C   UNL     1      -3.216  12.029  19.131  0.00  0.00    +0.000 A 
ENDBRANCH   7  19
ENDBRANCH   1  10
BRANCH   4  21
ATOM     21  O   UNL     1       3.818   5.537  19.005  0.00  0.00    +0.000 OA
BRANCH  21  22
ATOM     22  C   UNL     1       5.083   5.410  18.470  0.00  0.00    +0.000 A 
ATOM     23  C   UNL     1       6.259   5.601  19.189  0.00  0.00    +0.000 A 
ATOM     24  C   UNL     1       7.462   5.397  18.539  0.00  0.00    +0.000 A 
ATOM     25  N   UNL     1       7.566   5.086  17.231  0.00  0.00    +0.000 NA
ATOM     26  C   UNL     1       6.409   4.979  16.530  0.00  0.00    +0.000 A 
ATOM     27  C   UNL     1       5.155   5.128  17.108  0.00  0.00    +0.000 A 
BRANCH  26  28
ATOM     28  C   UNL     1       6.598   4.702  15.110  0.00  0.00    +0.000 A 
ATOM     29  C   UNL     1       5.953   3.847  14.229  0.00  0.00    +0.000 A 
ATOM     30  C   UNL     1       6.552   3.991  12.953  0.00  0.00    +0.000 A 
ATOM     31  C   UNL     1       7.550   4.930  13.074  0.00  0.00    +0.000 A 
ATOM     32  N   UNL     1       7.565   5.356  14.374  0.00  0.00    +0.000 N 
ATOM     33  H   UNL     1       8.184   6.052  14.773  0.00  0.00    +0.000 HD
ENDBRANCH  26  28
ENDBRANCH  21  22
ENDBRANCH   4  21
TORSDOF 5
ENDMDL
MODEL 5
REMARK VINA RESULT:      -8.5      3.438     11.116
REMARK  Name = 
REMARK  6 active torsions:
REMARK  status: ('A' for Active; 'I' for Inactive)
REMARK    1  A    between atoms: C_1  and  C_2
REMARK    2  A    between atoms: C_7  and  N_8
REMARK    3  A    between atoms: N_11  and  C_12
REMARK    4  A    between atoms: C_15  and  O_16
REMARK    5  A    between atoms: O_16  and  C_17
REMARK    6  A    between atoms: C_21  and  C_22
REMARK                            x       y       z     vdW  Elec       q    Type
REMARK                         _______ _______ _______ _____ _____    ______ ____
ROOT
ATOM      1  C   UNL     1       0.771   9.494  21.945  0.00  0.00    +0.000 A 
ATOM      2  C   UNL     1       0.986  10.652  21.191  0.00  0.00    +0.000 A 
ATOM      3  C   UNL     1       0.171  11.777  21.382  0.00  0.00    +0.000 A 
ATOM      4  C   UNL     1      -0.840  11.756  22.346  0.00  0.00    +0.000 A 
ATOM      5  C   UNL     1      -1.000  10.622  23.147  0.00  0.00    +0.000 A 
ATOM      6  C   UNL     1      -0.238   9.476  22.907  0.00  0.00    +0.000 A 
ENDROOT
BRANCH   1  10
ATOM      7  N   UNL     1       2.379   6.544  20.606  0.00  0.00    +0.000 N 
ATOM      8  C   UNL     1       1.590   7.682  20.535  0.00  0.00    +0.000 C 
ATOM      9  O   UNL     1       1.022   8.070  19.516  0.00  0.00    +0.000 OA
ATOM     10  N   UNL     1       1.542   8.328  21.759  0.00  0.00    +0.000 N 
ATOM     11  H   UNL     1       2.184   6.001  21.439  0.00  0.00    +0.000 HD
ATOM     12  H   UNL     1       2.427   8.290  22.247  0.00  0.00    +0.000 HD
BRANCH   7  19
ATOM     13  C   UNL     1       5.023   5.640  16.502  0.00  0.00    +0.000 C 
ATOM     14  C   UNL     1       3.881   5.307  17.418  0.00  0.00    +0.000 A 
ATOM     15  C   UNL     1       3.064   4.193  17.176  0.00  0.00    +0.000 A 
ATOM     16  C   UNL     1       2.039   3.864  18.065  0.00  0.00    +0.000 A 
ATOM     17  C   UNL     1       1.844   4.638  19.204  0.00  0.00    +0.000 A 
ATOM     18  F   UNL     1       0.861   4.312  20.059  0.00  0.00    +0.000 F 
ATOM     19  C   UNL     1       2.618   5.772  19.443  0.00  0.00    +0.000 A 
ATOM     20  C   UNL     1       3.634   6.111  18.544  0.00  0.00    +0.000 A 
ENDBRANCH   7  19
ENDBRANCH   1  10
BRANCH   4  21
ATOM     21  O   UNL     1      -1.589  12.905  22.478  0.00  0.00    +0.000 OA
BRANCH  21  22
ATOM     22  C   UNL     1      -2.967  12.826  22.489  0.00  0.00    +0.000 A 
ATOM     23  C   UNL     1      -3.743  12.875  23.643  0.00  0.00    +0.000 A 
ATOM     24  C   UNL     1      -5.118  12.830  23.506  0.00  0.00    +0.000 A 
ATOM     25  N   UNL     1      -5.751  12.678  22.325  0.00  0.00    +0.000 NA
ATOM     26  C   UNL     1      -4.973  12.557  21.221  0.00  0.00    +0.000 A 
ATOM     27  C   UNL     1      -3.587  12.630  21.258  0.00  0.00    +0.000 A 
BRANCH  26  28
ATOM     28  C   UNL     1      -5.722  12.334  19.988  0.00  0.00    +0.000 A 
ATOM     29  C   UNL     1      -7.013  12.664  19.606  0.00  0.00    +0.000 A 
ATOM     30  C   UNL     1      -7.214  12.204  18.280  0.00  0.00    +0.000 A 
ATOM     31  C   UNL     1      -6.044  11.605  17.875  0.00  0.00    +0.000 A 
ATOM     32  N   UNL     1      -5.151  11.694  18.908  0.00  0.00    +0.000 N 
ATOM     33  H   UNL     1      -4.198  11.350  18.912  0.00  0.00    +0.000 HD
ENDBRANCH  26  28
ENDBRANCH  21  22
ENDBRANCH   4  21
TORSDOF 5
ENDMDL
MODEL 6
REMARK VINA RESULT:      -8.5      1.387      1.714
REMARK  Name = 
REMARK  6 active torsions:
REMARK  status: ('A' for Active; 'I' for Inactive)
REMARK    1  A    between atoms: C_1  and  C_2
REMARK    2  A    between atoms: C_7  and  N_8
REMARK    3  A    between atoms: N_11  and  C_12
REMARK    4  A    between atoms: C_15  and  O_16
REMARK    5  A    between atoms: O_16  and  C_17
REMARK    6  A    between atoms: C_21  and  C_22
REMARK                            x       y       z     vdW  Elec       q    Type
REMARK                         _______ _______ _______ _____ _____    ______ ____
ROOT
ATOM      1  C   UNL     1       1.623   8.889  18.946  0.00  0.00    +0.000 A 
ATOM      2  C   UNL     1       1.646   7.960  19.991  0.00  0.00    +0.000 A 
ATOM      3  C   UNL     1       2.348   6.754  19.846  0.00  0.00    +0.000 A 
ATOM      4  C   UNL     1       3.051   6.490  18.667  0.00  0.00    +0.000 A 
ATOM      5  C   UNL     1       3.085   7.455  17.658  0.00  0.00    +0.000 A 
ATOM      6  C   UNL     1       2.326   8.623  17.773  0.00  0.00    +0.000 A 
ENDROOT
BRANCH   1  10
ATOM      7  N   UNL     1      -0.229  11.776  20.093  0.00  0.00    +0.000 N 
ATOM      8  C   UNL     1       0.496  10.606  20.259  0.00  0.00    +0.000 C 
ATOM      9  O   UNL     1       0.757  10.100  21.349  0.00  0.00    +0.000 OA
ATOM     10  N   UNL     1       0.899  10.096  19.036  0.00  0.00    +0.000 N 
ATOM     11  H   UNL     1      -0.912  11.694  19.347  0.00  0.00    +0.000 HD
ATOM     12  H   UNL     1       1.154  10.825  18.383  0.00  0.00    +0.000 HD
BRANCH   7  19
ATOM     13  C   UNL     1      -3.418  12.346  23.856  0.00  0.00    +0.000 C 
ATOM     14  C   UNL     1      -2.229  12.819  23.070  0.00  0.00    +0.000 A 
ATOM     15  C   UNL     1      -1.503  13.950  23.471  0.00  0.00    +0.000 A 
ATOM     16  C   UNL     1      -0.368  14.347  22.762  0.00  0.00    +0.000 A 
ATOM     17  C   UNL     1       0.051  13.603  21.664  0.00  0.00    +0.000 A 
ATOM     18  F   UNL     1       1.147  13.987  20.990  0.00  0.00    +0.000 F 
ATOM     19  C   UNL     1      -0.678  12.500  21.224  0.00  0.00    +0.000 A 
ATOM     20  C   UNL     1      -1.825  12.112  21.925  0.00  0.00    +0.000 A 
ENDBRANCH   7  19
ENDBRANCH   1  10
BRANCH   4  21
ATOM     21  O   UNL     1       3.723   5.288  18.608  0.00  0.00    +0.000 OA
BRANCH  21  22
ATOM     22  C   UNL     1       5.011   5.248  18.117  0.00  0.00    +0.000 A 
ATOM     23  C   UNL     1       6.148   5.488  18.884  0.00  0.00    +0.000 A 
ATOM     24  C   UNL     1       7.383   5.370  18.275  0.00  0.00    +0.000 A 
ATOM     25  N   UNL     1       7.551   5.099  16.964  0.00  0.00    +0.000 NA
ATOM     26  C   UNL     1       6.428   4.943  16.219  0.00  0.00    +0.000 A 
ATOM     27  C   UNL     1       5.149   5.005  16.753  0.00  0.00    +0.000 A 
BRANCH  26  28
ATOM     28  C   UNL     1       6.685   4.713  14.800  0.00  0.00    +0.000 A 
ATOM     29  C   UNL     1       6.112   3.856  13.874  0.00  0.00    +0.000 A 
ATOM     30  C   UNL     1       6.753   4.060  12.626  0.00  0.00    +0.000 A 
ATOM     31  C   UNL     1       7.703   5.037  12.811  0.00  0.00    +0.000 A 
ATOM     32  N   UNL     1       7.650   5.427  14.121  0.00  0.00    +0.000 N 
ATOM     33  H   UNL     1       8.222   6.138  14.562  0.00  0.00    +0.000 HD
ENDBRANCH  26  28
ENDBRANCH  21  22
ENDBRANCH   4  21
TORSDOF 5
ENDMDL
MODEL 7
REMARK VINA RESULT:      -8.5      1.737      2.364
REMARK  Name = 
REMARK  6 active torsions:
REMARK  status: ('A' for Active; 'I' for Inactive)
REMARK    1  A    between atoms: C_1  and  C_2
REMARK    2  A    between atoms: C_7  and  N_8
REMARK    3  A    between atoms: N_11  and  C_12
REMARK    4  A    between atoms: C_15  and  O_16
REMARK    5  A    between atoms: O_16  and  C_17
REMARK    6  A    between atoms: C_21  and  C_22
REMARK                            x       y       z     vdW  Elec       q    Type
REMARK                         _______ _______ _______ _____ _____    ______ ____
ROOT
ATOM      1  C   UNL     1       1.924   7.437  20.144  0.00  0.00    +0.000 A 
ATOM      2  C   UNL     1       2.388   7.658  18.843  0.00  0.00    +0.000 A 
ATOM      3  C   UNL     1       2.913   6.596  18.093  0.00  0.00    +0.000 A 
ATOM      4  C   UNL     1       2.948   5.307  18.632  0.00  0.00    +0.000 A 
ATOM      5  C   UNL     1       2.414   5.080  19.902  0.00  0.00    +0.000 A 
ATOM      6  C   UNL     1       1.959   6.150  20.678  0.00  0.00    +0.000 A 
ENDROOT
BRANCH   1  10
ATOM      7  N   UNL     1       0.480  10.520  21.365  0.00  0.00    +0.000 N 
ATOM      8  C   UNL     1       0.866   9.620  20.383  0.00  0.00    +0.000 C 
ATOM      9  O   UNL     1       0.719   9.804  19.177  0.00  0.00    +0.000 OA
ATOM     10  N   UNL     1       1.423   8.483  20.946  0.00  0.00    +0.000 N 
ATOM     11  H   UNL     1       1.191  10.625  22.081  0.00  0.00    +0.000 HD
ATOM     12  H   UNL     1       0.957   8.212  21.801  0.00  0.00    +0.000 HD
BRANCH   7  19
ATOM     13  C   UNL     1      -3.702  13.103  20.668  0.00  0.00    +0.000 C 
ATOM     14  C   UNL     1      -2.203  13.015  20.642  0.00  0.00    +0.000 A 
ATOM     15  C   UNL     1      -1.421  14.134  20.322  0.00  0.00    +0.000 A 
ATOM     16  C   UNL     1      -0.028  14.052  20.354  0.00  0.00    +0.000 A 
ATOM     17  C   UNL     1       0.582  12.858  20.724  0.00  0.00    +0.000 A 
ATOM     18  F   UNL     1       1.922  12.787  20.759  0.00  0.00    +0.000 F 
ATOM     19  C   UNL     1      -0.176  11.723  21.007  0.00  0.00    +0.000 A 
ATOM     20  C   UNL     1      -1.571  11.800  20.959  0.00  0.00    +0.000 A 
ENDBRANCH   7  19
ENDBRANCH   1  10
BRANCH   4  21
ATOM     21  O   UNL     1       3.471   4.318  17.826  0.00  0.00    +0.000 OA
BRANCH  21  22
ATOM     22  C   UNL     1       4.782   4.400  17.405  0.00  0.00    +0.000 A 
ATOM     23  C   UNL     1       5.863   4.624  18.253  0.00  0.00    +0.000 A 
ATOM     24  C   UNL     1       7.131   4.638  17.703  0.00  0.00    +0.000 A 
ATOM     25  N   UNL     1       7.379   4.511  16.384  0.00  0.00    +0.000 NA
ATOM     26  C   UNL     1       6.306   4.370  15.566  0.00  0.00    +0.000 A 
ATOM     27  C   UNL     1       5.000   4.305  16.034  0.00  0.00    +0.000 A 
BRANCH  26  28
ATOM     28  C   UNL     1       6.644   4.300  14.148  0.00  0.00    +0.000 A 
ATOM     29  C   UNL     1       7.458   5.081  13.341  0.00  0.00    +0.000 A 
ATOM     30  C   UNL     1       7.424   4.546  12.029  0.00  0.00    +0.000 A 
ATOM     31  C   UNL     1       6.594   3.450  12.056  0.00  0.00    +0.000 A 
ATOM     32  N   UNL     1       6.135   3.307  13.337  0.00  0.00    +0.000 N 
ATOM     33  H   UNL     1       5.510   2.585  13.677  0.00  0.00    +0.000 HD
ENDBRANCH  26  28
ENDBRANCH  21  22
ENDBRANCH   4  21
TORSDOF 5
ENDMDL
MODEL 8
REMARK VINA RESULT:      -8.4      1.253      1.946
REMARK  Name = 
REMARK  6 active torsions:
REMARK  status: ('A' for Active; 'I' for Inactive)
REMARK    1  A    between atoms: C_1  and  C_2
REMARK    2  A    between atoms: C_7  and  N_8
REMARK    3  A    between atoms: N_11  and  C_12
REMARK    4  A    between atoms: C_15  and  O_16
REMARK    5  A    between atoms: O_16  and  C_17
REMARK    6  A    between atoms: C_21  and  C_22
REMARK                            x       y       z     vdW  Elec       q    Type
REMARK                         _______ _______ _______ _____ _____    ______ ____
ROOT
ATOM      1  C   UNL     1       1.812   8.846  19.231  0.00  0.00    +0.000 A 
ATOM      2  C   UNL     1       2.097   8.584  17.887  0.00  0.00    +0.000 A 
ATOM      3  C   UNL     1       2.601   7.331  17.505  0.00  0.00    +0.000 A 
ATOM      4  C   UNL     1       2.792   6.332  18.462  0.00  0.00    +0.000 A 
ATOM      5  C   UNL     1       2.435   6.576  19.790  0.00  0.00    +0.000 A 
ATOM      6  C   UNL     1       2.003   7.846  20.183  0.00  0.00    +0.000 A 
ENDROOT
BRANCH   1  10
ATOM      7  N   UNL     1      -0.179  11.577  20.518  0.00  0.00    +0.000 N 
ATOM      8  C   UNL     1       0.074  10.251  20.204  0.00  0.00    +0.000 C 
ATOM      9  O   UNL     1      -0.717   9.330  20.396  0.00  0.00    +0.000 OA
ATOM     10  N   UNL     1       1.340  10.103  19.663  0.00  0.00    +0.000 N 
ATOM     11  H   UNL     1       0.113  12.203  19.775  0.00  0.00    +0.000 HD
ATOM     12  H   UNL     1       2.017  10.713  20.100  0.00  0.00    +0.000 HD
BRANCH   7  19
ATOM     13  C   UNL     1      -4.815  13.335  20.252  0.00  0.00    +0.000 C 
ATOM     14  C   UNL     1      -3.663  12.808  21.059  0.00  0.00    +0.000 A 
ATOM     15  C   UNL     1      -3.784  12.607  22.442  0.00  0.00    +0.000 A 
ATOM     16  C   UNL     1      -2.723  12.067  23.171  0.00  0.00    +0.000 A 
ATOM     17  C   UNL     1      -1.550  11.710  22.515  0.00  0.00    +0.000 A 
ATOM     18  F   UNL     1      -0.536  11.185  23.221  0.00  0.00    +0.000 F 
ATOM     19  C   UNL     1      -1.394  11.939  21.149  0.00  0.00    +0.000 A 
ATOM     20  C   UNL     1      -2.451  12.495  20.422  0.00  0.00    +0.000 A 
ENDBRANCH   7  19
ENDBRANCH   1  10
BRANCH   4  21
ATOM     21  O   UNL     1       3.281   5.127  18.004  0.00  0.00    +0.000 OA
BRANCH  21  22
ATOM     22  C   UNL     1       4.604   5.024  17.628  0.00  0.00    +0.000 A 
ATOM     23  C   UNL     1       5.679   5.172  18.500  0.00  0.00    +0.000 A 
ATOM     24  C   UNL     1       6.955   4.998  17.997  0.00  0.00    +0.000 A 
ATOM     25  N   UNL     1       7.225   4.758  16.698  0.00  0.00    +0.000 NA
ATOM     26  C   UNL     1       6.167   4.694  15.851  0.00  0.00    +0.000 A 
ATOM     27  C   UNL     1       4.849   4.816  16.273  0.00  0.00    +0.000 A 
BRANCH  26  28
ATOM     28  C   UNL     1       6.536   4.493  14.454  0.00  0.00    +0.000 A 
ATOM     29  C   UNL     1       7.413   5.160  13.613  0.00  0.00    +0.000 A 
ATOM     30  C   UNL     1       7.381   4.526  12.346  0.00  0.00    +0.000 A 
ATOM     31  C   UNL     1       6.488   3.484  12.433  0.00  0.00    +0.000 A 
ATOM     32  N   UNL     1       5.989   3.469  13.708  0.00  0.00    +0.000 N 
ATOM     33  H   UNL     1       5.315   2.813  14.084  0.00  0.00    +0.000 HD
ENDBRANCH  26  28
ENDBRANCH  21  22
ENDBRANCH   4  21
TORSDOF 5
ENDMDL
MODEL 9
REMARK VINA RESULT:      -8.4      1.571      2.010
REMARK  Name = 
REMARK  6 active torsions:
REMARK  status: ('A' for Active; 'I' for Inactive)
REMARK    1  A    between atoms: C_1  and  C_2
REMARK    2  A    between atoms: C_7  and  N_8
REMARK    3  A    between atoms: N_11  and  C_12
REMARK    4  A    between atoms: C_15  and  O_16
REMARK    5  A    between atoms: O_16  and  C_17
REMARK    6  A    between atoms: C_21  and  C_22
REMARK                            x       y       z     vdW  Elec       q    Type
REMARK                         _______ _______ _______ _____ _____    ______ ____
ROOT
ATOM      1  C   UNL     1       1.825   7.536  20.240  0.00  0.00    +0.000 A 
ATOM      2  C   UNL     1       1.856   6.205  20.669  0.00  0.00    +0.000 A 
ATOM      3  C   UNL     1       2.388   5.210  19.836  0.00  0.00    +0.000 A 
ATOM      4  C   UNL     1       2.914   5.548  18.587  0.00  0.00    +0.000 A 
ATOM      5  C   UNL     1       2.947   6.889  18.197  0.00  0.00    +0.000 A 
ATOM      6  C   UNL     1       2.352   7.870  18.994  0.00  0.00    +0.000 A 
ENDROOT
BRANCH   1  10
ATOM      7  N   UNL     1       0.249  10.568  21.427  0.00  0.00    +0.000 N 
ATOM      8  C   UNL     1       0.694   9.685  20.454  0.00  0.00    +0.000 C 
ATOM      9  O   UNL     1       0.581   9.871  19.245  0.00  0.00    +0.000 OA
ATOM     10  N   UNL     1       1.267   8.562  21.030  0.00  0.00    +0.000 N 
ATOM     11  H   UNL     1       0.933  10.690  22.166  0.00  0.00    +0.000 HD
ATOM     12  H   UNL     1       0.782   8.273  21.868  0.00  0.00    +0.000 HD
BRANCH   7  19
ATOM     13  C   UNL     1      -3.971  12.960  20.368  0.00  0.00    +0.000 C 
ATOM     14  C   UNL     1      -2.476  12.953  20.515  0.00  0.00    +0.000 A 
ATOM     15  C   UNL     1      -1.729  14.128  20.344  0.00  0.00    +0.000 A 
ATOM     16  C   UNL     1      -0.347  14.118  20.536  0.00  0.00    +0.000 A 
ATOM     17  C   UNL     1       0.286  12.939  20.917  0.00  0.00    +0.000 A 
ATOM     18  F   UNL     1       1.614  12.938  21.106  0.00  0.00    +0.000 F 
ATOM     19  C   UNL     1      -0.432  11.752  21.053  0.00  0.00    +0.000 A 
ATOM     20  C   UNL     1      -1.814  11.758  20.845  0.00  0.00    +0.000 A 
ENDBRANCH   7  19
ENDBRANCH   1  10
BRANCH   4  21
ATOM     21  O   UNL     1       3.425   4.512  17.834  0.00  0.00    +0.000 OA
BRANCH  21  22
ATOM     22  C   UNL     1       4.756   4.525  17.468  0.00  0.00    +0.000 A 
ATOM     23  C   UNL     1       5.814   4.601  18.370  0.00  0.00    +0.000 A 
ATOM     24  C   UNL     1       7.102   4.558  17.869  0.00  0.00    +0.000 A 
ATOM     25  N   UNL     1       7.395   4.513  16.554  0.00  0.00    +0.000 NA
ATOM     26  C   UNL     1       6.349   4.517  15.689  0.00  0.00    +0.000 A 
ATOM     27  C   UNL     1       5.024   4.517  16.102  0.00  0.00    +0.000 A 
BRANCH  26  28
ATOM     28  C   UNL     1       6.741   4.528  14.283  0.00  0.00    +0.000 A 
ATOM     29  C   UNL     1       6.321   3.788  13.189  0.00  0.00    +0.000 A 
ATOM     30  C   UNL     1       7.045   4.227  12.052  0.00  0.00    +0.000 A 
ATOM     31  C   UNL     1       7.892   5.227  12.469  0.00  0.00    +0.000 A 
ATOM     32  N   UNL     1       7.697   5.404  13.812  0.00  0.00    +0.000 N 
ATOM     33  H   UNL     1       8.170   6.075  14.407  0.00  0.00    +0.000 HD
ENDBRANCH  26  28
ENDBRANCH  21  22
ENDBRANCH   4  21
TORSDOF 5
ENDMDL
