MODEL 1
REMARK VINA RESULT:      -9.0      0.000      0.000
REMARK  Name = 
REMARK  6 active torsions:
REMARK  status: ('A' for Active; 'I' for Inactive)
REMARK    1  A    between atoms: C_1  and  O_2
REMARK    2  A    between atoms: O_2  and  C_3
REMARK    3  A    between atoms: C_5  and  C_6
REMARK    4  A    between atoms: C_12  and  C_13
REMARK    5  A    between atoms: C_28  and  N_29
REMARK    6  A    between atoms: C_32  and  C_33
REMARK                            x       y       z     vdW  Elec       q    Type
REMARK                         _______ _______ _______ _____ _____    ______ ____
ROOT
ATOM      1  C   UNL     1       0.731   9.592  20.425  0.00  0.00    +0.000 C 
ATOM      2  C   UNL     1      -0.078  10.337  19.652  0.00  0.00    +0.000 C 
ATOM      3  C   UNL     1      -0.974  11.357  20.250  0.00  0.00    +0.000 C 
ATOM      4  N   UNL     1      -2.094  11.612  19.628  0.00  0.00    +0.000 NA
ATOM      5  O   UNL     1      -2.989  12.410  20.387  0.00  0.00    +0.000 OA
ATOM      6  C   UNL     1      -2.414  13.607  20.926  0.00  0.00    +0.000 C 
ATOM      7  C   UNL     1      -0.939  13.455  21.350  0.00  0.00    +0.000 C 
ATOM      8  N   UNL     1      -0.587  12.028  21.397  0.00  0.00    +0.000 N 
ATOM      9  C   UNL     1      -0.872  11.356  22.670  0.00  0.00    +0.000 C 
ATOM     10  C   UNL     1      -0.523   9.867  22.632  0.00  0.00    +0.000 C 
ATOM     11  C   UNL     1       0.809   9.582  21.939  0.00  0.00    +0.000 C 
ENDROOT
BRANCH   7  12
ATOM     12  C   UNL     1       0.054  14.182  20.423  0.00  0.00    +0.000 A 
ATOM     13  C   UNL     1      -0.416  15.160  19.532  0.00  0.00    +0.000 A 
ATOM     14  C   UNL     1       0.472  15.835  18.683  0.00  0.00    +0.000 A 
ATOM     15  F   UNL     1      -0.002  16.756  17.837  0.00  0.00    +0.000 F 
ATOM     16  C   UNL     1       1.832  15.551  18.710  0.00  0.00    +0.000 A 
ATOM     17  F   UNL     1       2.675  16.193  17.887  0.00  0.00    +0.000 F 
ATOM     18  C   UNL     1       2.308  14.603  19.597  0.00  0.00    +0.000 A 
ATOM     19  F   UNL     1       3.617  14.319  19.644  0.00  0.00    +0.000 F 
ATOM     20  C   UNL     1       1.435  13.924  20.452  0.00  0.00    +0.000 A 
ENDBRANCH   7  12
BRANCH   1  23
ATOM     21  C   UNL     1       2.478   6.312  19.788  0.00  0.00    +0.000 A 
ATOM     22  C   UNL     1       1.833   7.367  20.450  0.00  0.00    +0.000 A 
ATOM     23  C   UNL     1       1.541   8.557  19.779  0.00  0.00    +0.000 A 
ATOM     24  C   UNL     1       1.951   8.737  18.461  0.00  0.00    +0.000 A 
ATOM     25  C   UNL     1       2.640   7.723  17.808  0.00  0.00    +0.000 A 
ATOM     26  C   UNL     1       2.902   6.502  18.459  0.00  0.00    +0.000 A 
BRANCH  26  27
ATOM     27  N   UNL     1       3.585   5.501  17.717  0.00  0.00    +0.000 N 
ATOM     28  C   UNL     1       3.199   4.207  17.450  0.00  0.00    +0.000 A 
ATOM     29  N   UNL     1       4.082   3.554  16.722  0.00  0.00    +0.000 NA
ATOM     30  C   UNL     1       5.097   4.446  16.504  0.00  0.00    +0.000 A 
ATOM     31  C   UNL     1       6.326   4.065  15.778  0.00  0.00    +0.000 C 
ATOM     32  C   UNL     1       4.795   5.660  17.073  0.00  0.00    +0.000 A 
ENDBRANCH  26  27
BRANCH  21  34
ATOM     33  C   UNL     1       1.658   4.342  20.825  0.00  0.00    +0.000 C 
ATOM     34  O   UNL     1       2.776   5.138  20.427  0.00  0.00    +0.000 OA
ENDBRANCH  21  34
ENDBRANCH   1  23
TORSDOF 4
ENDMDL
MODEL 2
REMARK VINA RESULT:      -8.9      0.107      1.414
REMARK  Name = 
REMARK  6 active torsions:
REMARK  status: ('A' for Active; 'I' for Inactive)
REMARK    1  A    between atoms: C_1  and  O_2
REMARK    2  A    between atoms: O_2  and  C_3
REMARK    3  A    between atoms: C_5  and  C_6
REMARK    4  A    between atoms: C_12  and  C_13
REMARK    5  A    between atoms: C_28  and  N_29
REMARK    6  A    between atoms: C_32  and  C_33
REMARK                            x       y       z     vdW  Elec       q    Type
REMARK                         _______ _______ _______ _____ _____    ______ ____
ROOT
ATOM      1  C   UNL     1       0.696   9.632  20.464  0.00  0.00    +0.000 C 
ATOM      2  C   UNL     1      -0.108  10.391  19.699  0.00  0.00    +0.000 C 
ATOM      3  C   UNL     1      -0.998  11.410  20.308  0.00  0.00    +0.000 C 
ATOM      4  N   UNL     1      -2.116  11.679  19.689  0.00  0.00    +0.000 NA
ATOM      5  O   UNL     1      -3.006  12.475  20.456  0.00  0.00    +0.000 OA
ATOM      6  C   UNL     1      -2.423  13.661  21.010  0.00  0.00    +0.000 C 
ATOM      7  C   UNL     1      -0.949  13.495  21.433  0.00  0.00    +0.000 C 
ATOM      8  N   UNL     1      -0.607  12.064  21.464  0.00  0.00    +0.000 N 
ATOM      9  C   UNL     1      -0.897  11.380  22.728  0.00  0.00    +0.000 C 
ATOM     10  C   UNL     1      -0.558   9.889  22.674  0.00  0.00    +0.000 C 
ATOM     11  C   UNL     1       0.772   9.604  21.978  0.00  0.00    +0.000 C 
ENDROOT
BRANCH   7  12
ATOM     12  C   UNL     1       0.048  14.225  20.515  0.00  0.00    +0.000 A 
ATOM     13  C   UNL     1       1.410  13.882  20.557  0.00  0.00    +0.000 A 
ATOM     14  C   UNL     1       2.334  14.534  19.726  0.00  0.00    +0.000 A 
ATOM     15  F   UNL     1       3.626  14.195  19.792  0.00  0.00    +0.000 F 
ATOM     16  C   UNL     1       1.919  15.526  18.846  0.00  0.00    +0.000 A 
ATOM     17  F   UNL     1       2.810  16.153  18.062  0.00  0.00    +0.000 F 
ATOM     18  C   UNL     1       0.578  15.858  18.784  0.00  0.00    +0.000 A 
ATOM     19  F   UNL     1       0.156  16.807  17.937  0.00  0.00    +0.000 F 
ATOM     20  C   UNL     1      -0.355  15.215  19.603  0.00  0.00    +0.000 A 
ENDBRANCH   7  12
BRANCH   1  23
ATOM     21  C   UNL     1       2.451   6.360  19.808  0.00  0.00    +0.000 A 
ATOM     22  C   UNL     1       1.813   7.414  20.477  0.00  0.00    +0.000 A 
ATOM     23  C   UNL     1       1.499   8.598  19.807  0.00  0.00    +0.000 A 
ATOM     24  C   UNL     1       1.881   8.775  18.480  0.00  0.00    +0.000 A 
ATOM     25  C   UNL     1       2.563   7.763  17.818  0.00  0.00    +0.000 A 
ATOM     26  C   UNL     1       2.846   6.546  18.469  0.00  0.00    +0.000 A 
BRANCH  26  27
ATOM     27  N   UNL     1       3.521   5.546  17.718  0.00  0.00    +0.000 N 
ATOM     28  C   UNL     1       3.134   4.250  17.459  0.00  0.00    +0.000 A 
ATOM     29  N   UNL     1       4.008   3.599  16.719  0.00  0.00    +0.000 NA
ATOM     30  C   UNL     1       5.017   4.494  16.483  0.00  0.00    +0.000 A 
ATOM     31  C   UNL     1       6.236   4.115  15.739  0.00  0.00    +0.000 C 
ATOM     32  C   UNL     1       4.720   5.708  17.056  0.00  0.00    +0.000 A 
ENDBRANCH  26  27
BRANCH  21  34
ATOM     33  C   UNL     1       1.665   4.386  20.863  0.00  0.00    +0.000 C 
ATOM     34  O   UNL     1       2.769   5.191  20.446  0.00  0.00    +0.000 OA
ENDBRANCH  21  34
ENDBRANCH   1  23
TORSDOF 4
ENDMDL
MODEL 3
REMARK VINA RESULT:      -8.4      2.976      4.112
REMARK  Name = 
REMARK  6 active torsions:
REMARK  status: ('A' for Active; 'I' for Inactive)
REMARK    1  A    between atoms: C_1  and  O_2
REMARK    2  A    between atoms: O_2  and  C_3
REMARK    3  A    between atoms: C_5  and  C_6
REMARK    4  A    between atoms: C_12  and  C_13
REMARK    5  A    between atoms: C_28  and  N_29
REMARK    6  A    between atoms: C_32  and  C_33
REMARK                            x       y       z     vdW  Elec       q    Type
REMARK                         _______ _______ _______ _____ _____    ______ ____
ROOT
ATOM      1  C   UNL     1       0.791  10.510  19.997  0.00  0.00    +0.000 C 
ATOM      2  C   UNL     1      -0.237  10.332  20.845  0.00  0.00    +0.000 C 
ATOM      3  C   UNL     1      -0.919  11.493  21.467  0.00  0.00    +0.000 C 
ATOM      4  N   UNL     1      -1.448  11.317  22.649  0.00  0.00    +0.000 NA
ATOM      5  O   UNL     1      -1.860  12.526  23.266  0.00  0.00    +0.000 OA
ATOM      6  C   UNL     1      -2.689  13.363  22.449  0.00  0.00    +0.000 C 
ATOM      7  C   UNL     1      -2.329  13.325  20.950  0.00  0.00    +0.000 C 
ATOM      8  N   UNL     1      -1.014  12.689  20.777  0.00  0.00    +0.000 N 
ATOM      9  C   UNL     1       0.136  13.593  20.882  0.00  0.00    +0.000 C 
ATOM     10  C   UNL     1       1.469  12.858  20.737  0.00  0.00    +0.000 C 
ATOM     11  C   UNL     1       1.459  11.817  19.618  0.00  0.00    +0.000 C 
ENDROOT
BRANCH   7  12
ATOM     12  C   UNL     1      -3.360  12.580  20.081  0.00  0.00    +0.000 A 
ATOM     13  C   UNL     1      -4.712  12.569  20.462  0.00  0.00    +0.000 A 
ATOM     14  C   UNL     1      -5.666  11.900  19.682  0.00  0.00    +0.000 A 
ATOM     15  F   UNL     1      -6.945  11.896  20.072  0.00  0.00    +0.000 F 
ATOM     16  C   UNL     1      -5.293  11.240  18.518  0.00  0.00    +0.000 A 
ATOM     17  F   UNL     1      -6.209  10.592  17.782  0.00  0.00    +0.000 F 
ATOM     18  C   UNL     1      -3.967  11.260  18.124  0.00  0.00    +0.000 A 
ATOM     19  F   UNL     1      -3.587  10.635  17.001  0.00  0.00    +0.000 F 
ATOM     20  C   UNL     1      -3.005  11.926  18.889  0.00  0.00    +0.000 A 
ENDBRANCH   7  12
BRANCH   1  23
ATOM     21  C   UNL     1       2.195   7.019  19.759  0.00  0.00    +0.000 A 
ATOM     22  C   UNL     1       1.688   8.213  20.291  0.00  0.00    +0.000 A 
ATOM     23  C   UNL     1       1.464   9.321  19.470  0.00  0.00    +0.000 A 
ATOM     24  C   UNL     1       1.809   9.275  18.122  0.00  0.00    +0.000 A 
ATOM     25  C   UNL     1       2.364   8.118  17.591  0.00  0.00    +0.000 A 
ATOM     26  C   UNL     1       2.554   6.980  18.398  0.00  0.00    +0.000 A 
BRANCH  26  27
ATOM     27  N   UNL     1       3.099   5.823  17.777  0.00  0.00    +0.000 N 
ATOM     28  C   UNL     1       2.536   4.576  17.626  0.00  0.00    +0.000 A 
ATOM     29  N   UNL     1       3.329   3.736  16.992  0.00  0.00    +0.000 NA
ATOM     30  C   UNL     1       4.463   4.451  16.717  0.00  0.00    +0.000 A 
ATOM     31  C   UNL     1       5.636   3.830  16.067  0.00  0.00    +0.000 C 
ATOM     32  C   UNL     1       4.328   5.746  17.156  0.00  0.00    +0.000 A 
ENDBRANCH  26  27
BRANCH  21  34
ATOM     33  C   UNL     1       1.308   5.052  20.746  0.00  0.00    +0.000 C 
ATOM     34  O   UNL     1       2.423   5.922  20.546  0.00  0.00    +0.000 OA
ENDBRANCH  21  34
ENDBRANCH   1  23
TORSDOF 4
ENDMDL
MODEL 4
REMARK VINA RESULT:      -8.3      2.954      4.190
REMARK  Name = 
REMARK  6 active torsions:
REMARK  status: ('A' for Active; 'I' for Inactive)
REMARK    1  A    between atoms: C_1  and  O_2
REMARK    2  A    between atoms: O_2  and  C_3
REMARK    3  A    between atoms: C_5  and  C_6
REMARK    4  A    between atoms: C_12  and  C_13
REMARK    5  A    between atoms: C_28  and  N_29
REMARK    6  A    between atoms: C_32  and  C_33
REMARK                            x       y       z     vdW  Elec       q    Type
REMARK                         _______ _______ _______ _____ _____    ______ ____
ROOT
ATOM      1  C   UNL     1       0.798  10.534  20.000  0.00  0.00    +0.000 C 
ATOM      2  C   UNL     1      -0.228  10.364  20.852  0.00  0.00    +0.000 C 
ATOM      3  C   UNL     1      -0.901  11.530  21.474  0.00  0.00    +0.000 C 
ATOM      4  N   UNL     1      -1.427  11.360  22.658  0.00  0.00    +0.000 NA
ATOM      5  O   UNL     1      -1.832  12.573  23.272  0.00  0.00    +0.000 OA
ATOM      6  C   UNL     1      -2.658  13.413  22.456  0.00  0.00    +0.000 C 
ATOM      7  C   UNL     1      -2.303  13.369  20.956  0.00  0.00    +0.000 C 
ATOM      8  N   UNL     1      -0.992  12.725  20.781  0.00  0.00    +0.000 N 
ATOM      9  C   UNL     1       0.163  13.623  20.880  0.00  0.00    +0.000 C 
ATOM     10  C   UNL     1       1.492  12.880  20.733  0.00  0.00    +0.000 C 
ATOM     11  C   UNL     1       1.473  11.836  19.616  0.00  0.00    +0.000 C 
ENDROOT
BRANCH   7  12
ATOM     12  C   UNL     1      -3.341  12.628  20.092  0.00  0.00    +0.000 A 
ATOM     13  C   UNL     1      -2.927  11.968  18.923  0.00  0.00    +0.000 A 
ATOM     14  C   UNL     1      -3.856  11.285  18.125  0.00  0.00    +0.000 A 
ATOM     15  F   UNL     1      -3.438  10.673  17.012  0.00  0.00    +0.000 F 
ATOM     16  C   UNL     1      -5.199  11.245  18.477  0.00  0.00    +0.000 A 
ATOM     17  F   UNL     1      -6.085  10.599  17.703  0.00  0.00    +0.000 F 
ATOM     18  C   UNL     1      -5.614  11.876  19.636  0.00  0.00    +0.000 A 
ATOM     19  F   UNL     1      -6.904  11.844  19.998  0.00  0.00    +0.000 F 
ATOM     20  C   UNL     1      -4.699  12.558  20.443  0.00  0.00    +0.000 A 
ENDBRANCH   7  12
BRANCH   1  23
ATOM     21  C   UNL     1       2.196   7.040  19.772  0.00  0.00    +0.000 A 
ATOM     22  C   UNL     1       1.697   8.239  20.301  0.00  0.00    +0.000 A 
ATOM     23  C   UNL     1       1.463   9.340  19.474  0.00  0.00    +0.000 A 
ATOM     24  C   UNL     1       1.791   9.283  18.122  0.00  0.00    +0.000 A 
ATOM     25  C   UNL     1       2.338   8.121  17.593  0.00  0.00    +0.000 A 
ATOM     26  C   UNL     1       2.536   6.989  18.407  0.00  0.00    +0.000 A 
BRANCH  26  27
ATOM     27  N   UNL     1       3.072   5.827  17.788  0.00  0.00    +0.000 N 
ATOM     28  C   UNL     1       2.495   4.587  17.630  0.00  0.00    +0.000 A 
ATOM     29  N   UNL     1       3.282   3.739  17.001  0.00  0.00    +0.000 NA
ATOM     30  C   UNL     1       4.428   4.439  16.737  0.00  0.00    +0.000 A 
ATOM     31  C   UNL     1       5.599   3.805  16.096  0.00  0.00    +0.000 C 
ATOM     32  C   UNL     1       4.306   5.736  17.178  0.00  0.00    +0.000 A 
ENDBRANCH  26  27
BRANCH  21  34
ATOM     33  C   UNL     1       1.329   5.063  20.756  0.00  0.00    +0.000 C 
ATOM     34  O   UNL     1       2.433   5.948  20.565  0.00  0.00    +0.000 OA
ENDBRANCH  21  34
ENDBRANCH   1  23
TORSDOF 4
ENDMDL
MODEL 5
REMARK VINA RESULT:      -8.3      1.243      1.491
REMARK  Name = 
REMARK  6 active torsions:
REMARK  status: ('A' for Active; 'I' for Inactive)
REMARK    1  A    between atoms: C_1  and  O_2
REMARK    2  A    between atoms: O_2  and  C_3
REMARK    3  A    between atoms: C_5  and  C_6
REMARK    4  A    between atoms: C_12  and  C_13
REMARK    5  A    between atoms: C_28  and  N_29
REMARK    6  A    between atoms: C_32  and  C_33
REMARK                            x       y       z     vdW  Elec       q    Type
REMARK                         _______ _______ _______ _____ _____    ______ ____
ROOT
ATOM      1  C   UNL     1       1.363   8.789  19.638  0.00  0.00    +0.000 C 
ATOM      2  C   UNL     1       0.653   9.624  18.860  0.00  0.00    +0.000 C 
ATOM      3  C   UNL     1      -0.432  10.458  19.431  0.00  0.00    +0.000 C 
ATOM      4  N   UNL     1      -1.430  10.767  18.646  0.00  0.00    +0.000 NA
ATOM      5  O   UNL     1      -2.524  11.353  19.333  0.00  0.00    +0.000 OA
ATOM      6  C   UNL     1      -2.178  12.453  20.184  0.00  0.00    +0.000 C 
ATOM      7  C   UNL     1      -0.805  12.303  20.871  0.00  0.00    +0.000 C 
ATOM      8  N   UNL     1      -0.338  10.915  20.735  0.00  0.00    +0.000 N 
ATOM      9  C   UNL     1      -0.801   9.995  21.780  0.00  0.00    +0.000 C 
ATOM     10  C   UNL     1      -0.314   8.563  21.550  0.00  0.00    +0.000 C 
ATOM     11  C   UNL     1       1.147   8.491  21.109  0.00  0.00    +0.000 C 
ENDROOT
BRANCH   7  12
ATOM     12  C   UNL     1       0.276  13.248  20.315  0.00  0.00    +0.000 A 
ATOM     13  C   UNL     1      -0.096  14.315  19.480  0.00  0.00    +0.000 A 
ATOM     14  C   UNL     1       0.873  15.189  18.966  0.00  0.00    +0.000 A 
ATOM     15  F   UNL     1       0.494  16.190  18.166  0.00  0.00    +0.000 F 
ATOM     16  C   UNL     1       2.217  15.017  19.276  0.00  0.00    +0.000 A 
ATOM     17  F   UNL     1       3.140  15.850  18.773  0.00  0.00    +0.000 F 
ATOM     18  C   UNL     1       2.592  13.981  20.112  0.00  0.00    +0.000 A 
ATOM     19  F   UNL     1       3.882  13.803  20.429  0.00  0.00    +0.000 F 
ATOM     20  C   UNL     1       1.636  13.104  20.634  0.00  0.00    +0.000 A 
ENDBRANCH   7  12
BRANCH   1  23
ATOM     21  C   UNL     1       3.522   5.806  18.828  0.00  0.00    +0.000 A 
ATOM     22  C   UNL     1       2.667   6.679  19.516  0.00  0.00    +0.000 A 
ATOM     23  C   UNL     1       2.375   7.944  19.000  0.00  0.00    +0.000 A 
ATOM     24  C   UNL     1       2.987   8.382  17.829  0.00  0.00    +0.000 A 
ATOM     25  C   UNL     1       3.880   7.551  17.165  0.00  0.00    +0.000 A 
ATOM     26  C   UNL     1       4.148   6.256  17.650  0.00  0.00    +0.000 A 
BRANCH  26  27
ATOM     27  N   UNL     1       5.049   5.453  16.900  0.00  0.00    +0.000 N 
ATOM     28  C   UNL     1       6.249   4.902  17.292  0.00  0.00    +0.000 A 
ATOM     29  N   UNL     1       6.824   4.206  16.333  0.00  0.00    +0.000 NA
ATOM     30  C   UNL     1       5.978   4.303  15.261  0.00  0.00    +0.000 A 
ATOM     31  C   UNL     1       6.309   3.708  13.950  0.00  0.00    +0.000 C 
ATOM     32  C   UNL     1       4.863   5.033  15.600  0.00  0.00    +0.000 A 
ENDBRANCH  26  27
BRANCH  21  34
ATOM     33  C   UNL     1       2.763   3.882  19.991  0.00  0.00    +0.000 C 
ATOM     34  O   UNL     1       3.823   4.562  19.316  0.00  0.00    +0.000 OA
ENDBRANCH  21  34
ENDBRANCH   1  23
TORSDOF 4
ENDMDL
MODEL 6
REMARK VINA RESULT:      -8.2      3.233      4.585
REMARK  Name = 
REMARK  6 active torsions:
REMARK  status: ('A' for Active; 'I' for Inactive)
REMARK    1  A    between atoms: C_1  and  O_2
REMARK    2  A    between atoms: O_2  and  C_3
REMARK    3  A    between atoms: C_5  and  C_6
REMARK    4  A    between atoms: C_12  and  C_13
REMARK    5  A    between atoms: C_28  and  N_29
REMARK    6  A    between atoms: C_32  and  C_33
REMARK                            x       y       z     vdW  Elec       q    Type
REMARK                         _______ _______ _______ _____ _____    ______ ____
ROOT
ATOM      1  C   UNL     1       1.331  10.112  19.202  0.00  0.00    +0.000 C 
ATOM      2  C   UNL     1       0.494  10.406  20.213  0.00  0.00    +0.000 C 
ATOM      3  C   UNL     1       0.001  11.790  20.414  0.00  0.00    +0.000 C 
ATOM      4  N   UNL     1      -0.278  12.157  21.636  0.00  0.00    +0.000 NA
ATOM      5  O   UNL     1      -0.508  13.551  21.765  0.00  0.00    +0.000 OA
ATOM      6  C   UNL     1      -1.454  14.092  20.834  0.00  0.00    +0.000 C 
ATOM      7  C   UNL     1      -1.414  13.425  19.444  0.00  0.00    +0.000 C 
ATOM      8  N   UNL     1      -0.188  12.620  19.322  0.00  0.00    +0.000 N 
ATOM      9  C   UNL     1       0.993  13.349  18.847  0.00  0.00    +0.000 C 
ATOM     10  C   UNL     1       2.238  12.462  18.788  0.00  0.00    +0.000 C 
ATOM     11  C   UNL     1       1.957  11.074  18.213  0.00  0.00    +0.000 C 
ENDROOT
BRANCH   7  12
ATOM     12  C   UNL     1      -2.629  12.527  19.149  0.00  0.00    +0.000 A 
ATOM     13  C   UNL     1      -3.816  12.701  19.881  0.00  0.00    +0.000 A 
ATOM     14  C   UNL     1      -4.935  11.895  19.624  0.00  0.00    +0.000 A 
ATOM     15  F   UNL     1      -6.049  12.074  20.341  0.00  0.00    +0.000 F 
ATOM     16  C   UNL     1      -4.892  10.915  18.640  0.00  0.00    +0.000 A 
ATOM     17  F   UNL     1      -5.963  10.141  18.407  0.00  0.00    +0.000 F 
ATOM     18  C   UNL     1      -3.734  10.748  17.901  0.00  0.00    +0.000 A 
ATOM     19  F   UNL     1      -3.675   9.814  16.943  0.00  0.00    +0.000 F 
ATOM     20  C   UNL     1      -2.612  11.546  18.143  0.00  0.00    +0.000 A 
ENDBRANCH   7  12
BRANCH   1  23
ATOM     21  C   UNL     1       3.214   7.087  17.969  0.00  0.00    +0.000 A 
ATOM     22  C   UNL     1       2.605   8.349  18.003  0.00  0.00    +0.000 A 
ATOM     23  C   UNL     1       1.834   8.740  19.100  0.00  0.00    +0.000 A 
ATOM     24  C   UNL     1       1.601   7.850  20.145  0.00  0.00    +0.000 A 
ATOM     25  C   UNL     1       2.151   6.576  20.101  0.00  0.00    +0.000 A 
ATOM     26  C   UNL     1       2.967   6.185  19.022  0.00  0.00    +0.000 A 
BRANCH  26  27
ATOM     27  N   UNL     1       3.519   4.876  19.062  0.00  0.00    +0.000 N 
ATOM     28  C   UNL     1       4.746   4.468  19.534  0.00  0.00    +0.000 A 
ATOM     29  N   UNL     1       4.927   3.169  19.418  0.00  0.00    +0.000 NA
ATOM     30  C   UNL     1       3.780   2.696  18.840  0.00  0.00    +0.000 A 
ATOM     31  C   UNL     1       3.620   1.273  18.475  0.00  0.00    +0.000 C 
ATOM     32  C   UNL     1       2.886   3.722  18.648  0.00  0.00    +0.000 A 
ENDBRANCH  26  27
BRANCH  21  34
ATOM     33  C   UNL     1       5.363   7.005  16.968  0.00  0.00    +0.000 C 
ATOM     34  O   UNL     1       3.973   6.683  16.903  0.00  0.00    +0.000 OA
ENDBRANCH  21  34
ENDBRANCH   1  23
TORSDOF 4
ENDMDL
MODEL 7
REMARK VINA RESULT:      -8.2      3.237      4.664
REMARK  Name = 
REMARK  6 active torsions:
REMARK  status: ('A' for Active; 'I' for Inactive)
REMARK    1  A    between atoms: C_1  and  O_2
REMARK    2  A    between atoms: O_2  and  C_3
REMARK    3  A    between atoms: C_5  and  C_6
REMARK    4  A    between atoms: C_12  and  C_13
REMARK    5  A    between atoms: C_28  and  N_29
REMARK    6  A    between atoms: C_32  and  C_33
REMARK                            x       y       z     vdW  Elec       q    Type
REMARK                         _______ _______ _______ _____ _____    ______ ____
ROOT
ATOM      1  C   UNL     1       1.449  10.063  19.032  0.00  0.00    +0.000 C 
ATOM      2  C   UNL     1       0.641  10.401  20.052  0.00  0.00    +0.000 C 
ATOM      3  C   UNL     1       0.168  11.797  20.218  0.00  0.00    +0.000 C 
ATOM      4  N   UNL     1      -0.078  12.208  21.434  0.00  0.00    +0.000 NA
ATOM      5  O   UNL     1      -0.289  13.609  21.521  0.00  0.00    +0.000 OA
ATOM      6  C   UNL     1      -1.251  14.129  20.596  0.00  0.00    +0.000 C 
ATOM      7  C   UNL     1      -1.252  13.415  19.229  0.00  0.00    +0.000 C 
ATOM      8  N   UNL     1      -0.039  12.592  19.104  0.00  0.00    +0.000 N 
ATOM      9  C   UNL     1       1.138  13.291  18.577  0.00  0.00    +0.000 C 
ATOM     10  C   UNL     1       2.372  12.388  18.518  0.00  0.00    +0.000 C 
ATOM     11  C   UNL     1       2.061  10.985  17.996  0.00  0.00    +0.000 C 
ENDROOT
BRANCH   7  12
ATOM     12  C   UNL     1      -2.485  12.523  18.993  0.00  0.00    +0.000 A 
ATOM     13  C   UNL     1      -2.438  11.518  18.012  0.00  0.00    +0.000 A 
ATOM     14  C   UNL     1      -3.548  10.693  17.784  0.00  0.00    +0.000 A 
ATOM     15  F   UNL     1      -3.481   9.750  16.838  0.00  0.00    +0.000 F 
ATOM     16  C   UNL     1      -4.712  10.851  18.526  0.00  0.00    +0.000 A 
ATOM     17  F   UNL     1      -5.776  10.066  18.296  0.00  0.00    +0.000 F 
ATOM     18  C   UNL     1      -4.763  11.826  19.507  0.00  0.00    +0.000 A 
ATOM     19  F   UNL     1      -5.874  11.990  20.238  0.00  0.00    +0.000 F 
ATOM     20  C   UNL     1      -3.662  12.653  19.747  0.00  0.00    +0.000 A 
ENDBRANCH   7  12
BRANCH   1  23
ATOM     21  C   UNL     1       3.316   6.992  17.894  0.00  0.00    +0.000 A 
ATOM     22  C   UNL     1       2.726   8.264  17.893  0.00  0.00    +0.000 A 
ATOM     23  C   UNL     1       1.934   8.683  18.965  0.00  0.00    +0.000 A 
ATOM     24  C   UNL     1       1.663   7.814  20.018  0.00  0.00    +0.000 A 
ATOM     25  C   UNL     1       2.195   6.531  20.008  0.00  0.00    +0.000 A 
ATOM     26  C   UNL     1       3.031   6.112  18.955  0.00  0.00    +0.000 A 
BRANCH  26  27
ATOM     27  N   UNL     1       3.562   4.796  19.029  0.00  0.00    +0.000 N 
ATOM     28  C   UNL     1       4.756   4.374  19.570  0.00  0.00    +0.000 A 
ATOM     29  N   UNL     1       4.926   3.071  19.468  0.00  0.00    +0.000 NA
ATOM     30  C   UNL     1       3.807   2.612  18.828  0.00  0.00    +0.000 A 
ATOM     31  C   UNL     1       3.650   1.190  18.457  0.00  0.00    +0.000 C 
ATOM     32  C   UNL     1       2.939   3.649  18.583  0.00  0.00    +0.000 A 
ENDBRANCH  26  27
BRANCH  21  34
ATOM     33  C   UNL     1       5.479   6.907  16.922  0.00  0.00    +0.000 C 
ATOM     34  O   UNL     1       4.095   6.561  16.853  0.00  0.00    +0.000 OA
ENDBRANCH  21  34
ENDBRANCH   1  23
TORSDOF 4
ENDMDL
MODEL 8
REMARK VINA RESULT:      -8.2      3.204      4.573
REMARK  Name = 
REMARK  6 active torsions:
REMARK  status: ('A' for Active; 'I' for Inactive)
REMARK    1  A    between atoms: C_1  and  O_2
REMARK    2  A    between atoms: O_2  and  C_3
REMARK    3  A    between atoms: C_5  and  C_6
REMARK    4  A    between atoms: C_12  and  C_13
REMARK    5  A    between atoms: C_28  and  N_29
REMARK    6  A    between atoms: C_32  and  C_33
REMARK                            x       y       z     vdW  Elec       q    Type
REMARK                         _______ _______ _______ _____ _____    ______ ____
ROOT
ATOM      1  C   UNL     1       0.649  10.252  20.163  0.00  0.00    +0.000 C 
ATOM      2  C   UNL     1      -0.355  10.336  21.053  0.00  0.00    +0.000 C 
ATOM      3  C   UNL     1      -0.920  11.651  21.440  0.00  0.00    +0.000 C 
ATOM      4  N   UNL     1      -1.414  11.762  22.645  0.00  0.00    +0.000 NA
ATOM      5  O   UNL     1      -1.707  13.102  23.010  0.00  0.00    +0.000 OA
ATOM      6  C   UNL     1      -2.500  13.822  22.058  0.00  0.00    +0.000 C 
ATOM      7  C   UNL     1      -2.204  13.452  20.591  0.00  0.00    +0.000 C 
ATOM      8  N   UNL     1      -0.950  12.686  20.522  0.00  0.00    +0.000 N 
ATOM      9  C   UNL     1       0.270  13.494  20.413  0.00  0.00    +0.000 C 
ATOM     10  C   UNL     1       1.535  12.636  20.392  0.00  0.00    +0.000 C 
ATOM     11  C   UNL     1       1.401  11.395  19.509  0.00  0.00    +0.000 C 
ENDROOT
BRANCH   7  12
ATOM     12  C   UNL     1      -3.323  12.636  19.916  0.00  0.00    +0.000 A 
ATOM     13  C   UNL     1      -4.627  12.682  20.436  0.00  0.00    +0.000 A 
ATOM     14  C   UNL     1      -5.660  11.949  19.834  0.00  0.00    +0.000 A 
ATOM     15  F   UNL     1      -6.891  12.003  20.354  0.00  0.00    +0.000 F 
ATOM     16  C   UNL     1      -5.413  11.167  18.713  0.00  0.00    +0.000 A 
ATOM     17  F   UNL     1      -6.403  10.459  18.148  0.00  0.00    +0.000 F 
ATOM     18  C   UNL     1      -4.136  11.128  18.182  0.00  0.00    +0.000 A 
ATOM     19  F   UNL     1      -3.879  10.387  17.096  0.00  0.00    +0.000 F 
ATOM     20  C   UNL     1      -3.097  11.857  18.769  0.00  0.00    +0.000 A 
ENDBRANCH   7  12
BRANCH   1  23
ATOM     21  C   UNL     1       2.498   7.462  18.426  0.00  0.00    +0.000 A 
ATOM     22  C   UNL     1       1.832   8.675  18.652  0.00  0.00    +0.000 A 
ATOM     23  C   UNL     1       1.207   8.928  19.875  0.00  0.00    +0.000 A 
ATOM     24  C   UNL     1       1.177   7.948  20.863  0.00  0.00    +0.000 A 
ATOM     25  C   UNL     1       1.784   6.720  20.634  0.00  0.00    +0.000 A 
ATOM     26  C   UNL     1       2.456   6.469  19.422  0.00  0.00    +0.000 A 
BRANCH  26  27
ATOM     27  N   UNL     1       3.079   5.200  19.273  0.00  0.00    +0.000 N 
ATOM     28  C   UNL     1       4.351   4.813  19.631  0.00  0.00    +0.000 A 
ATOM     29  N   UNL     1       4.595   3.550  19.346  0.00  0.00    +0.000 NA
ATOM     30  C   UNL     1       3.445   3.082  18.772  0.00  0.00    +0.000 A 
ATOM     31  C   UNL     1       3.342   1.706  18.242  0.00  0.00    +0.000 C 
ATOM     32  C   UNL     1       2.487   4.068  18.752  0.00  0.00    +0.000 A 
ENDBRANCH  26  27
BRANCH  21  34
ATOM     33  C   UNL     1       4.533   7.365  17.212  0.00  0.00    +0.000 C 
ATOM     34  O   UNL     1       3.116   7.193  17.234  0.00  0.00    +0.000 OA
ENDBRANCH  21  34
ENDBRANCH   1  23
TORSDOF 4
ENDMDL
MODEL 9
REMARK VINA RESULT:      -8.1      3.178      4.635
REMARK  Name = 
REMARK  6 active torsions:
REMARK  status: ('A' for Active; 'I' for Inactive)
REMARK    1  A    between atoms: C_1  and  O_2
REMARK    2  A    between atoms: O_2  and  C_3
REMARK    3  A    between atoms: C_5  and  C_6
REMARK    4  A    between atoms: C_12  and  C_13
REMARK    5  A    between atoms: C_28  and  N_29
REMARK    6  A    between atoms: C_32  and  C_33
REMARK                            x       y       z     vdW  Elec       q    Type
REMARK                         _______ _______ _______ _____ _____    ______ ____
ROOT
ATOM      1  C   UNL     1       0.641  10.293  20.203  0.00  0.00    +0.000 C 
ATOM      2  C   UNL     1      -0.365  10.375  21.091  0.00  0.00    +0.000 C 
ATOM      3  C   UNL     1      -0.923  11.691  21.488  0.00  0.00    +0.000 C 
ATOM      4  N   UNL     1      -1.419  11.794  22.693  0.00  0.00    +0.000 NA
ATOM      5  O   UNL     1      -1.706  13.132  23.069  0.00  0.00    +0.000 OA
ATOM      6  C   UNL     1      -2.493  13.866  22.122  0.00  0.00    +0.000 C 
ATOM      7  C   UNL     1      -2.196  13.506  20.652  0.00  0.00    +0.000 C 
ATOM      8  N   UNL     1      -0.946  12.734  20.579  0.00  0.00    +0.000 N 
ATOM      9  C   UNL     1       0.279  13.536  20.480  0.00  0.00    +0.000 C 
ATOM     10  C   UNL     1       1.540  12.670  20.453  0.00  0.00    +0.000 C 
ATOM     11  C   UNL     1       1.400  11.438  19.561  0.00  0.00    +0.000 C 
ENDROOT
BRANCH   7  12
ATOM     12  C   UNL     1      -3.317  12.701  19.968  0.00  0.00    +0.000 A 
ATOM     13  C   UNL     1      -3.023  11.918  18.840  0.00  0.00    +0.000 A 
ATOM     14  C   UNL     1      -4.029  11.176  18.206  0.00  0.00    +0.000 A 
ATOM     15  F   UNL     1      -3.725  10.446  17.128  0.00  0.00    +0.000 F 
ATOM     16  C   UNL     1      -5.334  11.199  18.683  0.00  0.00    +0.000 A 
ATOM     17  F   UNL     1      -6.295  10.496  18.065  0.00  0.00    +0.000 F 
ATOM     18  C   UNL     1      -5.632  11.953  19.804  0.00  0.00    +0.000 A 
ATOM     19  F   UNL     1      -6.882  11.983  20.285  0.00  0.00    +0.000 F 
ATOM     20  C   UNL     1      -4.638  12.695  20.449  0.00  0.00    +0.000 A 
ENDBRANCH   7  12
BRANCH   1  23
ATOM     21  C   UNL     1       2.471   7.507  18.442  0.00  0.00    +0.000 A 
ATOM     22  C   UNL     1       1.811   8.721  18.678  0.00  0.00    +0.000 A 
ATOM     23  C   UNL     1       1.192   8.970  19.905  0.00  0.00    +0.000 A 
ATOM     24  C   UNL     1       1.162   7.983  20.887  0.00  0.00    +0.000 A 
ATOM     25  C   UNL     1       1.763   6.754  20.649  0.00  0.00    +0.000 A 
ATOM     26  C   UNL     1       2.429   6.507  19.433  0.00  0.00    +0.000 A 
BRANCH  26  27
ATOM     27  N   UNL     1       3.046   5.237  19.274  0.00  0.00    +0.000 N 
ATOM     28  C   UNL     1       4.320   4.845  19.617  0.00  0.00    +0.000 A 
ATOM     29  N   UNL     1       4.557   3.582  19.327  0.00  0.00    +0.000 NA
ATOM     30  C   UNL     1       3.399   3.119  18.763  0.00  0.00    +0.000 A 
ATOM     31  C   UNL     1       3.287   1.746  18.229  0.00  0.00    +0.000 C 
ATOM     32  C   UNL     1       2.445   4.109  18.755  0.00  0.00    +0.000 A 
ENDBRANCH  26  27
BRANCH  21  34
ATOM     33  C   UNL     1       4.498   7.427  17.213  0.00  0.00    +0.000 C 
ATOM     34  O   UNL     1       3.083   7.242  17.246  0.00  0.00    +0.000 OA
ENDBRANCH  21  34
ENDBRANCH   1  23
TORSDOF 4
ENDMDL
