MODEL 1
REMARK VINA RESULT:      -8.0      0.000      0.000
REMARK  Name = 
REMARK  5 active torsions:
REMARK  status: ('A' for Active; 'I' for Inactive)
REMARK    1  A    between atoms: C_1  and  C_2
REMARK    2  A    between atoms: C_2  and  C_3
REMARK    3  A    between atoms: C_3  and  N_4
REMARK    4  A    between atoms: N_7  and  C_8
REMARK    5  A    between atoms: C_11  and  N_12
REMARK                            x       y       z     vdW  Elec       q    Type
REMARK                         _______ _______ _______ _____ _____    ______ ____
ROOT
ATOM      1  N   UNL     1       3.921   4.468  18.890  0.00  0.00    +0.000 N 
ATOM      2  C   UNL     1       2.987   5.316  19.459  0.00  0.00    +0.000 C 
ATOM      3  O   UNL     1       2.078   4.899  20.165  0.00  0.00    +0.000 OA
ATOM      4  N   UNL     1       3.211   6.602  19.010  0.00  0.00    +0.000 N 
ATOM      5  C   UNL     1       4.399   6.638  18.303  0.00  0.00    +0.000 C 
ATOM      6  O   UNL     1       4.956   7.609  17.796  0.00  0.00    +0.000 OA
ATOM      7  C   UNL     1       4.945   5.206  18.212  0.00  0.00    +0.000 C 
ATOM      8  O   UNL     1       6.179   5.059  18.910  0.00  0.00    +0.000 OA
ATOM      9  C   UNL     1       7.176   4.650  18.071  0.00  0.00    +0.000 C 
ATOM     10  O   UNL     1       8.332   4.438  18.373  0.00  0.00    +0.000 OA
ATOM     11  C   UNL     1       6.586   4.475  16.751  0.00  0.00    +0.000 A 
ATOM     12  C   UNL     1       7.187   4.070  15.576  0.00  0.00    +0.000 A 
ATOM     13  C   UNL     1       6.392   4.012  14.430  0.00  0.00    +0.000 A 
ATOM     14  C   UNL     1       5.036   4.366  14.483  0.00  0.00    +0.000 A 
ATOM     15  C   UNL     1       4.453   4.767  15.688  0.00  0.00    +0.000 A 
ATOM     16  C   UNL     1       5.244   4.805  16.820  0.00  0.00    +0.000 A 
ENDROOT
BRANCH   4  17
ATOM     17  C   UNL     1       2.229   7.636  19.036  0.00  0.00    +0.000 A 
ATOM     18  C   UNL     1       1.856   8.319  17.863  0.00  0.00    +0.000 A 
ATOM     19  C   UNL     1       1.063   9.470  17.900  0.00  0.00    +0.000 A 
ATOM     20  C   UNL     1       0.614   9.955  19.127  0.00  0.00    +0.000 A 
ATOM     21  C   UNL     1       0.911   9.265  20.304  0.00  0.00    +0.000 A 
ATOM     22  C   UNL     1       1.700   8.111  20.250  0.00  0.00    +0.000 A 
BRANCH  20  23
ATOM     23  N   UNL     1      -0.144  11.208  19.182  0.00  0.00    +0.000 N 
ATOM     24  O   UNL     1       0.259  12.089  19.955  0.00  0.00    +0.000 OA
ATOM     25  O   UNL     1      -1.152  11.302  18.468  0.00  0.00    +0.000 OA
ENDBRANCH  20  23
ENDBRANCH   4  17
BRANCH   1  26
ATOM     26  C   UNL     1       3.684   3.039  18.760  0.00  0.00    +0.000 C 
BRANCH  26  28
ATOM     27  C   UNL     1       1.366   2.062  18.656  0.00  0.00    +0.000 C 
ATOM     28  C   UNL     1       2.510   2.676  17.868  0.00  0.00    +0.000 C 
ENDBRANCH  26  28
ENDBRANCH   1  26
TORSDOF 4
ENDMDL
MODEL 2
REMARK VINA RESULT:      -7.6      0.452      1.161
REMARK  Name = 
REMARK  5 active torsions:
REMARK  status: ('A' for Active; 'I' for Inactive)
REMARK    1  A    between atoms: C_1  and  C_2
REMARK    2  A    between atoms: C_2  and  C_3
REMARK    3  A    between atoms: C_3  and  N_4
REMARK    4  A    between atoms: N_7  and  C_8
REMARK    5  A    between atoms: C_11  and  N_12
REMARK                            x       y       z     vdW  Elec       q    Type
REMARK                         _______ _______ _______ _____ _____    ______ ____
ROOT
ATOM      1  N   UNL     1       3.879   4.624  18.872  0.00  0.00    +0.000 N 
ATOM      2  C   UNL     1       2.979   5.513  19.433  0.00  0.00    +0.000 C 
ATOM      3  O   UNL     1       2.043   5.137  20.126  0.00  0.00    +0.000 OA
ATOM      4  N   UNL     1       3.269   6.789  18.992  0.00  0.00    +0.000 N 
ATOM      5  C   UNL     1       4.467   6.771  18.300  0.00  0.00    +0.000 C 
ATOM      6  O   UNL     1       5.076   7.716  17.805  0.00  0.00    +0.000 OA
ATOM      7  C   UNL     1       4.945   5.315  18.210  0.00  0.00    +0.000 C 
ATOM      8  O   UNL     1       6.162   5.108  18.923  0.00  0.00    +0.000 OA
ATOM      9  C   UNL     1       7.149   4.654  18.096  0.00  0.00    +0.000 C 
ATOM     10  O   UNL     1       8.290   4.387  18.411  0.00  0.00    +0.000 OA
ATOM     11  C   UNL     1       6.569   4.512  16.767  0.00  0.00    +0.000 A 
ATOM     12  C   UNL     1       7.165   4.083  15.598  0.00  0.00    +0.000 A 
ATOM     13  C   UNL     1       6.383   4.067  14.442  0.00  0.00    +0.000 A 
ATOM     14  C   UNL     1       5.044   4.485  14.479  0.00  0.00    +0.000 A 
ATOM     15  C   UNL     1       4.466   4.908  15.679  0.00  0.00    +0.000 A 
ATOM     16  C   UNL     1       5.243   4.905  16.820  0.00  0.00    +0.000 A 
ENDROOT
BRANCH   4  17
ATOM     17  C   UNL     1       2.337   7.868  19.010  0.00  0.00    +0.000 A 
ATOM     18  C   UNL     1       1.727   8.288  20.207  0.00  0.00    +0.000 A 
ATOM     19  C   UNL     1       0.661   9.191  20.214  0.00  0.00    +0.000 A 
ATOM     20  C   UNL     1       0.189   9.706  19.009  0.00  0.00    +0.000 A 
ATOM     21  C   UNL     1       0.813   9.363  17.807  0.00  0.00    +0.000 A 
ATOM     22  C   UNL     1       1.884   8.462  17.817  0.00  0.00    +0.000 A 
BRANCH  20  23
ATOM     23  N   UNL     1      -0.983  10.585  19.001  0.00  0.00    +0.000 N 
ATOM     24  O   UNL     1      -1.753  10.506  18.033  0.00  0.00    +0.000 OA
ATOM     25  O   UNL     1      -1.123  11.367  19.952  0.00  0.00    +0.000 OA
ENDBRANCH  20  23
ENDBRANCH   4  17
BRANCH   1  26
ATOM     26  C   UNL     1       3.576   3.208  18.734  0.00  0.00    +0.000 C 
BRANCH  26  28
ATOM     27  C   UNL     1       1.265   2.216  18.616  0.00  0.00    +0.000 C 
ATOM     28  C   UNL     1       2.380   2.906  17.848  0.00  0.00    +0.000 C 
ENDBRANCH  26  28
ENDBRANCH   1  26
TORSDOF 4
ENDMDL
MODEL 3
REMARK VINA RESULT:      -7.4      2.313      8.122
REMARK  Name = 
REMARK  5 active torsions:
REMARK  status: ('A' for Active; 'I' for Inactive)
REMARK    1  A    between atoms: C_1  and  C_2
REMARK    2  A    between atoms: C_2  and  C_3
REMARK    3  A    between atoms: C_3  and  N_4
REMARK    4  A    between atoms: N_7  and  C_8
REMARK    5  A    between atoms: C_11  and  N_12
REMARK                            x       y       z     vdW  Elec       q    Type
REMARK                         _______ _______ _______ _____ _____    ______ ____
ROOT
ATOM      1  N   UNL     1       0.844   9.413  20.593  0.00  0.00    +0.000 N 
ATOM      2  C   UNL     1       1.442   8.190  20.341  0.00  0.00    +0.000 C 
ATOM      3  O   UNL     1       1.800   7.446  21.243  0.00  0.00    +0.000 OA
ATOM      4  N   UNL     1       1.633   8.054  18.980  0.00  0.00    +0.000 N 
ATOM      5  C   UNL     1       0.994   9.089  18.322  0.00  0.00    +0.000 C 
ATOM      6  O   UNL     1       0.895   9.279  17.113  0.00  0.00    +0.000 OA
ATOM      7  C   UNL     1       0.411  10.038  19.379  0.00  0.00    +0.000 C 
ATOM      8  O   UNL     1      -1.014  10.069  19.341  0.00  0.00    +0.000 OA
ATOM      9  C   UNL     1      -1.475  11.330  19.095  0.00  0.00    +0.000 C 
ATOM     10  O   UNL     1      -2.637  11.671  19.006  0.00  0.00    +0.000 OA
ATOM     11  C   UNL     1      -0.314  12.204  18.997  0.00  0.00    +0.000 A 
ATOM     12  C   UNL     1      -0.265  13.564  18.763  0.00  0.00    +0.000 A 
ATOM     13  C   UNL     1       0.995  14.162  18.687  0.00  0.00    +0.000 A 
ATOM     14  C   UNL     1       2.160  13.394  18.834  0.00  0.00    +0.000 A 
ATOM     15  C   UNL     1       2.079  12.021  19.077  0.00  0.00    +0.000 A 
ATOM     16  C   UNL     1       0.829  11.441  19.167  0.00  0.00    +0.000 A 
ENDROOT
BRANCH   4  17
ATOM     17  C   UNL     1       2.574   7.154  18.396  0.00  0.00    +0.000 A 
ATOM     18  C   UNL     1       2.418   5.760  18.507  0.00  0.00    +0.000 A 
ATOM     19  C   UNL     1       3.431   4.873  18.132  0.00  0.00    +0.000 A 
ATOM     20  C   UNL     1       4.627   5.372  17.621  0.00  0.00    +0.000 A 
ATOM     21  C   UNL     1       4.790   6.747  17.435  0.00  0.00    +0.000 A 
ATOM     22  C   UNL     1       3.765   7.622  17.810  0.00  0.00    +0.000 A 
BRANCH  20  23
ATOM     23  N   UNL     1       5.726   4.454  17.307  0.00  0.00    +0.000 N 
ATOM     24  O   UNL     1       6.617   4.315  18.157  0.00  0.00    +0.000 OA
ATOM     25  O   UNL     1       5.706   3.890  16.205  0.00  0.00    +0.000 OA
ENDBRANCH  20  23
ENDBRANCH   4  17
BRANCH   1  26
ATOM     26  C   UNL     1       0.945  10.066  21.889  0.00  0.00    +0.000 C 
BRANCH  26  28
ATOM     27  C   UNL     1      -1.080  11.206  22.856  0.00  0.00    +0.000 C 
ATOM     28  C   UNL     1      -0.286   9.914  22.765  0.00  0.00    +0.000 C 
ENDBRANCH  26  28
ENDBRANCH   1  26
TORSDOF 4
ENDMDL
MODEL 4
REMARK VINA RESULT:      -7.3      2.445      8.108
REMARK  Name = 
REMARK  5 active torsions:
REMARK  status: ('A' for Active; 'I' for Inactive)
REMARK    1  A    between atoms: C_1  and  C_2
REMARK    2  A    between atoms: C_2  and  C_3
REMARK    3  A    between atoms: C_3  and  N_4
REMARK    4  A    between atoms: N_7  and  C_8
REMARK    5  A    between atoms: C_11  and  N_12
REMARK                            x       y       z     vdW  Elec       q    Type
REMARK                         _______ _______ _______ _____ _____    ______ ____
ROOT
ATOM      1  N   UNL     1       0.772   9.411  20.596  0.00  0.00    +0.000 N 
ATOM      2  C   UNL     1       1.412   8.203  20.382  0.00  0.00    +0.000 C 
ATOM      3  O   UNL     1       1.734   7.467  21.305  0.00  0.00    +0.000 OA
ATOM      4  N   UNL     1       1.687   8.071  19.035  0.00  0.00    +0.000 N 
ATOM      5  C   UNL     1       1.064   9.091  18.339  0.00  0.00    +0.000 C 
ATOM      6  O   UNL     1       1.032   9.278  17.126  0.00  0.00    +0.000 OA
ATOM      7  C   UNL     1       0.397  10.026  19.358  0.00  0.00    +0.000 C 
ATOM      8  O   UNL     1      -1.023  10.024  19.236  0.00  0.00    +0.000 OA
ATOM      9  C   UNL     1      -1.498  11.274  18.961  0.00  0.00    +0.000 C 
ATOM     10  O   UNL     1      -2.660  11.587  18.804  0.00  0.00    +0.000 OA
ATOM     11  C   UNL     1      -0.354  12.175  18.930  0.00  0.00    +0.000 A 
ATOM     12  C   UNL     1      -0.323  13.535  18.697  0.00  0.00    +0.000 A 
ATOM     13  C   UNL     1       0.925  14.162  18.696  0.00  0.00    +0.000 A 
ATOM     14  C   UNL     1       2.096  13.422  18.912  0.00  0.00    +0.000 A 
ATOM     15  C   UNL     1       2.033  12.047  19.152  0.00  0.00    +0.000 A 
ATOM     16  C   UNL     1       0.794  11.438  19.169  0.00  0.00    +0.000 A 
ENDROOT
BRANCH   4  17
ATOM     17  C   UNL     1       2.681   7.194  18.509  0.00  0.00    +0.000 A 
ATOM     18  C   UNL     1       3.854   7.693  17.912  0.00  0.00    +0.000 A 
ATOM     19  C   UNL     1       4.731   6.865  17.204  0.00  0.00    +0.000 A 
ATOM     20  C   UNL     1       4.451   5.505  17.090  0.00  0.00    +0.000 A 
ATOM     21  C   UNL     1       3.330   4.965  17.725  0.00  0.00    +0.000 A 
ATOM     22  C   UNL     1       2.466   5.805  18.436  0.00  0.00    +0.000 A 
BRANCH  20  23
ATOM     23  N   UNL     1       5.317   4.648  16.277  0.00  0.00    +0.000 N 
ATOM     24  O   UNL     1       4.923   4.345  15.142  0.00  0.00    +0.000 OA
ATOM     25  O   UNL     1       6.382   4.264  16.781  0.00  0.00    +0.000 OA
ENDBRANCH  20  23
ENDBRANCH   4  17
BRANCH   1  26
ATOM     26  C   UNL     1       0.782  10.066  21.896  0.00  0.00    +0.000 C 
BRANCH  26  28
ATOM     27  C   UNL     1      -1.221  11.184  22.934  0.00  0.00    +0.000 C 
ATOM     28  C   UNL     1      -0.489   9.873  22.705  0.00  0.00    +0.000 C 
ENDBRANCH  26  28
ENDBRANCH   1  26
TORSDOF 4
ENDMDL
MODEL 5
REMARK VINA RESULT:      -7.1      3.391      9.499
REMARK  Name = 
REMARK  5 active torsions:
REMARK  status: ('A' for Active; 'I' for Inactive)
REMARK    1  A    between atoms: C_1  and  C_2
REMARK    2  A    between atoms: C_2  and  C_3
REMARK    3  A    between atoms: C_3  and  N_4
REMARK    4  A    between atoms: N_7  and  C_8
REMARK    5  A    between atoms: C_11  and  N_12
REMARK                            x       y       z     vdW  Elec       q    Type
REMARK                         _______ _______ _______ _____ _____    ______ ____
ROOT
ATOM      1  N   UNL     1      -1.568  11.466  18.791  0.00  0.00    +0.000 N 
ATOM      2  C   UNL     1      -0.770  10.467  18.262  0.00  0.00    +0.000 C 
ATOM      3  O   UNL     1      -1.191   9.674  17.429  0.00  0.00    +0.000 OA
ATOM      4  N   UNL     1       0.455  10.483  18.897  0.00  0.00    +0.000 N 
ATOM      5  C   UNL     1       0.537  11.603  19.704  0.00  0.00    +0.000 C 
ATOM      6  O   UNL     1       1.486  11.987  20.383  0.00  0.00    +0.000 OA
ATOM      7  C   UNL     1      -0.814  12.331  19.649  0.00  0.00    +0.000 C 
ATOM      8  O   UNL     1      -0.703  13.619  19.048  0.00  0.00    +0.000 OA
ATOM      9  C   UNL     1      -1.101  14.602  19.908  0.00  0.00    +0.000 C 
ATOM     10  O   UNL     1      -1.121  15.795  19.683  0.00  0.00    +0.000 OA
ATOM     11  C   UNL     1      -1.538  13.952  21.136  0.00  0.00    +0.000 A 
ATOM     12  C   UNL     1      -2.030  14.520  22.294  0.00  0.00    +0.000 A 
ATOM     13  C   UNL     1      -2.352  13.663  23.348  0.00  0.00    +0.000 A 
ATOM     14  C   UNL     1      -2.166  12.278  23.225  0.00  0.00    +0.000 A 
ATOM     15  C   UNL     1      -1.671  11.731  22.038  0.00  0.00    +0.000 A 
ATOM     16  C   UNL     1      -1.372  12.585  20.995  0.00  0.00    +0.000 A 
ENDROOT
BRANCH   4  17
ATOM     17  C   UNL     1       1.351   9.373  18.925  0.00  0.00    +0.000 A 
ATOM     18  C   UNL     1       2.127   9.033  17.801  0.00  0.00    +0.000 A 
ATOM     19  C   UNL     1       2.843   7.834  17.735  0.00  0.00    +0.000 A 
ATOM     20  C   UNL     1       2.804   6.951  18.812  0.00  0.00    +0.000 A 
ATOM     21  C   UNL     1       2.098   7.287  19.969  0.00  0.00    +0.000 A 
ATOM     22  C   UNL     1       1.391   8.494  20.022  0.00  0.00    +0.000 A 
BRANCH  20  23
ATOM     23  N   UNL     1       3.481   5.654  18.717  0.00  0.00    +0.000 N 
ATOM     24  O   UNL     1       4.223   5.324  19.653  0.00  0.00    +0.000 OA
ATOM     25  O   UNL     1       3.284   4.977  17.699  0.00  0.00    +0.000 OA
ENDBRANCH  20  23
ENDBRANCH   4  17
BRANCH   1  26
ATOM     26  C   UNL     1      -3.020  11.417  18.706  0.00  0.00    +0.000 C 
BRANCH  26  28
ATOM     27  C   UNL     1      -5.091  11.556  17.282  0.00  0.00    +0.000 C 
ATOM     28  C   UNL     1      -3.574  11.631  17.308  0.00  0.00    +0.000 C 
ENDBRANCH  26  28
ENDBRANCH   1  26
TORSDOF 4
ENDMDL
MODEL 6
REMARK VINA RESULT:      -7.0      3.309      9.541
REMARK  Name = 
REMARK  5 active torsions:
REMARK  status: ('A' for Active; 'I' for Inactive)
REMARK    1  A    between atoms: C_1  and  C_2
REMARK    2  A    between atoms: C_2  and  C_3
REMARK    3  A    between atoms: C_3  and  N_4
REMARK    4  A    between atoms: N_7  and  C_8
REMARK    5  A    between atoms: C_11  and  N_12
REMARK                            x       y       z     vdW  Elec       q    Type
REMARK                         _______ _______ _______ _____ _____    ______ ____
ROOT
ATOM      1  N   UNL     1       0.189  12.397  19.142  0.00  0.00    +0.000 N 
ATOM      2  C   UNL     1       1.230  11.503  18.966  0.00  0.00    +0.000 C 
ATOM      3  O   UNL     1       2.242  11.801  18.344  0.00  0.00    +0.000 OA
ATOM      4  N   UNL     1       0.870  10.280  19.494  0.00  0.00    +0.000 N 
ATOM      5  C   UNL     1      -0.321  10.414  20.186  0.00  0.00    +0.000 C 
ATOM      6  O   UNL     1      -0.928   9.564  20.832  0.00  0.00    +0.000 OA
ATOM      7  C   UNL     1      -0.821  11.854  20.001  0.00  0.00    +0.000 C 
ATOM      8  O   UNL     1      -0.838  12.575  21.231  0.00  0.00    +0.000 OA
ATOM      9  C   UNL     1      -2.096  13.014  21.529  0.00  0.00    +0.000 C 
ATOM     10  O   UNL     1      -2.425  13.655  22.506  0.00  0.00    +0.000 OA
ATOM     11  C   UNL     1      -2.968  12.605  20.436  0.00  0.00    +0.000 A 
ATOM     12  C   UNL     1      -4.322  12.819  20.275  0.00  0.00    +0.000 A 
ATOM     13  C   UNL     1      -4.929  12.291  19.134  0.00  0.00    +0.000 A 
ATOM     14  C   UNL     1      -4.180  11.561  18.200  0.00  0.00    +0.000 A 
ATOM     15  C   UNL     1      -2.809  11.366  18.385  0.00  0.00    +0.000 A 
ATOM     16  C   UNL     1      -2.214  11.907  19.508  0.00  0.00    +0.000 A 
ENDROOT
BRANCH   4  17
ATOM     17  C   UNL     1       1.485   9.045  19.133  0.00  0.00    +0.000 A 
ATOM     18  C   UNL     1       1.713   8.035  20.088  0.00  0.00    +0.000 A 
ATOM     19  C   UNL     1       2.501   6.916  19.804  0.00  0.00    +0.000 A 
ATOM     20  C   UNL     1       3.071   6.781  18.540  0.00  0.00    +0.000 A 
ATOM     21  C   UNL     1       2.811   7.730  17.548  0.00  0.00    +0.000 A 
ATOM     22  C   UNL     1       2.015   8.841  17.846  0.00  0.00    +0.000 A 
BRANCH  20  23
ATOM     23  N   UNL     1       3.968   5.656  18.261  0.00  0.00    +0.000 N 
ATOM     24  O   UNL     1       4.593   5.171  19.215  0.00  0.00    +0.000 OA
ATOM     25  O   UNL     1       4.061   5.272  17.087  0.00  0.00    +0.000 OA
ENDBRANCH  20  23
ENDBRANCH   4  17
BRANCH   1  26
ATOM     26  C   UNL     1       0.040  13.579  18.306  0.00  0.00    +0.000 C 
BRANCH  26  28
ATOM     27  C   UNL     1      -0.600  15.721  19.462  0.00  0.00    +0.000 C 
ATOM     28  C   UNL     1       0.541  14.864  18.942  0.00  0.00    +0.000 C 
ENDBRANCH  26  28
ENDBRANCH   1  26
TORSDOF 4
ENDMDL
MODEL 7
REMARK VINA RESULT:      -6.9      3.313      9.465
REMARK  Name = 
REMARK  5 active torsions:
REMARK  status: ('A' for Active; 'I' for Inactive)
REMARK    1  A    between atoms: C_1  and  C_2
REMARK    2  A    between atoms: C_2  and  C_3
REMARK    3  A    between atoms: C_3  and  N_4
REMARK    4  A    between atoms: N_7  and  C_8
REMARK    5  A    between atoms: C_11  and  N_12
REMARK                            x       y       z     vdW  Elec       q    Type
REMARK                         _______ _______ _______ _____ _____    ______ ____
ROOT
ATOM      1  N   UNL     1      -0.034  12.451  19.025  0.00  0.00    +0.000 N 
ATOM      2  C   UNL     1       1.108  11.669  19.010  0.00  0.00    +0.000 C 
ATOM      3  O   UNL     1       2.177  12.091  18.588  0.00  0.00    +0.000 OA
ATOM      4  N   UNL     1       0.788  10.394  19.429  0.00  0.00    +0.000 N 
ATOM      5  C   UNL     1      -0.512  10.381  19.902  0.00  0.00    +0.000 C 
ATOM      6  O   UNL     1      -1.132   9.447  20.404  0.00  0.00    +0.000 OA
ATOM      7  C   UNL     1      -1.117  11.774  19.674  0.00  0.00    +0.000 C 
ATOM      8  O   UNL     1      -1.422  12.430  20.902  0.00  0.00    +0.000 OA
ATOM      9  C   UNL     1      -2.750  12.733  20.984  0.00  0.00    +0.000 C 
ATOM     10  O   UNL     1      -3.308  13.293  21.906  0.00  0.00    +0.000 OA
ATOM     11  C   UNL     1      -3.372  12.296  19.742  0.00  0.00    +0.000 A 
ATOM     12  C   UNL     1      -4.692  12.387  19.349  0.00  0.00    +0.000 A 
ATOM     13  C   UNL     1      -5.034  11.858  18.103  0.00  0.00    +0.000 A 
ATOM     14  C   UNL     1      -4.064  11.248  17.296  0.00  0.00    +0.000 A 
ATOM     15  C   UNL     1      -2.733  11.176  17.716  0.00  0.00    +0.000 A 
ATOM     16  C   UNL     1      -2.401  11.717  18.943  0.00  0.00    +0.000 A 
ENDROOT
BRANCH   4  17
ATOM     17  C   UNL     1       1.580   9.241  19.147  0.00  0.00    +0.000 A 
ATOM     18  C   UNL     1       2.111   9.016  17.863  0.00  0.00    +0.000 A 
ATOM     19  C   UNL     1       2.702   7.799  17.512  0.00  0.00    +0.000 A 
ATOM     20  C   UNL     1       2.782   6.778  18.457  0.00  0.00    +0.000 A 
ATOM     21  C   UNL     1       2.325   6.989  19.759  0.00  0.00    +0.000 A 
ATOM     22  C   UNL     1       1.742   8.216  20.097  0.00  0.00    +0.000 A 
BRANCH  20  23
ATOM     23  N   UNL     1       3.321   5.470  18.072  0.00  0.00    +0.000 N 
ATOM     24  O   UNL     1       2.518   4.613  17.676  0.00  0.00    +0.000 OA
ATOM     25  O   UNL     1       4.542   5.295  18.184  0.00  0.00    +0.000 OA
ENDBRANCH  20  23
ENDBRANCH   4  17
BRANCH   1  26
ATOM     26  C   UNL     1      -0.155  13.651  18.212  0.00  0.00    +0.000 C 
BRANCH  26  28
ATOM     27  C   UNL     1       1.241  15.498  19.201  0.00  0.00    +0.000 C 
ATOM     28  C   UNL     1      -0.161  14.947  19.003  0.00  0.00    +0.000 C 
ENDBRANCH  26  28
ENDBRANCH   1  26
TORSDOF 4
ENDMDL
MODEL 8
REMARK VINA RESULT:      -6.7      3.692      9.907
REMARK  Name = 
REMARK  5 active torsions:
REMARK  status: ('A' for Active; 'I' for Inactive)
REMARK    1  A    between atoms: C_1  and  C_2
REMARK    2  A    between atoms: C_2  and  C_3
REMARK    3  A    between atoms: C_3  and  N_4
REMARK    4  A    between atoms: N_7  and  C_8
REMARK    5  A    between atoms: C_11  and  N_12
REMARK                            x       y       z     vdW  Elec       q    Type
REMARK                         _______ _______ _______ _____ _____    ______ ____
ROOT
ATOM      1  N   UNL     1       0.467  12.927  20.053  0.00  0.00    +0.000 N 
ATOM      2  C   UNL     1       1.316  11.941  19.584  0.00  0.00    +0.000 C 
ATOM      3  O   UNL     1       2.177  12.171  18.744  0.00  0.00    +0.000 OA
ATOM      4  N   UNL     1       0.946  10.728  20.131  0.00  0.00    +0.000 N 
ATOM      5  C   UNL     1      -0.017  10.940  21.101  0.00  0.00    +0.000 C 
ATOM      6  O   UNL     1      -0.550  10.115  21.839  0.00  0.00    +0.000 OA
ATOM      7  C   UNL     1      -0.364  12.436  21.111  0.00  0.00    +0.000 C 
ATOM      8  O   UNL     1       0.004  13.062  22.337  0.00  0.00    +0.000 OA
ATOM      9  C   UNL     1      -1.080  13.612  22.957  0.00  0.00    +0.000 C 
ATOM     10  O   UNL     1      -1.082  14.212  24.013  0.00  0.00    +0.000 OA
ATOM     11  C   UNL     1      -2.234  13.382  22.098  0.00  0.00    +0.000 A 
ATOM     12  C   UNL     1      -3.549  13.753  22.288  0.00  0.00    +0.000 A 
ATOM     13  C   UNL     1      -4.474  13.379  21.311  0.00  0.00    +0.000 A 
ATOM     14  C   UNL     1      -4.069  12.643  20.189  0.00  0.00    +0.000 A 
ATOM     15  C   UNL     1      -2.729  12.287  20.019  0.00  0.00    +0.000 A 
ATOM     16  C   UNL     1      -1.818  12.676  20.982  0.00  0.00    +0.000 A 
ENDROOT
BRANCH   4  17
ATOM     17  C   UNL     1       1.298   9.463  19.574  0.00  0.00    +0.000 A 
ATOM     18  C   UNL     1       1.590   8.359  20.395  0.00  0.00    +0.000 A 
ATOM     19  C   UNL     1       2.142   7.182  19.881  0.00  0.00    +0.000 A 
ATOM     20  C   UNL     1       2.402   7.085  18.516  0.00  0.00    +0.000 A 
ATOM     21  C   UNL     1       2.064   8.137  17.662  0.00  0.00    +0.000 A 
ATOM     22  C   UNL     1       1.506   9.306  18.191  0.00  0.00    +0.000 A 
BRANCH  20  23
ATOM     23  N   UNL     1       3.060   5.889  17.982  0.00  0.00    +0.000 N 
ATOM     24  O   UNL     1       4.284   5.943  17.795  0.00  0.00    +0.000 OA
ATOM     25  O   UNL     1       2.350   4.905  17.732  0.00  0.00    +0.000 OA
ENDBRANCH  20  23
ENDBRANCH   4  17
BRANCH   1  26
ATOM     26  C   UNL     1       0.268  14.176  19.333  0.00  0.00    +0.000 C 
BRANCH  26  28
ATOM     27  C   UNL     1      -0.322  16.301  20.547  0.00  0.00    +0.000 C 
ATOM     28  C   UNL     1       0.799  15.405  20.051  0.00  0.00    +0.000 C 
ENDBRANCH  26  28
ENDBRANCH   1  26
TORSDOF 4
ENDMDL
MODEL 9
REMARK VINA RESULT:      -6.6      7.301      9.582
REMARK  Name = 
REMARK  5 active torsions:
REMARK  status: ('A' for Active; 'I' for Inactive)
REMARK    1  A    between atoms: C_1  and  C_2
REMARK    2  A    between atoms: C_2  and  C_3
REMARK    3  A    between atoms: C_3  and  N_4
REMARK    4  A    between atoms: N_7  and  C_8
REMARK    5  A    between atoms: C_11  and  N_12
REMARK                            x       y       z     vdW  Elec       q    Type
REMARK                         _______ _______ _______ _____ _____    ______ ____
ROOT
ATOM      1  N   UNL     1      -0.884  12.746  19.648  0.00  0.00    +0.000 N 
ATOM      2  C   UNL     1      -0.144  13.696  18.967  0.00  0.00    +0.000 C 
ATOM      3  O   UNL     1      -0.362  13.969  17.794  0.00  0.00    +0.000 OA
ATOM      4  N   UNL     1       0.872  14.148  19.784  0.00  0.00    +0.000 N 
ATOM      5  C   UNL     1       0.691  13.644  21.060  0.00  0.00    +0.000 C 
ATOM      6  O   UNL     1       1.356  13.863  22.069  0.00  0.00    +0.000 OA
ATOM      7  C   UNL     1      -0.517  12.696  21.031  0.00  0.00    +0.000 C 
ATOM      8  O   UNL     1      -1.595  13.181  21.828  0.00  0.00    +0.000 OA
ATOM      9  C   UNL     1      -1.920  12.293  22.813  0.00  0.00    +0.000 C 
ATOM     10  O   UNL     1      -2.795  12.425  23.645  0.00  0.00    +0.000 OA
ATOM     11  C   UNL     1      -1.049  11.136  22.658  0.00  0.00    +0.000 A 
ATOM     12  C   UNL     1      -0.998   9.978  23.408  0.00  0.00    +0.000 A 
ATOM     13  C   UNL     1      -0.038   9.025  23.061  0.00  0.00    +0.000 A 
ATOM     14  C   UNL     1       0.844   9.255  21.995  0.00  0.00    +0.000 A 
ATOM     15  C   UNL     1       0.764  10.435  21.250  0.00  0.00    +0.000 A 
ATOM     16  C   UNL     1      -0.199  11.363  21.589  0.00  0.00    +0.000 A 
ENDROOT
BRANCH   4  17
ATOM     17  C   UNL     1       2.054  14.787  19.306  0.00  0.00    +0.000 A 
ATOM     18  C   UNL     1       3.122  14.043  18.770  0.00  0.00    +0.000 A 
ATOM     19  C   UNL     1       4.363  14.626  18.498  0.00  0.00    +0.000 A 
ATOM     20  C   UNL     1       4.554  15.983  18.748  0.00  0.00    +0.000 A 
ATOM     21  C   UNL     1       3.496  16.765  19.217  0.00  0.00    +0.000 A 
ATOM     22  C   UNL     1       2.258  16.169  19.479  0.00  0.00    +0.000 A 
BRANCH  20  23
ATOM     23  N   UNL     1       5.876  16.583  18.547  0.00  0.00    +0.000 N 
ATOM     24  O   UNL     1       6.765  15.864  18.068  0.00  0.00    +0.000 OA
ATOM     25  O   UNL     1       6.030  17.764  18.885  0.00  0.00    +0.000 OA
ENDBRANCH  20  23
ENDBRANCH   4  17
BRANCH   1  26
ATOM     26  C   UNL     1      -1.686  11.751  18.951  0.00  0.00    +0.000 C 
BRANCH  26  28
ATOM     27  C   UNL     1      -1.719   9.990  17.152  0.00  0.00    +0.000 C 
ATOM     28  C   UNL     1      -0.877  10.718  18.185  0.00  0.00    +0.000 C 
ENDBRANCH  26  28
ENDBRANCH   1  26
TORSDOF 4
ENDMDL
