MODEL 1
REMARK VINA RESULT:      -8.2      0.000      0.000
REMARK  Name = 
REMARK  12 active torsions:
REMARK  status: ('A' for Active; 'I' for Inactive)
REMARK    1  A    between atoms: C_1  and  O_2
REMARK    2  A    between atoms: O_2  and  C_3
REMARK    3  A    between atoms: C_5  and  C_6
REMARK    4  A    between atoms: C_6  and  C_7
REMARK    5  A    between atoms: C_11  and  O_12
REMARK    6  A    between atoms: O_12  and  C_13
REMARK    7  A    between atoms: C_13  and  C_14
REMARK    8  A    between atoms: C_14  and  C_15
REMARK    9  A    between atoms: C_15  and  N_16
REMARK   10  A    between atoms: C_19  and  C_20
REMARK   11  A    between atoms: C_20  and  C_21
REMARK   12  A    between atoms: C_20  and  C_28
REMARK                            x       y       z     vdW  Elec       q    Type
REMARK                         _______ _______ _______ _____ _____    ______ ____
ROOT
ATOM      1  N   UNL     1       3.224   4.480  19.037  0.00  0.00    +0.000 NA
ATOM      2  C   UNL     1       4.095   5.642  18.811  0.00  0.00    +0.000 C 
ATOM      3  C   UNL     1       3.951   6.088  17.361  0.00  0.00    +0.000 C 
ATOM      4  C   UNL     1       4.337   4.970  16.370  0.00  0.00    +0.000 C 
ATOM      5  C   UNL     1       3.449   3.758  16.710  0.00  0.00    +0.000 C 
ATOM      6  C   UNL     1       3.575   3.353  18.170  0.00  0.00    +0.000 C 
ENDROOT
BRANCH   1   7
ATOM      7  C   UNL     1       3.199   4.112  20.445  0.00  0.00    +0.000 C 
BRANCH   7   8
ATOM      8  C   UNL     1       1.894   4.513  21.146  0.00  0.00    +0.000 C 
BRANCH   8   9
ATOM      9  C   UNL     1       1.459   5.810  20.506  0.00  0.00    +0.000 C 
BRANCH   9  10
ATOM     10  O   UNL     1       1.947   6.952  21.185  0.00  0.00    +0.000 OA
BRANCH  10  16
ATOM     11  C   UNL     1       0.681   9.119  21.400  0.00  0.00    +0.000 A 
ATOM     12  C   UNL     1       0.319  10.306  20.749  0.00  0.00    +0.000 A 
ATOM     13  C   UNL     1       0.518  10.439  19.380  0.00  0.00    +0.000 A 
ATOM     14  C   UNL     1       1.206   9.444  18.686  0.00  0.00    +0.000 A 
ATOM     15  C   UNL     1       1.699   8.324  19.354  0.00  0.00    +0.000 A 
ATOM     16  C   UNL     1       1.436   8.142  20.715  0.00  0.00    +0.000 A 
BRANCH  13  17
ATOM     17  C   UNL     1      -0.113  11.541  18.611  0.00  0.00    +0.000 C 
ATOM     18  C   UNL     1       0.530  12.903  18.555  0.00  0.00    +0.000 C 
ATOM     19  O   UNL     1      -1.188  11.330  18.054  0.00  0.00    +0.000 OA
ENDBRANCH  13  17
BRANCH  11  21
ATOM     20  C   UNL     1      -0.623   9.943  23.200  0.00  0.00    +0.000 C 
ATOM     21  O   UNL     1       0.267   8.937  22.697  0.00  0.00    +0.000 OA
ENDBRANCH  11  21
ENDBRANCH  10  16
ENDBRANCH   9  10
ENDBRANCH   8   9
ENDBRANCH   7   8
ENDBRANCH   1   7
BRANCH   4  22
ATOM     22  C   UNL     1       5.868   4.600  16.358  0.00  0.00    +0.000 C 
BRANCH  22  23
ATOM     23  C   UNL     1       6.357   4.433  14.913  0.00  0.00    +0.000 A 
ATOM     24  C   UNL     1       7.474   5.150  14.450  0.00  0.00    +0.000 A 
ATOM     25  C   UNL     1       7.848   5.094  13.106  0.00  0.00    +0.000 A 
ATOM     26  C   UNL     1       7.114   4.311  12.226  0.00  0.00    +0.000 A 
ATOM     27  F   UNL     1       7.458   4.278  10.931  0.00  0.00    +0.000 F 
ATOM     28  C   UNL     1       6.022   3.572  12.663  0.00  0.00    +0.000 A 
ATOM     29  C   UNL     1       5.641   3.630  14.006  0.00  0.00    +0.000 A 
ENDBRANCH  22  23
BRANCH  22  30
ATOM     30  C   UNL     1       6.757   5.558  17.149  0.00  0.00    +0.000 A 
ATOM     31  C   UNL     1       7.420   5.133  18.297  0.00  0.00    +0.000 A 
ATOM     32  C   UNL     1       8.134   6.053  19.057  0.00  0.00    +0.000 A 
ATOM     33  C   UNL     1       8.213   7.378  18.628  0.00  0.00    +0.000 A 
ATOM     34  C   UNL     1       7.586   7.706  17.440  0.00  0.00    +0.000 A 
ATOM     35  N   UNL     1       6.872   6.845  16.694  0.00  0.00    +0.000 NA
ENDBRANCH  22  30
ENDBRANCH   4  22
TORSDOF 10
ENDMDL
MODEL 2
REMARK VINA RESULT:      -8.2      0.578      1.084
REMARK  Name = 
REMARK  12 active torsions:
REMARK  status: ('A' for Active; 'I' for Inactive)
REMARK    1  A    between atoms: C_1  and  O_2
REMARK    2  A    between atoms: O_2  and  C_3
REMARK    3  A    between atoms: C_5  and  C_6
REMARK    4  A    between atoms: C_6  and  C_7
REMARK    5  A    between atoms: C_11  and  O_12
REMARK    6  A    between atoms: O_12  and  C_13
REMARK    7  A    between atoms: C_13  and  C_14
REMARK    8  A    between atoms: C_14  and  C_15
REMARK    9  A    between atoms: C_15  and  N_16
REMARK   10  A    between atoms: C_19  and  C_20
REMARK   11  A    between atoms: C_20  and  C_21
REMARK   12  A    between atoms: C_20  and  C_28
REMARK                            x       y       z     vdW  Elec       q    Type
REMARK                         _______ _______ _______ _____ _____    ______ ____
ROOT
ATOM      1  N   UNL     1       3.258   4.691  19.083  0.00  0.00    +0.000 NA
ATOM      2  C   UNL     1       4.123   5.840  18.781  0.00  0.00    +0.000 C 
ATOM      3  C   UNL     1       3.916   6.239  17.325  0.00  0.00    +0.000 C 
ATOM      4  C   UNL     1       4.254   5.088  16.355  0.00  0.00    +0.000 C 
ATOM      5  C   UNL     1       3.376   3.892  16.773  0.00  0.00    +0.000 C 
ATOM      6  C   UNL     1       3.565   3.535  18.239  0.00  0.00    +0.000 C 
ENDROOT
BRANCH   1   7
ATOM      7  C   UNL     1       3.294   4.369  20.502  0.00  0.00    +0.000 C 
BRANCH   7   8
ATOM      8  C   UNL     1       2.008   4.765  21.239  0.00  0.00    +0.000 C 
BRANCH   8   9
ATOM      9  C   UNL     1       1.453   5.959  20.498  0.00  0.00    +0.000 C 
BRANCH   9  10
ATOM     10  O   UNL     1       1.790   7.192  21.106  0.00  0.00    +0.000 OA
BRANCH  10  16
ATOM     11  C   UNL     1       0.082   9.043  21.151  0.00  0.00    +0.000 A 
ATOM     12  C   UNL     1      -0.415  10.163  20.470  0.00  0.00    +0.000 A 
ATOM     13  C   UNL     1      -0.038  10.401  19.153  0.00  0.00    +0.000 A 
ATOM     14  C   UNL     1       0.940   9.602  18.562  0.00  0.00    +0.000 A 
ATOM     15  C   UNL     1       1.546   8.574  19.282  0.00  0.00    +0.000 A 
ATOM     16  C   UNL     1       1.121   8.274  20.580  0.00  0.00    +0.000 A 
BRANCH  13  17
ATOM     17  C   UNL     1      -0.759  11.389  18.311  0.00  0.00    +0.000 C 
ATOM     18  C   UNL     1      -1.927  10.962  17.459  0.00  0.00    +0.000 C 
ATOM     19  O   UNL     1      -0.361  12.551  18.295  0.00  0.00    +0.000 OA
ENDBRANCH  13  17
BRANCH  11  21
ATOM     20  C   UNL     1      -0.023   9.496  23.475  0.00  0.00    +0.000 C 
ATOM     21  O   UNL     1      -0.479   8.717  22.361  0.00  0.00    +0.000 OA
ENDBRANCH  11  21
ENDBRANCH  10  16
ENDBRANCH   9  10
ENDBRANCH   8   9
ENDBRANCH   7   8
ENDBRANCH   1   7
BRANCH   4  22
ATOM     22  C   UNL     1       5.781   4.709  16.287  0.00  0.00    +0.000 C 
BRANCH  22  23
ATOM     23  C   UNL     1       6.225   4.577  14.824  0.00  0.00    +0.000 A 
ATOM     24  C   UNL     1       5.530   3.734  13.940  0.00  0.00    +0.000 A 
ATOM     25  C   UNL     1       6.002   3.517  12.645  0.00  0.00    +0.000 A 
ATOM     26  C   UNL     1       7.163   4.154  12.226  0.00  0.00    +0.000 A 
ATOM     27  F   UNL     1       7.630   3.924  10.991  0.00  0.00    +0.000 F 
ATOM     28  C   UNL     1       7.855   5.012  13.071  0.00  0.00    +0.000 A 
ATOM     29  C   UNL     1       7.388   5.227  14.371  0.00  0.00    +0.000 A 
ENDBRANCH  22  23
BRANCH  22  30
ATOM     30  C   UNL     1       6.699   5.639  17.076  0.00  0.00    +0.000 A 
ATOM     31  C   UNL     1       7.367   5.188  18.211  0.00  0.00    +0.000 A 
ATOM     32  C   UNL     1       8.110   6.085  18.971  0.00  0.00    +0.000 A 
ATOM     33  C   UNL     1       8.212   7.413  18.554  0.00  0.00    +0.000 A 
ATOM     34  C   UNL     1       7.577   7.766  17.378  0.00  0.00    +0.000 A 
ATOM     35  N   UNL     1       6.835   6.929  16.633  0.00  0.00    +0.000 NA
ENDBRANCH  22  30
ENDBRANCH   4  22
TORSDOF 10
ENDMDL
MODEL 3
REMARK VINA RESULT:      -8.2      2.236      4.335
REMARK  Name = 
REMARK  12 active torsions:
REMARK  status: ('A' for Active; 'I' for Inactive)
REMARK    1  A    between atoms: C_1  and  O_2
REMARK    2  A    between atoms: O_2  and  C_3
REMARK    3  A    between atoms: C_5  and  C_6
REMARK    4  A    between atoms: C_6  and  C_7
REMARK    5  A    between atoms: C_11  and  O_12
REMARK    6  A    between atoms: O_12  and  C_13
REMARK    7  A    between atoms: C_13  and  C_14
REMARK    8  A    between atoms: C_14  and  C_15
REMARK    9  A    between atoms: C_15  and  N_16
REMARK   10  A    between atoms: C_19  and  C_20
REMARK   11  A    between atoms: C_20  and  C_21
REMARK   12  A    between atoms: C_20  and  C_28
REMARK                            x       y       z     vdW  Elec       q    Type
REMARK                         _______ _______ _______ _____ _____    ______ ____
ROOT
ATOM      1  N   UNL     1       2.884   4.726  19.168  0.00  0.00    +0.000 NA
ATOM      2  C   UNL     1       2.545   4.579  17.746  0.00  0.00    +0.000 C 
ATOM      3  C   UNL     1       3.473   3.543  17.125  0.00  0.00    +0.000 C 
ATOM      4  C   UNL     1       4.957   3.947  17.248  0.00  0.00    +0.000 C 
ATOM      5  C   UNL     1       5.229   4.165  18.749  0.00  0.00    +0.000 C 
ATOM      6  C   UNL     1       4.266   5.171  19.360  0.00  0.00    +0.000 C 
ENDROOT
BRANCH   1   7
ATOM      7  C   UNL     1       1.925   5.584  19.848  0.00  0.00    +0.000 C 
BRANCH   7   8
ATOM      8  C   UNL     1       2.163   7.076  19.585  0.00  0.00    +0.000 C 
BRANCH   8   9
ATOM      9  C   UNL     1       1.763   7.793  20.852  0.00  0.00    +0.000 C 
BRANCH   9  10
ATOM     10  O   UNL     1       0.361   7.847  21.038  0.00  0.00    +0.000 OA
BRANCH  10  16
ATOM     11  C   UNL     1      -0.276  10.230  20.525  0.00  0.00    +0.000 A 
ATOM     12  C   UNL     1      -0.850  11.400  21.039  0.00  0.00    +0.000 A 
ATOM     13  C   UNL     1      -1.069  11.527  22.406  0.00  0.00    +0.000 A 
ATOM     14  C   UNL     1      -0.845  10.434  23.243  0.00  0.00    +0.000 A 
ATOM     15  C   UNL     1      -0.410   9.217  22.719  0.00  0.00    +0.000 A 
ATOM     16  C   UNL     1      -0.111   9.101  21.358  0.00  0.00    +0.000 A 
BRANCH  13  17
ATOM     17  C   UNL     1      -1.391  12.841  23.018  0.00  0.00    +0.000 C 
ATOM     18  C   UNL     1      -2.791  13.145  23.489  0.00  0.00    +0.000 C 
ATOM     19  O   UNL     1      -0.504  13.687  23.097  0.00  0.00    +0.000 OA
ENDBRANCH  13  17
BRANCH  11  21
ATOM     20  C   UNL     1      -0.895  10.530  18.257  0.00  0.00    +0.000 C 
ATOM     21  O   UNL     1       0.130  10.228  19.213  0.00  0.00    +0.000 OA
ENDBRANCH  11  21
ENDBRANCH  10  16
ENDBRANCH   9  10
ENDBRANCH   8   9
ENDBRANCH   7   8
ENDBRANCH   1   7
BRANCH   4  22
ATOM     22  C   UNL     1       5.374   5.195  16.382  0.00  0.00    +0.000 C 
BRANCH  22  23
ATOM     23  C   UNL     1       6.322   6.098  17.182  0.00  0.00    +0.000 A 
ATOM     24  C   UNL     1       6.258   7.496  17.049  0.00  0.00    +0.000 A 
ATOM     25  C   UNL     1       7.197   8.314  17.680  0.00  0.00    +0.000 A 
ATOM     26  C   UNL     1       8.192   7.737  18.457  0.00  0.00    +0.000 A 
ATOM     27  F   UNL     1       9.108   8.522  19.041  0.00  0.00    +0.000 F 
ATOM     28  C   UNL     1       8.262   6.361  18.626  0.00  0.00    +0.000 A 
ATOM     29  C   UNL     1       7.328   5.538  17.991  0.00  0.00    +0.000 A 
ENDBRANCH  22  23
BRANCH  22  30
ATOM     30  C   UNL     1       5.947   4.849  15.009  0.00  0.00    +0.000 A 
ATOM     31  C   UNL     1       5.259   4.007  14.140  0.00  0.00    +0.000 A 
ATOM     32  C   UNL     1       5.853   3.623  12.943  0.00  0.00    +0.000 A 
ATOM     33  C   UNL     1       7.111   4.129  12.612  0.00  0.00    +0.000 A 
ATOM     34  C   UNL     1       7.698   5.015  13.495  0.00  0.00    +0.000 A 
ATOM     35  N   UNL     1       7.159   5.390  14.668  0.00  0.00    +0.000 NA
ENDBRANCH  22  30
ENDBRANCH   4  22
TORSDOF 10
ENDMDL
MODEL 4
REMARK VINA RESULT:      -8.1      5.067      8.461
REMARK  Name = 
REMARK  12 active torsions:
REMARK  status: ('A' for Active; 'I' for Inactive)
REMARK    1  A    between atoms: C_1  and  O_2
REMARK    2  A    between atoms: O_2  and  C_3
REMARK    3  A    between atoms: C_5  and  C_6
REMARK    4  A    between atoms: C_6  and  C_7
REMARK    5  A    between atoms: C_11  and  O_12
REMARK    6  A    between atoms: O_12  and  C_13
REMARK    7  A    between atoms: C_13  and  C_14
REMARK    8  A    between atoms: C_14  and  C_15
REMARK    9  A    between atoms: C_15  and  N_16
REMARK   10  A    between atoms: C_19  and  C_20
REMARK   11  A    between atoms: C_20  and  C_21
REMARK   12  A    between atoms: C_20  and  C_28
REMARK                            x       y       z     vdW  Elec       q    Type
REMARK                         _______ _______ _______ _____ _____    ______ ____
ROOT
ATOM      1  N   UNL     1       6.687   6.644  17.711  0.00  0.00    +0.000 NA
ATOM      2  C   UNL     1       6.334   5.427  18.456  0.00  0.00    +0.000 C 
ATOM      3  C   UNL     1       5.137   4.769  17.780  0.00  0.00    +0.000 C 
ATOM      4  C   UNL     1       3.910   5.704  17.735  0.00  0.00    +0.000 C 
ATOM      5  C   UNL     1       4.366   6.989  17.016  0.00  0.00    +0.000 C 
ATOM      6  C   UNL     1       5.586   7.609  17.681  0.00  0.00    +0.000 C 
ENDROOT
BRANCH   1   7
ATOM      7  C   UNL     1       7.921   7.225  18.217  0.00  0.00    +0.000 C 
BRANCH   7   8
ATOM      8  C   UNL     1       8.322   8.512  17.483  0.00  0.00    +0.000 C 
BRANCH   8   9
ATOM      9  C   UNL     1       8.344   9.600  18.531  0.00  0.00    +0.000 C 
BRANCH   9  10
ATOM     10  O   UNL     1       9.618   9.771  19.123  0.00  0.00    +0.000 OA
BRANCH  10  16
ATOM     11  C   UNL     1      10.280  11.955  20.189  0.00  0.00    +0.000 A 
ATOM     12  C   UNL     1      10.823  13.226  19.960  0.00  0.00    +0.000 A 
ATOM     13  C   UNL     1      10.966  13.698  18.660  0.00  0.00    +0.000 A 
ATOM     14  C   UNL     1      10.697  12.850  17.587  0.00  0.00    +0.000 A 
ATOM     15  C   UNL     1      10.294  11.534  17.807  0.00  0.00    +0.000 A 
ATOM     16  C   UNL     1      10.071  11.072  19.107  0.00  0.00    +0.000 A 
BRANCH  13  17
ATOM     17  C   UNL     1      11.253  15.129  18.386  0.00  0.00    +0.000 C 
ATOM     18  C   UNL     1      11.979  15.538  17.130  0.00  0.00    +0.000 C 
ATOM     19  O   UNL     1      10.919  15.967  19.221  0.00  0.00    +0.000 OA
ENDBRANCH  13  17
BRANCH  11  21
ATOM     20  C   UNL     1       8.572  11.826  21.829  0.00  0.00    +0.000 C 
ATOM     21  O   UNL     1       9.947  11.614  21.478  0.00  0.00    +0.000 OA
ENDBRANCH  11  21
ENDBRANCH  10  16
ENDBRANCH   9  10
ENDBRANCH   8   9
ENDBRANCH   7   8
ENDBRANCH   1   7
BRANCH   4  22
ATOM     22  C   UNL     1       3.260   6.006  19.137  0.00  0.00    +0.000 C 
BRANCH  22  23
ATOM     23  C   UNL     1       2.358   7.244  19.043  0.00  0.00    +0.000 A 
ATOM     24  C   UNL     1       2.095   7.843  17.799  0.00  0.00    +0.000 A 
ATOM     25  C   UNL     1       1.378   9.038  17.721  0.00  0.00    +0.000 A 
ATOM     26  C   UNL     1       0.910   9.629  18.886  0.00  0.00    +0.000 A 
ATOM     27  F   UNL     1       0.244  10.790  18.814  0.00  0.00    +0.000 F 
ATOM     28  C   UNL     1       1.134   9.045  20.127  0.00  0.00    +0.000 A 
ATOM     29  C   UNL     1       1.857   7.852  20.209  0.00  0.00    +0.000 A 
ENDBRANCH  22  23
BRANCH  22  30
ATOM     30  C   UNL     1       2.529   4.820  19.764  0.00  0.00    +0.000 A 
ATOM     31  C   UNL     1       1.571   4.112  19.045  0.00  0.00    +0.000 A 
ATOM     32  C   UNL     1       0.845   3.107  19.676  0.00  0.00    +0.000 A 
ATOM     33  C   UNL     1       1.125   2.794  21.007  0.00  0.00    +0.000 A 
ATOM     34  C   UNL     1       2.141   3.496  21.629  0.00  0.00    +0.000 A 
ATOM     35  N   UNL     1       2.846   4.485  21.054  0.00  0.00    +0.000 NA
ENDBRANCH  22  30
ENDBRANCH   4  22
TORSDOF 10
ENDMDL
MODEL 5
REMARK VINA RESULT:      -8.1      6.646     10.232
REMARK  Name = 
REMARK  12 active torsions:
REMARK  status: ('A' for Active; 'I' for Inactive)
REMARK    1  A    between atoms: C_1  and  O_2
REMARK    2  A    between atoms: O_2  and  C_3
REMARK    3  A    between atoms: C_5  and  C_6
REMARK    4  A    between atoms: C_6  and  C_7
REMARK    5  A    between atoms: C_11  and  O_12
REMARK    6  A    between atoms: O_12  and  C_13
REMARK    7  A    between atoms: C_13  and  C_14
REMARK    8  A    between atoms: C_14  and  C_15
REMARK    9  A    between atoms: C_15  and  N_16
REMARK   10  A    between atoms: C_19  and  C_20
REMARK   11  A    between atoms: C_20  and  C_21
REMARK   12  A    between atoms: C_20  and  C_28
REMARK                            x       y       z     vdW  Elec       q    Type
REMARK                         _______ _______ _______ _____ _____    ______ ____
ROOT
ATOM      1  N   UNL     1       9.437  10.214  18.801  0.00  0.00    +0.000 NA
ATOM      2  C   UNL     1       9.988  11.139  17.801  0.00  0.00    +0.000 C 
ATOM      3  C   UNL     1      11.174  11.873  18.416  0.00  0.00    +0.000 C 
ATOM      4  C   UNL     1      10.772  12.674  19.672  0.00  0.00    +0.000 C 
ATOM      5  C   UNL     1      10.129  11.667  20.645  0.00  0.00    +0.000 C 
ATOM      6  C   UNL     1       8.974  10.914  20.001  0.00  0.00    +0.000 C 
ENDROOT
BRANCH   1   7
ATOM      7  C   UNL     1       8.405   9.370  18.218  0.00  0.00    +0.000 C 
BRANCH   7   8
ATOM      8  C   UNL     1       8.578   7.885  18.566  0.00  0.00    +0.000 C 
BRANCH   8   9
ATOM      9  C   UNL     1       7.495   7.151  17.812  0.00  0.00    +0.000 C 
BRANCH   9  10
ATOM     10  O   UNL     1       7.488   5.760  18.069  0.00  0.00    +0.000 OA
BRANCH  10  16
ATOM     11  C   UNL     1       5.690   4.416  16.924  0.00  0.00    +0.000 A 
ATOM     12  C   UNL     1       4.416   3.850  17.064  0.00  0.00    +0.000 A 
ATOM     13  C   UNL     1       3.611   4.204  18.140  0.00  0.00    +0.000 A 
ATOM     14  C   UNL     1       4.129   5.014  19.150  0.00  0.00    +0.000 A 
ATOM     15  C   UNL     1       5.447   5.464  19.092  0.00  0.00    +0.000 A 
ATOM     16  C   UNL     1       6.241   5.181  17.976  0.00  0.00    +0.000 A 
BRANCH  13  17
ATOM     17  C   UNL     1       2.165   3.865  18.167  0.00  0.00    +0.000 C 
ATOM     18  C   UNL     1       1.504   3.429  19.450  0.00  0.00    +0.000 C 
ATOM     19  O   UNL     1       1.530   3.912  17.116  0.00  0.00    +0.000 OA
ENDBRANCH  13  17
BRANCH  11  21
ATOM     20  C   UNL     1       5.568   4.365  14.557  0.00  0.00    +0.000 C 
ATOM     21  O   UNL     1       6.363   4.220  15.742  0.00  0.00    +0.000 OA
ENDBRANCH  11  21
ENDBRANCH  10  16
ENDBRANCH   9  10
ENDBRANCH   8   9
ENDBRANCH   7   8
ENDBRANCH   1   7
BRANCH   4  22
ATOM     22  C   UNL     1       9.838  13.911  19.394  0.00  0.00    +0.000 C 
BRANCH  22  23
ATOM     23  C   UNL     1       9.132  14.339  20.688  0.00  0.00    +0.000 A 
ATOM     24  C   UNL     1       9.846  14.427  21.895  0.00  0.00    +0.000 A 
ATOM     25  C   UNL     1       9.186  14.695  23.095  0.00  0.00    +0.000 A 
ATOM     26  C   UNL     1       7.812  14.890  23.088  0.00  0.00    +0.000 A 
ATOM     27  F   UNL     1       7.174  15.123  24.244  0.00  0.00    +0.000 F 
ATOM     28  C   UNL     1       7.085  14.835  21.905  0.00  0.00    +0.000 A 
ATOM     29  C   UNL     1       7.743  14.560  20.703  0.00  0.00    +0.000 A 
ENDBRANCH  22  23
BRANCH  22  30
ATOM     30  C   UNL     1      10.534  15.088  18.713  0.00  0.00    +0.000 A 
ATOM     31  C   UNL     1      11.766  15.549  19.167  0.00  0.00    +0.000 A 
ATOM     32  C   UNL     1      12.324  16.689  18.598  0.00  0.00    +0.000 A 
ATOM     33  C   UNL     1      11.660  17.323  17.548  0.00  0.00    +0.000 A 
ATOM     34  C   UNL     1      10.476  16.763  17.107  0.00  0.00    +0.000 A 
ATOM     35  N   UNL     1       9.900  15.675  17.649  0.00  0.00    +0.000 NA
ENDBRANCH  22  30
ENDBRANCH   4  22
TORSDOF 10
ENDMDL
MODEL 6
REMARK VINA RESULT:      -8.1      5.089     11.049
REMARK  Name = 
REMARK  12 active torsions:
REMARK  status: ('A' for Active; 'I' for Inactive)
REMARK    1  A    between atoms: C_1  and  O_2
REMARK    2  A    between atoms: O_2  and  C_3
REMARK    3  A    between atoms: C_5  and  C_6
REMARK    4  A    between atoms: C_6  and  C_7
REMARK    5  A    between atoms: C_11  and  O_12
REMARK    6  A    between atoms: O_12  and  C_13
REMARK    7  A    between atoms: C_13  and  C_14
REMARK    8  A    between atoms: C_14  and  C_15
REMARK    9  A    between atoms: C_15  and  N_16
REMARK   10  A    between atoms: C_19  and  C_20
REMARK   11  A    between atoms: C_20  and  C_21
REMARK   12  A    between atoms: C_20  and  C_28
REMARK                            x       y       z     vdW  Elec       q    Type
REMARK                         _______ _______ _______ _____ _____    ______ ____
ROOT
ATOM      1  N   UNL     1       1.088  10.229  19.240  0.00  0.00    +0.000 NA
ATOM      2  C   UNL     1       1.396  11.665  19.290  0.00  0.00    +0.000 C 
ATOM      3  C   UNL     1       1.313  12.134  20.738  0.00  0.00    +0.000 C 
ATOM      4  C   UNL     1      -0.087  11.899  21.343  0.00  0.00    +0.000 C 
ATOM      5  C   UNL     1      -0.384  10.395  21.188  0.00  0.00    +0.000 C 
ATOM      6  C   UNL     1      -0.256   9.938  19.743  0.00  0.00    +0.000 C 
ENDROOT
BRANCH   1   7
ATOM      7  C   UNL     1       1.310   9.694  17.906  0.00  0.00    +0.000 C 
BRANCH   7   8
ATOM      8  C   UNL     1       1.416   8.163  17.884  0.00  0.00    +0.000 C 
BRANCH   8   9
ATOM      9  C   UNL     1       2.707   7.825  18.592  0.00  0.00    +0.000 C 
BRANCH   9  10
ATOM     10  O   UNL     1       2.914   6.432  18.727  0.00  0.00    +0.000 OA
BRANCH  10  16
ATOM     11  C   UNL     1       3.902   4.527  17.407  0.00  0.00    +0.000 A 
ATOM     12  C   UNL     1       4.696   4.185  16.304  0.00  0.00    +0.000 A 
ATOM     13  C   UNL     1       5.451   5.159  15.661  0.00  0.00    +0.000 A 
ATOM     14  C   UNL     1       5.307   6.496  16.030  0.00  0.00    +0.000 A 
ATOM     15  C   UNL     1       4.409   6.863  17.031  0.00  0.00    +0.000 A 
ATOM     16  C   UNL     1       3.703   5.885  17.739  0.00  0.00    +0.000 A 
BRANCH  13  17
ATOM     17  C   UNL     1       6.519   4.795  14.695  0.00  0.00    +0.000 C 
ATOM     18  C   UNL     1       6.234   3.843  13.561  0.00  0.00    +0.000 C 
ATOM     19  O   UNL     1       7.645   5.256  14.861  0.00  0.00    +0.000 OA
ENDBRANCH  13  17
BRANCH  11  21
ATOM     20  C   UNL     1       1.955   3.275  17.918  0.00  0.00    +0.000 C 
ATOM     21  O   UNL     1       3.351   3.511  18.150  0.00  0.00    +0.000 OA
ENDBRANCH  11  21
ENDBRANCH  10  16
ENDBRANCH   9  10
ENDBRANCH   8   9
ENDBRANCH   7   8
ENDBRANCH   1   7
BRANCH   4  22
ATOM     22  C   UNL     1      -1.228  12.796  20.733  0.00  0.00    +0.000 C 
BRANCH  22  23
ATOM     23  C   UNL     1      -2.486  12.717  21.609  0.00  0.00    +0.000 A 
ATOM     24  C   UNL     1      -3.757  12.949  21.057  0.00  0.00    +0.000 A 
ATOM     25  C   UNL     1      -4.889  12.998  21.871  0.00  0.00    +0.000 A 
ATOM     26  C   UNL     1      -4.754  12.801  23.239  0.00  0.00    +0.000 A 
ATOM     27  F   UNL     1      -5.838  12.875  24.024  0.00  0.00    +0.000 F 
ATOM     28  C   UNL     1      -3.513  12.545  23.807  0.00  0.00    +0.000 A 
ATOM     29  C   UNL     1      -2.377  12.501  22.995  0.00  0.00    +0.000 A 
ENDBRANCH  22  23
BRANCH  22  30
ATOM     30  C   UNL     1      -0.819  14.242  20.460  0.00  0.00    +0.000 A 
ATOM     31  C   UNL     1      -0.716  14.721  19.158  0.00  0.00    +0.000 A 
ATOM     32  C   UNL     1      -0.236  16.008  18.936  0.00  0.00    +0.000 A 
ATOM     33  C   UNL     1       0.088  16.814  20.029  0.00  0.00    +0.000 A 
ATOM     34  C   UNL     1      -0.110  16.290  21.292  0.00  0.00    +0.000 A 
ATOM     35  N   UNL     1      -0.552  15.044  21.539  0.00  0.00    +0.000 NA
ENDBRANCH  22  30
ENDBRANCH   4  22
TORSDOF 10
ENDMDL
MODEL 7
REMARK VINA RESULT:      -8.0      5.037     11.010
REMARK  Name = 
REMARK  12 active torsions:
REMARK  status: ('A' for Active; 'I' for Inactive)
REMARK    1  A    between atoms: C_1  and  O_2
REMARK    2  A    between atoms: O_2  and  C_3
REMARK    3  A    between atoms: C_5  and  C_6
REMARK    4  A    between atoms: C_6  and  C_7
REMARK    5  A    between atoms: C_11  and  O_12
REMARK    6  A    between atoms: O_12  and  C_13
REMARK    7  A    between atoms: C_13  and  C_14
REMARK    8  A    between atoms: C_14  and  C_15
REMARK    9  A    between atoms: C_15  and  N_16
REMARK   10  A    between atoms: C_19  and  C_20
REMARK   11  A    between atoms: C_20  and  C_21
REMARK   12  A    between atoms: C_20  and  C_28
REMARK                            x       y       z     vdW  Elec       q    Type
REMARK                         _______ _______ _______ _____ _____    ______ ____
ROOT
ATOM      1  N   UNL     1       1.058  10.276  19.217  0.00  0.00    +0.000 NA
ATOM      2  C   UNL     1       1.408  11.703  19.266  0.00  0.00    +0.000 C 
ATOM      3  C   UNL     1       1.339  12.174  20.714  0.00  0.00    +0.000 C 
ATOM      4  C   UNL     1      -0.067  11.981  21.320  0.00  0.00    +0.000 C 
ATOM      5  C   UNL     1      -0.409  10.487  21.165  0.00  0.00    +0.000 C 
ATOM      6  C   UNL     1      -0.294  10.025  19.720  0.00  0.00    +0.000 C 
ENDROOT
BRANCH   1   7
ATOM      7  C   UNL     1       1.264   9.734  17.882  0.00  0.00    +0.000 C 
BRANCH   7   8
ATOM      8  C   UNL     1       1.378   8.204  17.868  0.00  0.00    +0.000 C 
BRANCH   8   9
ATOM      9  C   UNL     1       2.643   7.873  18.624  0.00  0.00    +0.000 C 
BRANCH   9  10
ATOM     10  O   UNL     1       2.824   6.484  18.819  0.00  0.00    +0.000 OA
BRANCH  10  16
ATOM     11  C   UNL     1       3.828   4.511  17.616  0.00  0.00    +0.000 A 
ATOM     12  C   UNL     1       4.630   4.110  16.539  0.00  0.00    +0.000 A 
ATOM     13  C   UNL     1       5.386   5.049  15.846  0.00  0.00    +0.000 A 
ATOM     14  C   UNL     1       5.234   6.405  16.137  0.00  0.00    +0.000 A 
ATOM     15  C   UNL     1       4.328   6.824  17.110  0.00  0.00    +0.000 A 
ATOM     16  C   UNL     1       3.620   5.885  17.868  0.00  0.00    +0.000 A 
BRANCH  13  17
ATOM     17  C   UNL     1       6.461   4.635  14.909  0.00  0.00    +0.000 C 
ATOM     18  C   UNL     1       6.126   3.902  13.635  0.00  0.00    +0.000 C 
ATOM     19  O   UNL     1       7.628   4.870  15.212  0.00  0.00    +0.000 OA
ENDBRANCH  13  17
BRANCH  11  21
ATOM     20  C   UNL     1       4.095   3.110  19.509  0.00  0.00    +0.000 C 
ATOM     21  O   UNL     1       3.275   3.537  18.412  0.00  0.00    +0.000 OA
ENDBRANCH  11  21
ENDBRANCH  10  16
ENDBRANCH   9  10
ENDBRANCH   8   9
ENDBRANCH   7   8
ENDBRANCH   1   7
BRANCH   4  22
ATOM     22  C   UNL     1      -1.181  12.912  20.709  0.00  0.00    +0.000 C 
BRANCH  22  23
ATOM     23  C   UNL     1      -2.415  12.922  21.620  0.00  0.00    +0.000 A 
ATOM     24  C   UNL     1      -2.299  12.597  22.983  0.00  0.00    +0.000 A 
ATOM     25  C   UNL     1      -3.434  12.486  23.787  0.00  0.00    +0.000 A 
ATOM     26  C   UNL     1      -4.687  12.714  23.234  0.00  0.00    +0.000 A 
ATOM     27  F   UNL     1      -5.778  12.582  24.000  0.00  0.00    +0.000 F 
ATOM     28  C   UNL     1      -4.828  13.062  21.897  0.00  0.00    +0.000 A 
ATOM     29  C   UNL     1      -3.694  13.168  21.087  0.00  0.00    +0.000 A 
ENDBRANCH  22  23
BRANCH  22  30
ATOM     30  C   UNL     1      -0.710  14.326  20.376  0.00  0.00    +0.000 A 
ATOM     31  C   UNL     1      -0.446  15.247  21.386  0.00  0.00    +0.000 A 
ATOM     32  C   UNL     1      -0.125  16.558  21.052  0.00  0.00    +0.000 A 
ATOM     33  C   UNL     1      -0.026  16.915  19.706  0.00  0.00    +0.000 A 
ATOM     34  C   UNL     1      -0.234  15.926  18.764  0.00  0.00    +0.000 A 
ATOM     35  N   UNL     1      -0.566  14.656  19.054  0.00  0.00    +0.000 NA
ENDBRANCH  22  30
ENDBRANCH   4  22
TORSDOF 10
ENDMDL
MODEL 8
REMARK VINA RESULT:      -8.0      6.986     10.784
REMARK  Name = 
REMARK  12 active torsions:
REMARK  status: ('A' for Active; 'I' for Inactive)
REMARK    1  A    between atoms: C_1  and  O_2
REMARK    2  A    between atoms: O_2  and  C_3
REMARK    3  A    between atoms: C_5  and  C_6
REMARK    4  A    between atoms: C_6  and  C_7
REMARK    5  A    between atoms: C_11  and  O_12
REMARK    6  A    between atoms: O_12  and  C_13
REMARK    7  A    between atoms: C_13  and  C_14
REMARK    8  A    between atoms: C_14  and  C_15
REMARK    9  A    between atoms: C_15  and  N_16
REMARK   10  A    between atoms: C_19  and  C_20
REMARK   11  A    between atoms: C_20  and  C_21
REMARK   12  A    between atoms: C_20  and  C_28
REMARK                            x       y       z     vdW  Elec       q    Type
REMARK                         _______ _______ _______ _____ _____    ______ ____
ROOT
ATOM      1  N   UNL     1       9.528  10.471  18.779  0.00  0.00    +0.000 NA
ATOM      2  C   UNL     1      10.078  11.445  17.827  0.00  0.00    +0.000 C 
ATOM      3  C   UNL     1      11.289  12.120  18.461  0.00  0.00    +0.000 C 
ATOM      4  C   UNL     1      10.926  12.848  19.772  0.00  0.00    +0.000 C 
ATOM      5  C   UNL     1      10.283  11.795  20.694  0.00  0.00    +0.000 C 
ATOM      6  C   UNL     1       9.102  11.103  20.029  0.00  0.00    +0.000 C 
ENDROOT
BRANCH   1   7
ATOM      7  C   UNL     1       8.469   9.682  18.166  0.00  0.00    +0.000 C 
BRANCH   7   8
ATOM      8  C   UNL     1       8.544   8.193  18.530  0.00  0.00    +0.000 C 
BRANCH   8   9
ATOM      9  C   UNL     1       7.509   7.502  17.675  0.00  0.00    +0.000 C 
BRANCH   9  10
ATOM     10  O   UNL     1       7.864   6.174  17.341  0.00  0.00    +0.000 OA
BRANCH  10  16
ATOM     11  C   UNL     1       6.350   4.519  16.195  0.00  0.00    +0.000 A 
ATOM     12  C   UNL     1       5.272   3.640  16.366  0.00  0.00    +0.000 A 
ATOM     13  C   UNL     1       4.509   3.690  17.527  0.00  0.00    +0.000 A 
ATOM     14  C   UNL     1       4.907   4.519  18.576  0.00  0.00    +0.000 A 
ATOM     15  C   UNL     1       6.063   5.291  18.470  0.00  0.00    +0.000 A 
ATOM     16  C   UNL     1       6.794   5.309  17.278  0.00  0.00    +0.000 A 
BRANCH  13  17
ATOM     17  C   UNL     1       3.200   2.996  17.622  0.00  0.00    +0.000 C 
ATOM     18  C   UNL     1       3.026   1.808  18.533  0.00  0.00    +0.000 C 
ATOM     19  O   UNL     1       2.274   3.388  16.915  0.00  0.00    +0.000 OA
ENDBRANCH  13  17
BRANCH  11  21
ATOM     20  C   UNL     1       6.202   3.967  13.894  0.00  0.00    +0.000 C 
ATOM     21  O   UNL     1       6.935   4.595  14.954  0.00  0.00    +0.000 OA
ENDBRANCH  11  21
ENDBRANCH  10  16
ENDBRANCH   9  10
ENDBRANCH   8   9
ENDBRANCH   7   8
ENDBRANCH   1   7
BRANCH   4  22
ATOM     22  C   UNL     1      10.010  14.117  19.589  0.00  0.00    +0.000 C 
BRANCH  22  23
ATOM     23  C   UNL     1       9.471  14.576  20.951  0.00  0.00    +0.000 A 
ATOM     24  C   UNL     1       8.089  14.595  21.202  0.00  0.00    +0.000 A 
ATOM     25  C   UNL     1       7.588  15.126  22.392  0.00  0.00    +0.000 A 
ATOM     26  C   UNL     1       8.471  15.628  23.339  0.00  0.00    +0.000 A 
ATOM     27  F   UNL     1       7.989  16.161  24.469  0.00  0.00    +0.000 F 
ATOM     28  C   UNL     1       9.843  15.599  23.127  0.00  0.00    +0.000 A 
ATOM     29  C   UNL     1      10.347  15.073  21.934  0.00  0.00    +0.000 A 
ENDBRANCH  22  23
BRANCH  22  30
ATOM     30  C   UNL     1      10.664  15.264  18.822  0.00  0.00    +0.000 A 
ATOM     31  C   UNL     1      11.681  15.021  17.904  0.00  0.00    +0.000 A 
ATOM     32  C   UNL     1      12.332  16.092  17.301  0.00  0.00    +0.000 A 
ATOM     33  C   UNL     1      11.920  17.393  17.593  0.00  0.00    +0.000 A 
ATOM     34  C   UNL     1      10.856  17.549  18.461  0.00  0.00    +0.000 A 
ATOM     35  N   UNL     1      10.220  16.536  19.075  0.00  0.00    +0.000 NA
ENDBRANCH  22  30
ENDBRANCH   4  22
TORSDOF 10
ENDMDL
MODEL 9
REMARK VINA RESULT:      -8.0      1.942      3.751
REMARK  Name = 
REMARK  12 active torsions:
REMARK  status: ('A' for Active; 'I' for Inactive)
REMARK    1  A    between atoms: C_1  and  O_2
REMARK    2  A    between atoms: O_2  and  C_3
REMARK    3  A    between atoms: C_5  and  C_6
REMARK    4  A    between atoms: C_6  and  C_7
REMARK    5  A    between atoms: C_11  and  O_12
REMARK    6  A    between atoms: O_12  and  C_13
REMARK    7  A    between atoms: C_13  and  C_14
REMARK    8  A    between atoms: C_14  and  C_15
REMARK    9  A    between atoms: C_15  and  N_16
REMARK   10  A    between atoms: C_19  and  C_20
REMARK   11  A    between atoms: C_20  and  C_21
REMARK   12  A    between atoms: C_20  and  C_28
REMARK                            x       y       z     vdW  Elec       q    Type
REMARK                         _______ _______ _______ _____ _____    ______ ____
ROOT
ATOM      1  N   UNL     1       2.972   4.250  18.906  0.00  0.00    +0.000 NA
ATOM      2  C   UNL     1       3.008   3.907  17.478  0.00  0.00    +0.000 C 
ATOM      3  C   UNL     1       4.315   3.182  17.181  0.00  0.00    +0.000 C 
ATOM      4  C   UNL     1       5.547   4.047  17.521  0.00  0.00    +0.000 C 
ATOM      5  C   UNL     1       5.410   4.440  19.005  0.00  0.00    +0.000 C 
ATOM      6  C   UNL     1       4.082   5.124  19.289  0.00  0.00    +0.000 C 
ENDROOT
BRANCH   1   7
ATOM      7  C   UNL     1       1.677   4.799  19.279  0.00  0.00    +0.000 C 
BRANCH   7   8
ATOM      8  C   UNL     1       1.721   5.605  20.584  0.00  0.00    +0.000 C 
BRANCH   8   9
ATOM      9  C   UNL     1       1.866   7.052  20.176  0.00  0.00    +0.000 C 
BRANCH   9  10
ATOM     10  O   UNL     1       1.431   7.954  21.176  0.00  0.00    +0.000 OA
BRANCH  10  16
ATOM     11  C   UNL     1      -0.030  10.001  21.318  0.00  0.00    +0.000 A 
ATOM     12  C   UNL     1      -0.451  11.159  20.650  0.00  0.00    +0.000 A 
ATOM     13  C   UNL     1      -0.175  11.323  19.298  0.00  0.00    +0.000 A 
ATOM     14  C   UNL     1       0.640  10.399  18.645  0.00  0.00    +0.000 A 
ATOM     15  C   UNL     1       1.184   9.319  19.339  0.00  0.00    +0.000 A 
ATOM     16  C   UNL     1       0.850   9.100  20.679  0.00  0.00    +0.000 A 
BRANCH  13  17
ATOM     17  C   UNL     1      -0.849  12.375  18.494  0.00  0.00    +0.000 C 
ATOM     18  C   UNL     1      -0.381  13.806  18.559  0.00  0.00    +0.000 C 
ATOM     19  O   UNL     1      -1.817  12.060  17.806  0.00  0.00    +0.000 OA
ENDBRANCH  13  17
BRANCH  11  21
ATOM     20  C   UNL     1      -1.226  10.864  23.173  0.00  0.00    +0.000 C 
ATOM     21  O   UNL     1      -0.510   9.770  22.584  0.00  0.00    +0.000 OA
ENDBRANCH  11  21
ENDBRANCH  10  16
ENDBRANCH   9  10
ENDBRANCH   8   9
ENDBRANCH   7   8
ENDBRANCH   1   7
BRANCH   4  22
ATOM     22  C   UNL     1       5.749   5.301  16.590  0.00  0.00    +0.000 C 
BRANCH  22  23
ATOM     23  C   UNL     1       6.735   6.283  17.238  0.00  0.00    +0.000 A 
ATOM     24  C   UNL     1       7.647   5.841  18.212  0.00  0.00    +0.000 A 
ATOM     25  C   UNL     1       8.459   6.751  18.891  0.00  0.00    +0.000 A 
ATOM     26  C   UNL     1       8.371   8.102  18.588  0.00  0.00    +0.000 A 
ATOM     27  F   UNL     1       9.133   8.978  19.258  0.00  0.00    +0.000 F 
ATOM     28  C   UNL     1       7.497   8.563  17.612  0.00  0.00    +0.000 A 
ATOM     29  C   UNL     1       6.677   7.656  16.935  0.00  0.00    +0.000 A 
ENDBRANCH  22  23
BRANCH  22  30
ATOM     30  C   UNL     1       6.146   4.966  15.154  0.00  0.00    +0.000 A 
ATOM     31  C   UNL     1       5.324   4.182  14.351  0.00  0.00    +0.000 A 
ATOM     32  C   UNL     1       5.760   3.802  13.086  0.00  0.00    +0.000 A 
ATOM     33  C   UNL     1       6.997   4.256  12.626  0.00  0.00    +0.000 A 
ATOM     34  C   UNL     1       7.722   5.090  13.455  0.00  0.00    +0.000 A 
ATOM     35  N   UNL     1       7.338   5.458  14.690  0.00  0.00    +0.000 NA
ENDBRANCH  22  30
ENDBRANCH   4  22
TORSDOF 10
ENDMDL
