MODEL 1
REMARK VINA RESULT:      -7.5      0.000      0.000
REMARK  Name = 
REMARK  8 active torsions:
REMARK  status: ('A' for Active; 'I' for Inactive)
REMARK    1  A    between atoms: C_1  and  C_2
REMARK    2  A    between atoms: C_7  and  C_8
REMARK    3  A    between atoms: C_8  and  C_9
REMARK    4  A    between atoms: N_11  and  C_12
REMARK    5  A    between atoms: C_12  and  C_13
REMARK    6  A    between atoms: C_13  and  C_14
REMARK    7  A    between atoms: C_13  and  O_15
REMARK    8  A    between atoms: O_15  and  C_16
REMARK                            x       y       z     vdW  Elec       q    Type
REMARK                         _______ _______ _______ _____ _____    ______ ____
ROOT
ATOM      1  C   UNL     1       5.306   4.430  18.885  0.00  0.00    +0.000 C 
ATOM      2  O   UNL     1       4.880   5.436  19.450  0.00  0.00    +0.000 OA
ATOM      3  N   UNL     1       6.583   4.352  18.370  0.00  0.00    +0.000 N 
ATOM      4  H   UNL     1       6.874   3.526  17.858  0.00  0.00    +0.000 HD
ENDROOT
BRANCH   1   5
ATOM      5  C   UNL     1       4.449   3.190  18.689  0.00  0.00    +0.000 C 
BRANCH   5  12
ATOM      6  C   UNL     1       1.702   4.138  17.715  0.00  0.00    +0.000 C 
ATOM      7  C   UNL     1       1.945   3.606  19.096  0.00  0.00    +0.000 A 
ATOM      8  C   UNL     1       0.862   3.480  19.969  0.00  0.00    +0.000 A 
ATOM      9  N   UNL     1       0.936   2.984  21.223  0.00  0.00    +0.000 NA
ATOM     10  C   UNL     1       2.148   2.570  21.633  0.00  0.00    +0.000 A 
ATOM     11  C   UNL     1       3.288   2.638  20.847  0.00  0.00    +0.000 A 
ATOM     12  C   UNL     1       3.204   3.174  19.551  0.00  0.00    +0.000 A 
ENDBRANCH   5  12
ENDBRANCH   1   5
BRANCH   3  13
ATOM     13  C   UNL     1       7.468   5.499  18.465  0.00  0.00    +0.000 C 
BRANCH  13  14
ATOM     14  C   UNL     1       7.527   6.419  17.228  0.00  0.00    +0.000 C 
ATOM     15  C   UNL     1       7.756   7.877  17.631  0.00  0.00    +0.000 C 
BRANCH  14  16
ATOM     16  O   UNL     1       6.315   6.360  16.459  0.00  0.00    +0.000 OA
BRANCH  16  17
ATOM     17  C   UNL     1       6.313   5.545  15.355  0.00  0.00    +0.000 A 
ATOM     18  C   UNL     1       7.365   5.416  14.447  0.00  0.00    +0.000 A 
ATOM     19  C   UNL     1       7.272   4.523  13.373  0.00  0.00    +0.000 A 
ATOM     20  C   UNL     1       6.121   3.761  13.202  0.00  0.00    +0.000 A 
ATOM     21 CL   UNL     1       6.009   2.672  11.874  0.00  0.00    +0.000 Cl
ATOM     22  C   UNL     1       5.066   3.875  14.102  0.00  0.00    +0.000 A 
ATOM     23  C   UNL     1       5.169   4.760  15.183  0.00  0.00    +0.000 A 
ENDBRANCH  16  17
ENDBRANCH  14  16
ENDBRANCH  13  14
ENDBRANCH   3  13
TORSDOF 6
ENDMDL
MODEL 2
REMARK VINA RESULT:      -7.2      1.436      1.704
REMARK  Name = 
REMARK  8 active torsions:
REMARK  status: ('A' for Active; 'I' for Inactive)
REMARK    1  A    between atoms: C_1  and  C_2
REMARK    2  A    between atoms: C_7  and  C_8
REMARK    3  A    between atoms: C_8  and  C_9
REMARK    4  A    between atoms: N_11  and  C_12
REMARK    5  A    between atoms: C_12  and  C_13
REMARK    6  A    between atoms: C_13  and  C_14
REMARK    7  A    between atoms: C_13  and  O_15
REMARK    8  A    between atoms: O_15  and  C_16
REMARK                            x       y       z     vdW  Elec       q    Type
REMARK                         _______ _______ _______ _____ _____    ______ ____
ROOT
ATOM      1  C   UNL     1       4.399   5.895  18.750  0.00  0.00    +0.000 C 
ATOM      2  O   UNL     1       5.131   5.148  19.397  0.00  0.00    +0.000 OA
ATOM      3  N   UNL     1       4.861   6.661  17.700  0.00  0.00    +0.000 N 
ATOM      4  H   UNL     1       4.237   7.309  17.232  0.00  0.00    +0.000 HD
ENDROOT
BRANCH   1   5
ATOM      5  C   UNL     1       2.920   6.053  19.069  0.00  0.00    +0.000 C 
BRANCH   5  12
ATOM      6  C   UNL     1       1.556   3.838  17.448  0.00  0.00    +0.000 C 
ATOM      7  C   UNL     1       1.682   3.804  18.942  0.00  0.00    +0.000 A 
ATOM      8  C   UNL     1       1.209   2.686  19.632  0.00  0.00    +0.000 A 
ATOM      9  N   UNL     1       1.292   2.511  20.968  0.00  0.00    +0.000 NA
ATOM     10  C   UNL     1       1.897   3.491  21.664  0.00  0.00    +0.000 A 
ATOM     11  C   UNL     1       2.413   4.638  21.082  0.00  0.00    +0.000 A 
ATOM     12  C   UNL     1       2.303   4.818  19.693  0.00  0.00    +0.000 A 
ENDBRANCH   5  12
ENDBRANCH   1   5
BRANCH   3  13
ATOM     13  C   UNL     1       6.267   6.618  17.343  0.00  0.00    +0.000 C 
BRANCH  13  14
ATOM     14  C   UNL     1       6.759   5.323  16.664  0.00  0.00    +0.000 C 
ATOM     15  C   UNL     1       7.786   4.596  17.534  0.00  0.00    +0.000 C 
BRANCH  14  16
ATOM     16  O   UNL     1       7.370   5.587  15.391  0.00  0.00    +0.000 OA
BRANCH  16  17
ATOM     17  C   UNL     1       6.882   4.898  14.308  0.00  0.00    +0.000 A 
ATOM     18  C   UNL     1       7.530   4.765  13.079  0.00  0.00    +0.000 A 
ATOM     19  C   UNL     1       6.957   4.005  12.052  0.00  0.00    +0.000 A 
ATOM     20  C   UNL     1       5.729   3.382  12.252  0.00  0.00    +0.000 A 
ATOM     21 CL   UNL     1       5.027   2.457  10.983  0.00  0.00    +0.000 Cl
ATOM     22  C   UNL     1       5.075   3.502  13.473  0.00  0.00    +0.000 A 
ATOM     23  C   UNL     1       5.657   4.252  14.503  0.00  0.00    +0.000 A 
ENDBRANCH  16  17
ENDBRANCH  14  16
ENDBRANCH  13  14
ENDBRANCH   3  13
TORSDOF 6
ENDMDL
MODEL 3
REMARK VINA RESULT:      -6.9      1.756      2.386
REMARK  Name = 
REMARK  8 active torsions:
REMARK  status: ('A' for Active; 'I' for Inactive)
REMARK    1  A    between atoms: C_1  and  C_2
REMARK    2  A    between atoms: C_7  and  C_8
REMARK    3  A    between atoms: C_8  and  C_9
REMARK    4  A    between atoms: N_11  and  C_12
REMARK    5  A    between atoms: C_12  and  C_13
REMARK    6  A    between atoms: C_13  and  C_14
REMARK    7  A    between atoms: C_13  and  O_15
REMARK    8  A    between atoms: O_15  and  C_16
REMARK                            x       y       z     vdW  Elec       q    Type
REMARK                         _______ _______ _______ _____ _____    ______ ____
ROOT
ATOM      1  C   UNL     1       3.154   6.769  17.862  0.00  0.00    +0.000 C 
ATOM      2  O   UNL     1       3.170   7.996  17.950  0.00  0.00    +0.000 OA
ATOM      3  N   UNL     1       4.241   6.042  17.423  0.00  0.00    +0.000 N 
ATOM      4  H   UNL     1       4.166   5.038  17.307  0.00  0.00    +0.000 HD
ENDROOT
BRANCH   1   5
ATOM      5  C   UNL     1       1.923   5.949  18.212  0.00  0.00    +0.000 C 
BRANCH   5  12
ATOM      6  C   UNL     1       2.221   4.771  21.026  0.00  0.00    +0.000 C 
ATOM      7  C   UNL     1       2.357   3.955  19.775  0.00  0.00    +0.000 A 
ATOM      8  C   UNL     1       2.574   2.580  19.888  0.00  0.00    +0.000 A 
ATOM      9  N   UNL     1       2.678   1.727  18.847  0.00  0.00    +0.000 NA
ATOM     10  C   UNL     1       2.542   2.260  17.620  0.00  0.00    +0.000 A 
ATOM     11  C   UNL     1       2.314   3.607  17.391  0.00  0.00    +0.000 A 
ATOM     12  C   UNL     1       2.226   4.489  18.480  0.00  0.00    +0.000 A 
ENDBRANCH   5  12
ENDBRANCH   1   5
BRANCH   3  13
ATOM     13  C   UNL     1       5.452   6.733  17.020  0.00  0.00    +0.000 C 
BRANCH  13  14
ATOM     14  C   UNL     1       6.736   5.880  16.954  0.00  0.00    +0.000 C 
ATOM     15  C   UNL     1       7.711   6.257  18.071  0.00  0.00    +0.000 C 
BRANCH  14  16
ATOM     16  O   UNL     1       7.420   6.037  15.701  0.00  0.00    +0.000 OA
BRANCH  16  17
ATOM     17  C   UNL     1       7.020   5.231  14.665  0.00  0.00    +0.000 A 
ATOM     18  C   UNL     1       7.634   5.165  13.413  0.00  0.00    +0.000 A 
ATOM     19  C   UNL     1       7.167   4.275  12.438  0.00  0.00    +0.000 A 
ATOM     20  C   UNL     1       6.078   3.453  12.713  0.00  0.00    +0.000 A 
ATOM     21 CL   UNL     1       5.503   2.369  11.507  0.00  0.00    +0.000 Cl
ATOM     22  C   UNL     1       5.460   3.504  13.958  0.00  0.00    +0.000 A 
ATOM     23  C   UNL     1       5.939   4.386  14.935  0.00  0.00    +0.000 A 
ENDBRANCH  16  17
ENDBRANCH  14  16
ENDBRANCH  13  14
ENDBRANCH   3  13
TORSDOF 6
ENDMDL
MODEL 4
REMARK VINA RESULT:      -6.9      0.875      1.658
REMARK  Name = 
REMARK  8 active torsions:
REMARK  status: ('A' for Active; 'I' for Inactive)
REMARK    1  A    between atoms: C_1  and  C_2
REMARK    2  A    between atoms: C_7  and  C_8
REMARK    3  A    between atoms: C_8  and  C_9
REMARK    4  A    between atoms: N_11  and  C_12
REMARK    5  A    between atoms: C_12  and  C_13
REMARK    6  A    between atoms: C_13  and  C_14
REMARK    7  A    between atoms: C_13  and  O_15
REMARK    8  A    between atoms: O_15  and  C_16
REMARK                            x       y       z     vdW  Elec       q    Type
REMARK                         _______ _______ _______ _____ _____    ______ ____
ROOT
ATOM      1  C   UNL     1       5.392   4.618  19.497  0.00  0.00    +0.000 C 
ATOM      2  O   UNL     1       4.770   5.647  19.754  0.00  0.00    +0.000 OA
ATOM      3  N   UNL     1       6.712   4.629  19.095  0.00  0.00    +0.000 N 
ATOM      4  H   UNL     1       7.169   3.762  18.834  0.00  0.00    +0.000 HD
ENDROOT
BRANCH   1   5
ATOM      5  C   UNL     1       4.750   3.242  19.582  0.00  0.00    +0.000 C 
BRANCH   5  12
ATOM      6  C   UNL     1       2.410   2.698  21.485  0.00  0.00    +0.000 C 
ATOM      7  C   UNL     1       2.231   2.979  20.023  0.00  0.00    +0.000 A 
ATOM      8  C   UNL     1       0.936   3.055  19.506  0.00  0.00    +0.000 A 
ATOM      9  N   UNL     1       0.634   3.335  18.220  0.00  0.00    +0.000 NA
ATOM     10  C   UNL     1       1.673   3.575  17.400  0.00  0.00    +0.000 A 
ATOM     11  C   UNL     1       2.996   3.538  17.808  0.00  0.00    +0.000 A 
ATOM     12  C   UNL     1       3.300   3.225  19.143  0.00  0.00    +0.000 A 
ENDBRANCH   5  12
ENDBRANCH   1   5
BRANCH   3  13
ATOM     13  C   UNL     1       7.405   5.894  18.938  0.00  0.00    +0.000 C 
BRANCH  13  14
ATOM     14  C   UNL     1       7.433   6.485  17.513  0.00  0.00    +0.000 C 
ATOM     15  C   UNL     1       7.680   7.994  17.542  0.00  0.00    +0.000 C 
BRANCH  14  16
ATOM     16  O   UNL     1       6.199   6.254  16.814  0.00  0.00    +0.000 OA
BRANCH  16  17
ATOM     17  C   UNL     1       6.262   5.516  15.659  0.00  0.00    +0.000 A 
ATOM     18  C   UNL     1       7.379   5.416  14.828  0.00  0.00    +0.000 A 
ATOM     19  C   UNL     1       7.347   4.601  13.689  0.00  0.00    +0.000 A 
ATOM     20  C   UNL     1       6.193   3.889  13.378  0.00  0.00    +0.000 A 
ATOM     21 CL   UNL     1       6.158   2.896  11.973  0.00  0.00    +0.000 Cl
ATOM     22  C   UNL     1       5.075   3.974  14.200  0.00  0.00    +0.000 A 
ATOM     23  C   UNL     1       5.115   4.780  15.346  0.00  0.00    +0.000 A 
ENDBRANCH  16  17
ENDBRANCH  14  16
ENDBRANCH  13  14
ENDBRANCH   3  13
TORSDOF 6
ENDMDL
MODEL 5
REMARK VINA RESULT:      -6.8      4.625      8.528
REMARK  Name = 
REMARK  8 active torsions:
REMARK  status: ('A' for Active; 'I' for Inactive)
REMARK    1  A    between atoms: C_1  and  C_2
REMARK    2  A    between atoms: C_7  and  C_8
REMARK    3  A    between atoms: C_8  and  C_9
REMARK    4  A    between atoms: N_11  and  C_12
REMARK    5  A    between atoms: C_12  and  C_13
REMARK    6  A    between atoms: C_13  and  C_14
REMARK    7  A    between atoms: C_13  and  O_15
REMARK    8  A    between atoms: O_15  and  C_16
REMARK                            x       y       z     vdW  Elec       q    Type
REMARK                         _______ _______ _______ _____ _____    ______ ____
ROOT
ATOM      1  C   UNL     1       8.603   9.705  18.418  0.00  0.00    +0.000 C 
ATOM      2  O   UNL     1       8.010  10.524  17.719  0.00  0.00    +0.000 OA
ATOM      3  N   UNL     1       8.413   8.345  18.292  0.00  0.00    +0.000 N 
ATOM      4  H   UNL     1       8.877   7.707  18.930  0.00  0.00    +0.000 HD
ENDROOT
BRANCH   1   5
ATOM      5  C   UNL     1       9.586  10.127  19.499  0.00  0.00    +0.000 C 
BRANCH   5  12
ATOM      6  C   UNL     1       9.523  12.595  21.315  0.00  0.00    +0.000 C 
ATOM      7  C   UNL     1      10.283  12.545  20.024  0.00  0.00    +0.000 A 
ATOM      8  C   UNL     1      11.049  13.652  19.650  0.00  0.00    +0.000 A 
ATOM      9  N   UNL     1      11.807  13.724  18.535  0.00  0.00    +0.000 NA
ATOM     10  C   UNL     1      11.826  12.631  17.752  0.00  0.00    +0.000 A 
ATOM     11  C   UNL     1      11.115  11.476  18.031  0.00  0.00    +0.000 A 
ATOM     12  C   UNL     1      10.314  11.418  19.183  0.00  0.00    +0.000 A 
ENDBRANCH   5  12
ENDBRANCH   1   5
BRANCH   3  13
ATOM     13  C   UNL     1       7.461   7.839  17.320  0.00  0.00    +0.000 C 
BRANCH  13  14
ATOM     14  C   UNL     1       6.680   6.573  17.726  0.00  0.00    +0.000 C 
ATOM     15  C   UNL     1       7.627   5.439  18.124  0.00  0.00    +0.000 C 
BRANCH  14  16
ATOM     16  O   UNL     1       5.846   6.094  16.658  0.00  0.00    +0.000 OA
BRANCH  16  17
ATOM     17  C   UNL     1       4.715   5.401  17.011  0.00  0.00    +0.000 A 
ATOM     18  C   UNL     1       4.474   4.056  16.727  0.00  0.00    +0.000 A 
ATOM     19  C   UNL     1       3.298   3.436  17.169  0.00  0.00    +0.000 A 
ATOM     20  C   UNL     1       2.358   4.165  17.891  0.00  0.00    +0.000 A 
ATOM     21 CL   UNL     1       0.912   3.399  18.423  0.00  0.00    +0.000 Cl
ATOM     22  C   UNL     1       2.588   5.504  18.185  0.00  0.00    +0.000 A 
ATOM     23  C   UNL     1       3.771   6.118  17.753  0.00  0.00    +0.000 A 
ENDBRANCH  16  17
ENDBRANCH  14  16
ENDBRANCH  13  14
ENDBRANCH   3  13
TORSDOF 6
ENDMDL
MODEL 6
REMARK VINA RESULT:      -6.7      1.194      1.360
REMARK  Name = 
REMARK  8 active torsions:
REMARK  status: ('A' for Active; 'I' for Inactive)
REMARK    1  A    between atoms: C_1  and  C_2
REMARK    2  A    between atoms: C_7  and  C_8
REMARK    3  A    between atoms: C_8  and  C_9
REMARK    4  A    between atoms: N_11  and  C_12
REMARK    5  A    between atoms: C_12  and  C_13
REMARK    6  A    between atoms: C_13  and  C_14
REMARK    7  A    between atoms: C_13  and  O_15
REMARK    8  A    between atoms: O_15  and  C_16
REMARK                            x       y       z     vdW  Elec       q    Type
REMARK                         _______ _______ _______ _____ _____    ______ ____
ROOT
ATOM      1  C   UNL     1       5.474   4.590  19.252  0.00  0.00    +0.000 C 
ATOM      2  O   UNL     1       5.746   3.619  18.547  0.00  0.00    +0.000 OA
ATOM      3  N   UNL     1       6.291   5.698  19.337  0.00  0.00    +0.000 N 
ATOM      4  H   UNL     1       6.060   6.450  19.976  0.00  0.00    +0.000 HD
ENDROOT
BRANCH   1   5
ATOM      5  C   UNL     1       4.217   4.642  20.106  0.00  0.00    +0.000 C 
BRANCH   5  12
ATOM      6  C   UNL     1       2.535   5.998  17.933  0.00  0.00    +0.000 C 
ATOM      7  C   UNL     1       2.251   4.620  18.451  0.00  0.00    +0.000 A 
ATOM      8  C   UNL     1       1.206   3.889  17.882  0.00  0.00    +0.000 A 
ATOM      9  N   UNL     1       0.867   2.629  18.228  0.00  0.00    +0.000 NA
ATOM     10  C   UNL     1       1.618   2.048  19.181  0.00  0.00    +0.000 A 
ATOM     11  C   UNL     1       2.684   2.674  19.805  0.00  0.00    +0.000 A 
ATOM     12  C   UNL     1       3.015   3.993  19.451  0.00  0.00    +0.000 A 
ENDBRANCH   5  12
ENDBRANCH   1   5
BRANCH   3  13
ATOM     13  C   UNL     1       7.538   5.730  18.595  0.00  0.00    +0.000 C 
BRANCH  13  14
ATOM     14  C   UNL     1       7.550   6.594  17.317  0.00  0.00    +0.000 C 
ATOM     15  C   UNL     1       7.777   8.070  17.647  0.00  0.00    +0.000 C 
BRANCH  14  16
ATOM     16  O   UNL     1       6.315   6.491  16.590  0.00  0.00    +0.000 OA
BRANCH  16  17
ATOM     17  C   UNL     1       6.300   5.661  15.497  0.00  0.00    +0.000 A 
ATOM     18  C   UNL     1       7.347   5.510  14.586  0.00  0.00    +0.000 A 
ATOM     19  C   UNL     1       7.240   4.604  13.524  0.00  0.00    +0.000 A 
ATOM     20  C   UNL     1       6.081   3.850  13.369  0.00  0.00    +0.000 A 
ATOM     21 CL   UNL     1       5.953   2.744  12.057  0.00  0.00    +0.000 Cl
ATOM     22  C   UNL     1       5.033   3.985  14.273  0.00  0.00    +0.000 A 
ATOM     23  C   UNL     1       5.149   4.883  15.342  0.00  0.00    +0.000 A 
ENDBRANCH  16  17
ENDBRANCH  14  16
ENDBRANCH  13  14
ENDBRANCH   3  13
TORSDOF 6
ENDMDL
MODEL 7
REMARK VINA RESULT:      -6.6      2.921      4.283
REMARK  Name = 
REMARK  8 active torsions:
REMARK  status: ('A' for Active; 'I' for Inactive)
REMARK    1  A    between atoms: C_1  and  C_2
REMARK    2  A    between atoms: C_7  and  C_8
REMARK    3  A    between atoms: C_8  and  C_9
REMARK    4  A    between atoms: N_11  and  C_12
REMARK    5  A    between atoms: C_12  and  C_13
REMARK    6  A    between atoms: C_13  and  C_14
REMARK    7  A    between atoms: C_13  and  O_15
REMARK    8  A    between atoms: O_15  and  C_16
REMARK                            x       y       z     vdW  Elec       q    Type
REMARK                         _______ _______ _______ _____ _____    ______ ____
ROOT
ATOM      1  C   UNL     1       3.696   3.032  17.035  0.00  0.00    +0.000 C 
ATOM      2  O   UNL     1       2.794   3.766  16.635  0.00  0.00    +0.000 OA
ATOM      3  N   UNL     1       5.017   3.221  16.685  0.00  0.00    +0.000 N 
ATOM      4  H   UNL     1       5.721   2.557  16.987  0.00  0.00    +0.000 HD
ENDROOT
BRANCH   1   5
ATOM      5  C   UNL     1       3.426   1.837  17.936  0.00  0.00    +0.000 C 
BRANCH   5  12
ATOM      6  C   UNL     1       4.816   1.981  20.663  0.00  0.00    +0.000 C 
ATOM      7  C   UNL     1       3.357   2.268  20.469  0.00  0.00    +0.000 A 
ATOM      8  C   UNL     1       2.600   2.678  21.568  0.00  0.00    +0.000 A 
ATOM      9  N   UNL     1       1.290   3.002  21.525  0.00  0.00    +0.000 NA
ATOM     10  C   UNL     1       0.697   2.937  20.319  0.00  0.00    +0.000 A 
ATOM     11  C   UNL     1       1.354   2.555  19.161  0.00  0.00    +0.000 A 
ATOM     12  C   UNL     1       2.712   2.200  19.221  0.00  0.00    +0.000 A 
ENDBRANCH   5  12
ENDBRANCH   1   5
BRANCH   3  13
ATOM     13  C   UNL     1       5.375   4.307  15.791  0.00  0.00    +0.000 C 
BRANCH  13  14
ATOM     14  C   UNL     1       6.555   5.196  16.236  0.00  0.00    +0.000 C 
ATOM     15  C   UNL     1       7.443   4.473  17.250  0.00  0.00    +0.000 C 
BRANCH  14  16
ATOM     16  O   UNL     1       6.104   6.419  16.840  0.00  0.00    +0.000 OA
BRANCH  16  17
ATOM     17  C   UNL     1       5.065   6.332  17.732  0.00  0.00    +0.000 A 
ATOM     18  C   UNL     1       5.095   5.631  18.938  0.00  0.00    +0.000 A 
ATOM     19  C   UNL     1       3.987   5.640  19.794  0.00  0.00    +0.000 A 
ATOM     20  C   UNL     1       2.843   6.347  19.440  0.00  0.00    +0.000 A 
ATOM     21 CL   UNL     1       1.481   6.347  20.492  0.00  0.00    +0.000 Cl
ATOM     22  C   UNL     1       2.800   7.055  18.243  0.00  0.00    +0.000 A 
ATOM     23  C   UNL     1       3.916   7.054  17.396  0.00  0.00    +0.000 A 
ENDBRANCH  16  17
ENDBRANCH  14  16
ENDBRANCH  13  14
ENDBRANCH   3  13
TORSDOF 6
ENDMDL
MODEL 8
REMARK VINA RESULT:      -6.6      1.456      1.981
REMARK  Name = 
REMARK  8 active torsions:
REMARK  status: ('A' for Active; 'I' for Inactive)
REMARK    1  A    between atoms: C_1  and  C_2
REMARK    2  A    between atoms: C_7  and  C_8
REMARK    3  A    between atoms: C_8  and  C_9
REMARK    4  A    between atoms: N_11  and  C_12
REMARK    5  A    between atoms: C_12  and  C_13
REMARK    6  A    between atoms: C_13  and  C_14
REMARK    7  A    between atoms: C_13  and  O_15
REMARK    8  A    between atoms: O_15  and  C_16
REMARK                            x       y       z     vdW  Elec       q    Type
REMARK                         _______ _______ _______ _____ _____    ______ ____
ROOT
ATOM      1  C   UNL     1       4.005   5.558  17.853  0.00  0.00    +0.000 C 
ATOM      2  O   UNL     1       4.863   4.789  18.283  0.00  0.00    +0.000 OA
ATOM      3  N   UNL     1       4.320   6.754  17.240  0.00  0.00    +0.000 N 
ATOM      4  H   UNL     1       3.581   7.387  16.954  0.00  0.00    +0.000 HD
ENDROOT
BRANCH   1   5
ATOM      5  C   UNL     1       2.519   5.264  17.978  0.00  0.00    +0.000 C 
BRANCH   5  12
ATOM      6  C   UNL     1       2.349   2.225  17.621  0.00  0.00    +0.000 C 
ATOM      7  C   UNL     1       2.115   2.912  18.933  0.00  0.00    +0.000 A 
ATOM      8  C   UNL     1       1.862   2.134  20.066  0.00  0.00    +0.000 A 
ATOM      9  N   UNL     1       1.670   2.622  21.310  0.00  0.00    +0.000 NA
ATOM     10  C   UNL     1       1.751   3.957  21.448  0.00  0.00    +0.000 A 
ATOM     11  C   UNL     1       2.008   4.823  20.397  0.00  0.00    +0.000 A 
ATOM     12  C   UNL     1       2.186   4.307  19.104  0.00  0.00    +0.000 A 
ENDBRANCH   5  12
ENDBRANCH   1   5
BRANCH   3  13
ATOM     13  C   UNL     1       5.710   7.151  17.111  0.00  0.00    +0.000 C 
BRANCH  13  14
ATOM     14  C   UNL     1       6.736   6.008  16.966  0.00  0.00    +0.000 C 
ATOM     15  C   UNL     1       7.827   6.102  18.034  0.00  0.00    +0.000 C 
BRANCH  14  16
ATOM     16  O   UNL     1       7.376   6.023  15.680  0.00  0.00    +0.000 OA
BRANCH  16  17
ATOM     17  C   UNL     1       6.915   5.134  14.741  0.00  0.00    +0.000 A 
ATOM     18  C   UNL     1       5.803   4.305  14.894  0.00  0.00    +0.000 A 
ATOM     19  C   UNL     1       5.397   3.461  13.854  0.00  0.00    +0.000 A 
ATOM     20  C   UNL     1       6.108   3.442  12.658  0.00  0.00    +0.000 A 
ATOM     21 CL   UNL     1       5.609   2.395  11.387  0.00  0.00    +0.000 Cl
ATOM     22  C   UNL     1       7.215   4.266  12.489  0.00  0.00    +0.000 A 
ATOM     23  C   UNL     1       7.611   5.120  13.528  0.00  0.00    +0.000 A 
ENDBRANCH  16  17
ENDBRANCH  14  16
ENDBRANCH  13  14
ENDBRANCH   3  13
TORSDOF 6
ENDMDL
MODEL 9
REMARK VINA RESULT:      -6.6      1.752      2.522
REMARK  Name = 
REMARK  8 active torsions:
REMARK  status: ('A' for Active; 'I' for Inactive)
REMARK    1  A    between atoms: C_1  and  C_2
REMARK    2  A    between atoms: C_7  and  C_8
REMARK    3  A    between atoms: C_8  and  C_9
REMARK    4  A    between atoms: N_11  and  C_12
REMARK    5  A    between atoms: C_12  and  C_13
REMARK    6  A    between atoms: C_13  and  C_14
REMARK    7  A    between atoms: C_13  and  O_15
REMARK    8  A    between atoms: O_15  and  C_16
REMARK                            x       y       z     vdW  Elec       q    Type
REMARK                         _______ _______ _______ _____ _____    ______ ____
ROOT
ATOM      1  C   UNL     1       3.361   6.742  17.702  0.00  0.00    +0.000 C 
ATOM      2  O   UNL     1       3.523   7.878  18.143  0.00  0.00    +0.000 OA
ATOM      3  N   UNL     1       4.304   6.106  16.922  0.00  0.00    +0.000 N 
ATOM      4  H   UNL     1       4.105   5.193  16.529  0.00  0.00    +0.000 HD
ENDROOT
BRANCH   1   5
ATOM      5  C   UNL     1       2.093   5.946  17.966  0.00  0.00    +0.000 C 
BRANCH   5  12
ATOM      6  C   UNL     1       2.070   4.974  20.873  0.00  0.00    +0.000 C 
ATOM      7  C   UNL     1       2.339   4.070  19.706  0.00  0.00    +0.000 A 
ATOM      8  C   UNL     1       2.532   2.707  19.942  0.00  0.00    +0.000 A 
ATOM      9  N   UNL     1       2.745   1.781  18.982  0.00  0.00    +0.000 NA
ATOM     10  C   UNL     1       2.749   2.224  17.712  0.00  0.00    +0.000 A 
ATOM     11  C   UNL     1       2.556   3.551  17.363  0.00  0.00    +0.000 A 
ATOM     12  C   UNL     1       2.355   4.509  18.370  0.00  0.00    +0.000 A 
ENDBRANCH   5  12
ENDBRANCH   1   5
BRANCH   3  13
ATOM     13  C   UNL     1       5.532   6.797  16.573  0.00  0.00    +0.000 C 
BRANCH  13  14
ATOM     14  C   UNL     1       6.843   6.152  17.069  0.00  0.00    +0.000 C 
ATOM     15  C   UNL     1       7.650   7.125  17.931  0.00  0.00    +0.000 C 
BRANCH  14  16
ATOM     16  O   UNL     1       7.679   5.733  15.978  0.00  0.00    +0.000 OA
BRANCH  16  17
ATOM     17  C   UNL     1       7.094   4.967  15.000  0.00  0.00    +0.000 A 
ATOM     18  C   UNL     1       6.118   3.993  15.216  0.00  0.00    +0.000 A 
ATOM     19  C   UNL     1       5.560   3.295  14.138  0.00  0.00    +0.000 A 
ATOM     20  C   UNL     1       5.983   3.568  12.841  0.00  0.00    +0.000 A 
ATOM     21 CL   UNL     1       5.299   2.701  11.522  0.00  0.00    +0.000 Cl
ATOM     22  C   UNL     1       6.950   4.540  12.611  0.00  0.00    +0.000 A 
ATOM     23  C   UNL     1       7.497   5.246  13.691  0.00  0.00    +0.000 A 
ENDBRANCH  16  17
ENDBRANCH  14  16
ENDBRANCH  13  14
ENDBRANCH   3  13
TORSDOF 6
ENDMDL
