MODEL 1
REMARK VINA RESULT:      -7.8      0.000      0.000
REMARK  Name = 
REMARK  8 active torsions:
REMARK  status: ('A' for Active; 'I' for Inactive)
REMARK    1  A    between atoms: C_1  and  O_2
REMARK    2  A    between atoms: O_2  and  C_3
REMARK    3  A    between atoms: C_7  and  N_8
REMARK    4  A    between atoms: C_9  and  C_11
REMARK    5  A    between atoms: C_11  and  N_12
REMARK    6  A    between atoms: C_11  and  C_29
REMARK    7  A    between atoms: C_29  and  C_30
REMARK    8  A    between atoms: C_29  and  C_31
REMARK                            x       y       z     vdW  Elec       q    Type
REMARK                         _______ _______ _______ _____ _____    ______ ____
ROOT
ATOM      1  N   UNL     1       5.219   6.236  18.220  0.00  0.00    +0.000 N 
ATOM      2  C   UNL     1       4.068   5.806  17.629  0.00  0.00    +0.000 C 
ATOM      3  O   UNL     1       4.029   5.490  16.440  0.00  0.00    +0.000 OA
ATOM      4  N   UNL     1       2.953   5.755  18.430  0.00  0.00    +0.000 N 
ATOM      5  C   UNL     1       1.750   5.137  17.867  0.00  0.00    +0.000 C 
ATOM      6  C   UNL     1       1.276   3.984  18.769  0.00  0.00    +0.000 C 
ATOM      7  C   UNL     1       0.924   4.573  20.135  0.00  0.00    +0.000 C 
ATOM      8  C   UNL     1       2.204   5.155  20.735  0.00  0.00    +0.000 C 
ATOM      9  C   UNL     1       2.824   6.226  19.811  0.00  0.00    +0.000 C 
ATOM     10  C   UNL     1       3.178   4.002  20.993  0.00  0.00    +0.000 C 
ATOM     11  N   UNL     1       3.315   3.024  19.915  0.00  0.00    +0.000 N 
ATOM     12  C   UNL     1       2.374   2.932  18.881  0.00  0.00    +0.000 A 
ATOM     13  C   UNL     1       2.495   1.962  17.956  0.00  0.00    +0.000 A 
ATOM     14  C   UNL     1       3.596   1.036  17.993  0.00  0.00    +0.000 A 
ATOM     15  C   UNL     1       4.510   1.105  18.966  0.00  0.00    +0.000 A 
ATOM     16  C   UNL     1       4.386   2.132  20.030  0.00  0.00    +0.000 A 
ATOM     17  O   UNL     1       5.224   2.165  20.929  0.00  0.00    +0.000 OA
ATOM     18  H   UNL     1       5.313   5.968  19.185  0.00  0.00    +0.000 HD
ENDROOT
BRANCH   1  19
ATOM     19  C   UNL     1       6.498   6.305  17.497  0.00  0.00    +0.000 C 
BRANCH  19  21
ATOM     20  N   UNL     1       6.487   5.648  15.130  0.00  0.00    +0.000 N 
ATOM     21  C   UNL     1       6.572   5.184  16.427  0.00  0.00    +0.000 C 
ATOM     22  O   UNL     1       6.632   4.005  16.776  0.00  0.00    +0.000 OA
ATOM     23  H   UNL     1       6.429   6.663  15.022  0.00  0.00    +0.000 HD
BRANCH  20  28
ATOM     24  C   UNL     1       5.283   3.501  12.385  0.00  0.00    +0.000 A 
ATOM     25  C   UNL     1       6.443   3.375  11.618  0.00  0.00    +0.000 A 
ATOM     26  C   UNL     1       7.619   4.019  11.991  0.00  0.00    +0.000 A 
ATOM     27  C   UNL     1       7.652   4.783  13.157  0.00  0.00    +0.000 A 
ATOM     28  C   UNL     1       6.510   4.909  13.938  0.00  0.00    +0.000 A 
ATOM     29  C   UNL     1       5.314   4.289  13.536  0.00  0.00    +0.000 A 
BRANCH  24  31
ATOM     30  C   UNL     1       3.536   3.315  10.777  0.00  0.00    +0.000 C 
ATOM     31  O   UNL     1       4.207   2.794  11.917  0.00  0.00    +0.000 OA
ENDBRANCH  24  31
ENDBRANCH  20  28
ENDBRANCH  19  21
BRANCH  19  32
ATOM     32  C   UNL     1       7.746   6.324  18.419  0.00  0.00    +0.000 C 
ATOM     33  C   UNL     1       8.288   7.742  18.615  0.00  0.00    +0.000 C 
ATOM     34  C   UNL     1       7.461   5.699  19.785  0.00  0.00    +0.000 C 
ENDBRANCH  19  32
ENDBRANCH   1  19
TORSDOF 5
ENDMDL
MODEL 2
REMARK VINA RESULT:      -7.5      9.932     12.679
REMARK  Name = 
REMARK  8 active torsions:
REMARK  status: ('A' for Active; 'I' for Inactive)
REMARK    1  A    between atoms: C_1  and  O_2
REMARK    2  A    between atoms: O_2  and  C_3
REMARK    3  A    between atoms: C_7  and  N_8
REMARK    4  A    between atoms: C_9  and  C_11
REMARK    5  A    between atoms: C_11  and  N_12
REMARK    6  A    between atoms: C_11  and  C_29
REMARK    7  A    between atoms: C_29  and  C_30
REMARK    8  A    between atoms: C_29  and  C_31
REMARK                            x       y       z     vdW  Elec       q    Type
REMARK                         _______ _______ _______ _____ _____    ______ ____
ROOT
ATOM      1  N   UNL     1      -1.101  12.062  21.094  0.00  0.00    +0.000 N 
ATOM      2  C   UNL     1      -1.640  11.951  22.341  0.00  0.00    +0.000 C 
ATOM      3  O   UNL     1      -1.004  11.480  23.283  0.00  0.00    +0.000 OA
ATOM      4  N   UNL     1      -2.936  12.384  22.486  0.00  0.00    +0.000 N 
ATOM      5  C   UNL     1      -3.478  12.435  23.846  0.00  0.00    +0.000 C 
ATOM      6  C   UNL     1      -3.979  13.856  24.162  0.00  0.00    +0.000 C 
ATOM      7  C   UNL     1      -5.103  14.185  23.181  0.00  0.00    +0.000 C 
ATOM      8  C   UNL     1      -4.505  14.191  21.773  0.00  0.00    +0.000 C 
ATOM      9  C   UNL     1      -3.849  12.835  21.433  0.00  0.00    +0.000 C 
ATOM     10  C   UNL     1      -3.498  15.341  21.688  0.00  0.00    +0.000 C 
ATOM     11  N   UNL     1      -2.579  15.476  22.818  0.00  0.00    +0.000 N 
ATOM     12  C   UNL     1      -2.826  14.847  24.045  0.00  0.00    +0.000 A 
ATOM     13  C   UNL     1      -1.999  15.067  25.084  0.00  0.00    +0.000 A 
ATOM     14  C   UNL     1      -0.844  15.913  24.944  0.00  0.00    +0.000 A 
ATOM     15  C   UNL     1      -0.583  16.521  23.782  0.00  0.00    +0.000 A 
ATOM     16  C   UNL     1      -1.496  16.340  22.627  0.00  0.00    +0.000 A 
ATOM     17  O   UNL     1      -1.252  16.926  21.575  0.00  0.00    +0.000 OA
ATOM     18  H   UNL     1      -1.417  12.865  20.576  0.00  0.00    +0.000 HD
ENDROOT
BRANCH   1  19
ATOM     19  C   UNL     1       0.287  11.676  20.798  0.00  0.00    +0.000 C 
BRANCH  19  21
ATOM     20  N   UNL     1       1.320  13.308  19.280  0.00  0.00    +0.000 N 
ATOM     21  C   UNL     1       1.166  12.939  20.600  0.00  0.00    +0.000 C 
ATOM     22  O   UNL     1       1.700  13.474  21.572  0.00  0.00    +0.000 OA
ATOM     23  H   UNL     1       0.812  12.742  18.596  0.00  0.00    +0.000 HD
BRANCH  20  28
ATOM     24  C   UNL     1       2.095  16.750  18.211  0.00  0.00    +0.000 A 
ATOM     25  C   UNL     1       3.383  16.585  17.697  0.00  0.00    +0.000 A 
ATOM     26  C   UNL     1       4.010  15.343  17.726  0.00  0.00    +0.000 A 
ATOM     27  C   UNL     1       3.339  14.239  18.251  0.00  0.00    +0.000 A 
ATOM     28  C   UNL     1       2.053  14.384  18.756  0.00  0.00    +0.000 A 
ATOM     29  C   UNL     1       1.440  15.649  18.761  0.00  0.00    +0.000 A 
BRANCH  24  31
ATOM     30  C   UNL     1       0.956  18.355  16.869  0.00  0.00    +0.000 C 
ATOM     31  O   UNL     1       1.591  18.018  18.095  0.00  0.00    +0.000 OA
ENDBRANCH  24  31
ENDBRANCH  20  28
ENDBRANCH  19  21
BRANCH  19  32
ATOM     32  C   UNL     1       0.428  10.669  19.626  0.00  0.00    +0.000 C 
ATOM     33  C   UNL     1       0.957   9.313  20.100  0.00  0.00    +0.000 C 
ATOM     34  C   UNL     1      -0.892  10.465  18.882  0.00  0.00    +0.000 C 
ENDBRANCH  19  32
ENDBRANCH   1  19
TORSDOF 5
ENDMDL
MODEL 3
REMARK VINA RESULT:      -7.4     10.774     13.568
REMARK  Name = 
REMARK  8 active torsions:
REMARK  status: ('A' for Active; 'I' for Inactive)
REMARK    1  A    between atoms: C_1  and  O_2
REMARK    2  A    between atoms: O_2  and  C_3
REMARK    3  A    between atoms: C_7  and  N_8
REMARK    4  A    between atoms: C_9  and  C_11
REMARK    5  A    between atoms: C_11  and  N_12
REMARK    6  A    between atoms: C_11  and  C_29
REMARK    7  A    between atoms: C_29  and  C_30
REMARK    8  A    between atoms: C_29  and  C_31
REMARK                            x       y       z     vdW  Elec       q    Type
REMARK                         _______ _______ _______ _____ _____    ______ ____
ROOT
ATOM      1  N   UNL     1      -4.708  12.775  19.391  0.00  0.00    +0.000 N 
ATOM      2  C   UNL     1      -5.808  12.383  20.094  0.00  0.00    +0.000 C 
ATOM      3  O   UNL     1      -6.021  11.201  20.359  0.00  0.00    +0.000 OA
ATOM      4  N   UNL     1      -6.671  13.380  20.481  0.00  0.00    +0.000 N 
ATOM      5  C   UNL     1      -7.766  13.007  21.380  0.00  0.00    +0.000 C 
ATOM      6  C   UNL     1      -7.718  13.868  22.656  0.00  0.00    +0.000 C 
ATOM      7  C   UNL     1      -7.906  15.327  22.243  0.00  0.00    +0.000 C 
ATOM      8  C   UNL     1      -6.721  15.717  21.358  0.00  0.00    +0.000 C 
ATOM      9  C   UNL     1      -6.614  14.799  20.122  0.00  0.00    +0.000 C 
ATOM     10  C   UNL     1      -5.451  15.663  22.212  0.00  0.00    +0.000 C 
ATOM     11  N   UNL     1      -5.302  14.487  23.068  0.00  0.00    +0.000 N 
ATOM     12  C   UNL     1      -6.388  13.656  23.371  0.00  0.00    +0.000 A 
ATOM     13  C   UNL     1      -6.225  12.634  24.232  0.00  0.00    +0.000 A 
ATOM     14  C   UNL     1      -4.942  12.361  24.822  0.00  0.00    +0.000 A 
ATOM     15  C   UNL     1      -3.887  13.136  24.546  0.00  0.00    +0.000 A 
ATOM     16  C   UNL     1      -4.039  14.300  23.638  0.00  0.00    +0.000 A 
ATOM     17  O   UNL     1      -3.063  15.014  23.415  0.00  0.00    +0.000 OA
ATOM     18  H   UNL     1      -4.341  13.671  19.662  0.00  0.00    +0.000 HD
ENDROOT
BRANCH   1  19
ATOM     19  C   UNL     1      -3.678  11.824  18.945  0.00  0.00    +0.000 C 
BRANCH  19  21
ATOM     20  N   UNL     1      -1.496  12.826  18.429  0.00  0.00    +0.000 N 
ATOM     21  C   UNL     1      -2.277  12.284  19.428  0.00  0.00    +0.000 C 
ATOM     22  O   UNL     1      -1.936  12.090  20.594  0.00  0.00    +0.000 OA
ATOM     23  H   UNL     1      -1.936  12.902  17.508  0.00  0.00    +0.000 HD
BRANCH  20  28
ATOM     24  C   UNL     1       1.239  15.253  18.905  0.00  0.00    +0.000 A 
ATOM     25  C   UNL     1       2.354  14.444  18.681  0.00  0.00    +0.000 A 
ATOM     26  C   UNL     1       2.209  13.089  18.398  0.00  0.00    +0.000 A 
ATOM     27  C   UNL     1       0.933  12.532  18.312  0.00  0.00    +0.000 A 
ATOM     28  C   UNL     1      -0.187  13.326  18.520  0.00  0.00    +0.000 A 
ATOM     29  C   UNL     1      -0.034  14.684  18.846  0.00  0.00    +0.000 A 
BRANCH  24  31
ATOM     30  C   UNL     1       0.719  17.542  18.495  0.00  0.00    +0.000 C 
ATOM     31  O   UNL     1       1.526  16.571  19.148  0.00  0.00    +0.000 OA
ENDBRANCH  24  31
ENDBRANCH  20  28
ENDBRANCH  19  21
BRANCH  19  32
ATOM     32  C   UNL     1      -3.709  11.525  17.423  0.00  0.00    +0.000 C 
ATOM     33  C   UNL     1      -3.383  10.059  17.123  0.00  0.00    +0.000 C 
ATOM     34  C   UNL     1      -5.057  11.880  16.795  0.00  0.00    +0.000 C 
ENDBRANCH  19  32
ENDBRANCH   1  19
TORSDOF 5
ENDMDL
MODEL 4
REMARK VINA RESULT:      -7.3      9.789     12.435
REMARK  Name = 
REMARK  8 active torsions:
REMARK  status: ('A' for Active; 'I' for Inactive)
REMARK    1  A    between atoms: C_1  and  O_2
REMARK    2  A    between atoms: O_2  and  C_3
REMARK    3  A    between atoms: C_7  and  N_8
REMARK    4  A    between atoms: C_9  and  C_11
REMARK    5  A    between atoms: C_11  and  N_12
REMARK    6  A    between atoms: C_11  and  C_29
REMARK    7  A    between atoms: C_29  and  C_30
REMARK    8  A    between atoms: C_29  and  C_31
REMARK                            x       y       z     vdW  Elec       q    Type
REMARK                         _______ _______ _______ _____ _____    ______ ____
ROOT
ATOM      1  N   UNL     1       7.905  13.600  22.667  0.00  0.00    +0.000 N 
ATOM      2  C   UNL     1       8.780  12.812  21.980  0.00  0.00    +0.000 C 
ATOM      3  O   UNL     1       8.576  11.610  21.811  0.00  0.00    +0.000 OA
ATOM      4  N   UNL     1       9.907  13.431  21.494  0.00  0.00    +0.000 N 
ATOM      5  C   UNL     1      10.774  12.649  20.610  0.00  0.00    +0.000 C 
ATOM      6  C   UNL     1      10.957  13.380  19.268  0.00  0.00    +0.000 C 
ATOM      7  C   UNL     1      11.637  14.719  19.552  0.00  0.00    +0.000 C 
ATOM      8  C   UNL     1      10.690  15.546  20.422  0.00  0.00    +0.000 C 
ATOM      9  C   UNL     1      10.340  14.810  21.734  0.00  0.00    +0.000 C 
ATOM     10  C   UNL     1       9.436  15.858  19.600  0.00  0.00    +0.000 C 
ATOM     11  N   UNL     1       8.868  14.740  18.848  0.00  0.00    +0.000 N 
ATOM     12  C   UNL     1       9.601  13.573  18.597  0.00  0.00    +0.000 A 
ATOM     13  C   UNL     1       9.069  12.604  17.828  0.00  0.00    +0.000 A 
ATOM     14  C   UNL     1       7.743  12.734  17.286  0.00  0.00    +0.000 A 
ATOM     15  C   UNL     1       7.019  13.835  17.515  0.00  0.00    +0.000 A 
ATOM     16  C   UNL     1       7.589  14.945  18.319  0.00  0.00    +0.000 A 
ATOM     17  O   UNL     1       6.917  15.959  18.498  0.00  0.00    +0.000 OA
ATOM     18  H   UNL     1       7.844  14.545  22.327  0.00  0.00    +0.000 HD
ENDROOT
BRANCH   1  19
ATOM     19  C   UNL     1       6.639  13.084  23.210  0.00  0.00    +0.000 C 
BRANCH  19  21
ATOM     20  N   UNL     1       5.522  14.474  21.520  0.00  0.00    +0.000 N 
ATOM     21  C   UNL     1       5.466  14.023  22.823  0.00  0.00    +0.000 C 
ATOM     22  O   UNL     1       4.634  14.346  23.670  0.00  0.00    +0.000 OA
ATOM     23  H   UNL     1       6.293  14.111  20.954  0.00  0.00    +0.000 HD
BRANCH  20  28
ATOM     24  C   UNL     1       2.783  15.554  19.302  0.00  0.00    +0.000 A 
ATOM     25  C   UNL     1       2.851  16.941  19.452  0.00  0.00    +0.000 A 
ATOM     26  C   UNL     1       3.783  17.522  20.305  0.00  0.00    +0.000 A 
ATOM     27  C   UNL     1       4.681  16.716  21.005  0.00  0.00    +0.000 A 
ATOM     28  C   UNL     1       4.634  15.335  20.858  0.00  0.00    +0.000 A 
ATOM     29  C   UNL     1       3.663  14.751  20.026  0.00  0.00    +0.000 A 
BRANCH  24  31
ATOM     30  C   UNL     1       1.148  13.918  18.732  0.00  0.00    +0.000 C 
ATOM     31  O   UNL     1       1.835  15.121  18.412  0.00  0.00    +0.000 OA
ENDBRANCH  24  31
ENDBRANCH  20  28
ENDBRANCH  19  21
BRANCH  19  32
ATOM     32  C   UNL     1       6.678  12.784  24.731  0.00  0.00    +0.000 C 
ATOM     33  C   UNL     1       6.656  11.280  25.017  0.00  0.00    +0.000 C 
ATOM     34  C   UNL     1       7.898  13.409  25.409  0.00  0.00    +0.000 C 
ENDBRANCH  19  32
ENDBRANCH   1  19
TORSDOF 5
ENDMDL
MODEL 5
REMARK VINA RESULT:      -7.2     10.558     13.416
REMARK  Name = 
REMARK  8 active torsions:
REMARK  status: ('A' for Active; 'I' for Inactive)
REMARK    1  A    between atoms: C_1  and  O_2
REMARK    2  A    between atoms: O_2  and  C_3
REMARK    3  A    between atoms: C_7  and  N_8
REMARK    4  A    between atoms: C_9  and  C_11
REMARK    5  A    between atoms: C_11  and  N_12
REMARK    6  A    between atoms: C_11  and  C_29
REMARK    7  A    between atoms: C_29  and  C_30
REMARK    8  A    between atoms: C_29  and  C_31
REMARK                            x       y       z     vdW  Elec       q    Type
REMARK                         _______ _______ _______ _____ _____    ______ ____
ROOT
ATOM      1  N   UNL     1      -4.416  12.741  19.367  0.00  0.00    +0.000 N 
ATOM      2  C   UNL     1      -5.576  12.386  19.989  0.00  0.00    +0.000 C 
ATOM      3  O   UNL     1      -5.840  11.212  20.246  0.00  0.00    +0.000 OA
ATOM      4  N   UNL     1      -6.438  13.409  20.302  0.00  0.00    +0.000 N 
ATOM      5  C   UNL     1      -7.606  13.074  21.120  0.00  0.00    +0.000 C 
ATOM      6  C   UNL     1      -7.631  13.946  22.388  0.00  0.00    +0.000 C 
ATOM      7  C   UNL     1      -7.748  15.406  21.951  0.00  0.00    +0.000 C 
ATOM      8  C   UNL     1      -6.490  15.755  21.154  0.00  0.00    +0.000 C 
ATOM      9  C   UNL     1      -6.316  14.822  19.936  0.00  0.00    +0.000 C 
ATOM     10  C   UNL     1      -5.289  15.676  22.101  0.00  0.00    +0.000 C 
ATOM     11  N   UNL     1      -5.237  14.506  22.975  0.00  0.00    +0.000 N 
ATOM     12  C   UNL     1      -6.365  13.706  23.203  0.00  0.00    +0.000 A 
ATOM     13  C   UNL     1      -6.293  12.689  24.082  0.00  0.00    +0.000 A 
ATOM     14  C   UNL     1      -5.066  12.389  24.768  0.00  0.00    +0.000 A 
ATOM     15  C   UNL     1      -3.973  13.133  24.566  0.00  0.00    +0.000 A 
ATOM     16  C   UNL     1      -4.025  14.291  23.640  0.00  0.00    +0.000 A 
ATOM     17  O   UNL     1      -3.016  14.977  23.485  0.00  0.00    +0.000 OA
ATOM     18  H   UNL     1      -4.046  13.631  19.658  0.00  0.00    +0.000 HD
ENDROOT
BRANCH   1  19
ATOM     19  C   UNL     1      -3.382  11.759  19.007  0.00  0.00    +0.000 C 
BRANCH  19  21
ATOM     20  N   UNL     1      -1.484  13.312  18.857  0.00  0.00    +0.000 N 
ATOM     21  C   UNL     1      -1.996  12.222  19.530  0.00  0.00    +0.000 C 
ATOM     22  O   UNL     1      -1.433  11.587  20.422  0.00  0.00    +0.000 OA
ATOM     23  H   UNL     1      -2.084  13.711  18.131  0.00  0.00    +0.000 HD
BRANCH  20  28
ATOM     24  C   UNL     1       2.128  14.019  18.641  0.00  0.00    +0.000 A 
ATOM     25  C   UNL     1       2.225  15.156  19.446  0.00  0.00    +0.000 A 
ATOM     26  C   UNL     1       1.094  15.708  20.041  0.00  0.00    +0.000 A 
ATOM     27  C   UNL     1      -0.151  15.108  19.855  0.00  0.00    +0.000 A 
ATOM     28  C   UNL     1      -0.262  13.970  19.067  0.00  0.00    +0.000 A 
ATOM     29  C   UNL     1       0.876  13.440  18.435  0.00  0.00    +0.000 A 
BRANCH  24  31
ATOM     30  C   UNL     1       4.424  14.465  18.190  0.00  0.00    +0.000 C 
ATOM     31  O   UNL     1       3.321  13.570  18.140  0.00  0.00    +0.000 OA
ENDBRANCH  24  31
ENDBRANCH  20  28
ENDBRANCH  19  21
BRANCH  19  32
ATOM     32  C   UNL     1      -3.352  11.394  17.500  0.00  0.00    +0.000 C 
ATOM     33  C   UNL     1      -2.940   9.937  17.274  0.00  0.00    +0.000 C 
ATOM     34  C   UNL     1      -4.698  11.650  16.820  0.00  0.00    +0.000 C 
ENDBRANCH  19  32
ENDBRANCH   1  19
TORSDOF 5
ENDMDL
MODEL 6
REMARK VINA RESULT:      -7.2      9.641     12.496
REMARK  Name = 
REMARK  8 active torsions:
REMARK  status: ('A' for Active; 'I' for Inactive)
REMARK    1  A    between atoms: C_1  and  O_2
REMARK    2  A    between atoms: O_2  and  C_3
REMARK    3  A    between atoms: C_7  and  N_8
REMARK    4  A    between atoms: C_9  and  C_11
REMARK    5  A    between atoms: C_11  and  N_12
REMARK    6  A    between atoms: C_11  and  C_29
REMARK    7  A    between atoms: C_29  and  C_30
REMARK    8  A    between atoms: C_29  and  C_31
REMARK                            x       y       z     vdW  Elec       q    Type
REMARK                         _______ _______ _______ _____ _____    ______ ____
ROOT
ATOM      1  N   UNL     1      -1.178  12.003  21.139  0.00  0.00    +0.000 N 
ATOM      2  C   UNL     1      -1.707  11.916  22.392  0.00  0.00    +0.000 C 
ATOM      3  O   UNL     1      -1.061  11.471  23.340  0.00  0.00    +0.000 OA
ATOM      4  N   UNL     1      -3.005  12.343  22.537  0.00  0.00    +0.000 N 
ATOM      5  C   UNL     1      -3.537  12.421  23.899  0.00  0.00    +0.000 C 
ATOM      6  C   UNL     1      -4.046  13.845  24.188  0.00  0.00    +0.000 C 
ATOM      7  C   UNL     1      -5.179  14.145  23.208  0.00  0.00    +0.000 C 
ATOM      8  C   UNL     1      -4.592  14.123  21.797  0.00  0.00    +0.000 C 
ATOM      9  C   UNL     1      -3.929  12.765  21.481  0.00  0.00    +0.000 C 
ATOM     10  C   UNL     1      -3.593  15.278  21.678  0.00  0.00    +0.000 C 
ATOM     11  N   UNL     1      -2.667  15.444  22.798  0.00  0.00    +0.000 N 
ATOM     12  C   UNL     1      -2.901  14.841  24.041  0.00  0.00    +0.000 A 
ATOM     13  C   UNL     1      -2.067  15.089  25.068  0.00  0.00    +0.000 A 
ATOM     14  C   UNL     1      -0.920  15.940  24.901  0.00  0.00    +0.000 A 
ATOM     15  C   UNL     1      -0.671  16.524  23.724  0.00  0.00    +0.000 A 
ATOM     16  C   UNL     1      -1.592  16.311  22.580  0.00  0.00    +0.000 A 
ATOM     17  O   UNL     1      -1.359  16.875  21.513  0.00  0.00    +0.000 OA
ATOM     18  H   UNL     1      -1.503  12.792  20.606  0.00  0.00    +0.000 HD
ENDROOT
BRANCH   1  19
ATOM     19  C   UNL     1       0.210  11.620  20.841  0.00  0.00    +0.000 C 
BRANCH  19  21
ATOM     20  N   UNL     1       1.213  13.270  19.323  0.00  0.00    +0.000 N 
ATOM     21  C   UNL     1       1.086  12.885  20.642  0.00  0.00    +0.000 C 
ATOM     22  O   UNL     1       1.641  13.406  21.609  0.00  0.00    +0.000 OA
ATOM     23  H   UNL     1       0.690  12.714  18.643  0.00  0.00    +0.000 HD
BRANCH  20  28
ATOM     24  C   UNL     1       4.041  15.152  17.890  0.00  0.00    +0.000 A 
ATOM     25  C   UNL     1       3.485  16.429  17.786  0.00  0.00    +0.000 A 
ATOM     26  C   UNL     1       2.166  16.667  18.163  0.00  0.00    +0.000 A 
ATOM     27  C   UNL     1       1.393  15.626  18.677  0.00  0.00    +0.000 A 
ATOM     28  C   UNL     1       1.935  14.353  18.798  0.00  0.00    +0.000 A 
ATOM     29  C   UNL     1       3.254  14.109  18.377  0.00  0.00    +0.000 A 
BRANCH  24  31
ATOM     30  C   UNL     1       6.311  14.813  18.527  0.00  0.00    +0.000 C 
ATOM     31  O   UNL     1       5.353  15.067  17.507  0.00  0.00    +0.000 OA
ENDBRANCH  24  31
ENDBRANCH  20  28
ENDBRANCH  19  21
BRANCH  19  32
ATOM     32  C   UNL     1       0.352  10.612  19.670  0.00  0.00    +0.000 C 
ATOM     33  C   UNL     1       0.950   9.281  20.131  0.00  0.00    +0.000 C 
ATOM     34  C   UNL     1      -0.983  10.351  18.972  0.00  0.00    +0.000 C 
ENDBRANCH  19  32
ENDBRANCH   1  19
TORSDOF 5
ENDMDL
MODEL 7
REMARK VINA RESULT:      -7.2      9.692     11.953
REMARK  Name = 
REMARK  8 active torsions:
REMARK  status: ('A' for Active; 'I' for Inactive)
REMARK    1  A    between atoms: C_1  and  O_2
REMARK    2  A    between atoms: O_2  and  C_3
REMARK    3  A    between atoms: C_7  and  N_8
REMARK    4  A    between atoms: C_9  and  C_11
REMARK    5  A    between atoms: C_11  and  N_12
REMARK    6  A    between atoms: C_11  and  C_29
REMARK    7  A    between atoms: C_29  and  C_30
REMARK    8  A    between atoms: C_29  and  C_31
REMARK                            x       y       z     vdW  Elec       q    Type
REMARK                         _______ _______ _______ _____ _____    ______ ____
ROOT
ATOM      1  N   UNL     1       6.725  13.690  22.454  0.00  0.00    +0.000 N 
ATOM      2  C   UNL     1       6.558  15.042  22.474  0.00  0.00    +0.000 C 
ATOM      3  O   UNL     1       7.410  15.794  22.948  0.00  0.00    +0.000 OA
ATOM      4  N   UNL     1       5.383  15.521  21.945  0.00  0.00    +0.000 N 
ATOM      5  C   UNL     1       5.255  16.972  21.799  0.00  0.00    +0.000 C 
ATOM      6  C   UNL     1       4.945  17.331  20.334  0.00  0.00    +0.000 C 
ATOM      7  C   UNL     1       3.608  16.687  19.968  0.00  0.00    +0.000 C 
ATOM      8  C   UNL     1       3.779  15.171  20.064  0.00  0.00    +0.000 C 
ATOM      9  C   UNL     1       4.234  14.742  21.475  0.00  0.00    +0.000 C 
ATOM     10  C   UNL     1       4.783  14.736  18.992  0.00  0.00    +0.000 C 
ATOM     11  N   UNL     1       5.991  15.551  18.875  0.00  0.00    +0.000 N 
ATOM     12  C   UNL     1       6.070  16.834  19.433  0.00  0.00    +0.000 A 
ATOM     13  C   UNL     1       7.170  17.582  19.228  0.00  0.00    +0.000 A 
ATOM     14  C   UNL     1       8.282  17.072  18.472  0.00  0.00    +0.000 A 
ATOM     15  C   UNL     1       8.235  15.849  17.934  0.00  0.00    +0.000 A 
ATOM     16  C   UNL     1       7.021  15.011  18.098  0.00  0.00    +0.000 A 
ATOM     17  O   UNL     1       6.988  13.899  17.575  0.00  0.00    +0.000 OA
ATOM     18  H   UNL     1       6.319  13.235  21.653  0.00  0.00    +0.000 HD
ENDROOT
BRANCH   1  19
ATOM     19  C   UNL     1       7.947  13.038  22.949  0.00  0.00    +0.000 C 
BRANCH  19  21
ATOM     20  N   UNL     1       9.133  13.249  20.809  0.00  0.00    +0.000 N 
ATOM     21  C   UNL     1       8.709  12.364  21.778  0.00  0.00    +0.000 C 
ATOM     22  O   UNL     1       8.828  11.139  21.748  0.00  0.00    +0.000 OA
ATOM     23  H   UNL     1       8.939  14.237  20.989  0.00  0.00    +0.000 HD
BRANCH  20  28
ATOM     24  C   UNL     1      11.454  13.742  17.987  0.00  0.00    +0.000 A 
ATOM     25  C   UNL     1      11.248  12.565  17.264  0.00  0.00    +0.000 A 
ATOM     26  C   UNL     1      10.362  11.593  17.719  0.00  0.00    +0.000 A 
ATOM     27  C   UNL     1       9.649  11.803  18.900  0.00  0.00    +0.000 A 
ATOM     28  C   UNL     1       9.834  12.974  19.625  0.00  0.00    +0.000 A 
ATOM     29  C   UNL     1      10.761  13.933  19.182  0.00  0.00    +0.000 A 
BRANCH  24  31
ATOM     30  C   UNL     1      12.072  16.007  17.584  0.00  0.00    +0.000 C 
ATOM     31  O   UNL     1      12.333  14.621  17.411  0.00  0.00    +0.000 OA
ENDBRANCH  24  31
ENDBRANCH  20  28
ENDBRANCH  19  21
BRANCH  19  32
ATOM     32  C   UNL     1       7.711  12.068  24.137  0.00  0.00    +0.000 C 
ATOM     33  C   UNL     1       8.106  12.698  25.475  0.00  0.00    +0.000 C 
ATOM     34  C   UNL     1       6.259  11.594  24.211  0.00  0.00    +0.000 C 
ENDBRANCH  19  32
ENDBRANCH   1  19
TORSDOF 5
ENDMDL
MODEL 8
REMARK VINA RESULT:      -7.1      9.595     12.957
REMARK  Name = 
REMARK  8 active torsions:
REMARK  status: ('A' for Active; 'I' for Inactive)
REMARK    1  A    between atoms: C_1  and  O_2
REMARK    2  A    between atoms: O_2  and  C_3
REMARK    3  A    between atoms: C_7  and  N_8
REMARK    4  A    between atoms: C_9  and  C_11
REMARK    5  A    between atoms: C_11  and  N_12
REMARK    6  A    between atoms: C_11  and  C_29
REMARK    7  A    between atoms: C_29  and  C_30
REMARK    8  A    between atoms: C_29  and  C_31
REMARK                            x       y       z     vdW  Elec       q    Type
REMARK                         _______ _______ _______ _____ _____    ______ ____
ROOT
ATOM      1  N   UNL     1      -2.334  14.365  22.270  0.00  0.00    +0.000 N 
ATOM      2  C   UNL     1      -0.989  14.265  22.468  0.00  0.00    +0.000 C 
ATOM      3  O   UNL     1      -0.519  13.830  23.519  0.00  0.00    +0.000 OA
ATOM      4  N   UNL     1      -0.187  14.685  21.435  0.00  0.00    +0.000 N 
ATOM      5  C   UNL     1       1.250  14.428  21.554  0.00  0.00    +0.000 C 
ATOM      6  C   UNL     1       1.745  13.619  20.341  0.00  0.00    +0.000 C 
ATOM      7  C   UNL     1       1.506  14.461  19.088  0.00  0.00    +0.000 C 
ATOM      8  C   UNL     1      -0.003  14.663  18.945  0.00  0.00    +0.000 C 
ATOM      9  C   UNL     1      -0.602  15.344  20.194  0.00  0.00    +0.000 C 
ATOM     10  C   UNL     1      -0.645  13.297  18.684  0.00  0.00    +0.000 C 
ATOM     11  N   UNL     1      -0.183  12.199  19.533  0.00  0.00    +0.000 N 
ATOM     12  C   UNL     1       1.003  12.289  20.271  0.00  0.00    +0.000 A 
ATOM     13  C   UNL     1       1.434  11.223  20.972  0.00  0.00    +0.000 A 
ATOM     14  C   UNL     1       0.676  10.001  21.000  0.00  0.00    +0.000 A 
ATOM     15  C   UNL     1      -0.463   9.890  20.308  0.00  0.00    +0.000 A 
ATOM     16  C   UNL     1      -0.946  11.028  19.487  0.00  0.00    +0.000 A 
ATOM     17  O   UNL     1      -1.983  10.899  18.839  0.00  0.00    +0.000 OA
ATOM     18  H   UNL     1      -2.625  14.207  21.320  0.00  0.00    +0.000 HD
ENDROOT
BRANCH   1  19
ATOM     19  C   UNL     1      -3.314  13.918  23.272  0.00  0.00    +0.000 C 
BRANCH  19  21
ATOM     20  N   UNL     1      -4.488  13.137  21.261  0.00  0.00    +0.000 N 
ATOM     21  C   UNL     1      -4.348  12.962  22.622  0.00  0.00    +0.000 C 
ATOM     22  O   UNL     1      -4.998  12.190  23.327  0.00  0.00    +0.000 OA
ATOM     23  H   UNL     1      -3.874  13.835  20.835  0.00  0.00    +0.000 HD
BRANCH  20  28
ATOM     24  C   UNL     1      -5.751  11.730  18.096  0.00  0.00    +0.000 A 
ATOM     25  C   UNL     1      -6.956  11.163  18.519  0.00  0.00    +0.000 A 
ATOM     26  C   UNL     1      -7.342  11.221  19.854  0.00  0.00    +0.000 A 
ATOM     27  C   UNL     1      -6.532  11.874  20.783  0.00  0.00    +0.000 A 
ATOM     28  C   UNL     1      -5.336  12.452  20.377  0.00  0.00    +0.000 A 
ATOM     29  C   UNL     1      -4.931  12.355  19.034  0.00  0.00    +0.000 A 
BRANCH  24  31
ATOM     30  C   UNL     1      -4.207  11.206  16.359  0.00  0.00    +0.000 C 
ATOM     31  O   UNL     1      -5.509  11.621  16.752  0.00  0.00    +0.000 OA
ENDBRANCH  24  31
ENDBRANCH  20  28
ENDBRANCH  19  21
BRANCH  19  32
ATOM     32  C   UNL     1      -3.989  15.073  24.057  0.00  0.00    +0.000 C 
ATOM     33  C   UNL     1      -3.128  15.543  25.233  0.00  0.00    +0.000 C 
ATOM     34  C   UNL     1      -4.310  16.268  23.158  0.00  0.00    +0.000 C 
ENDBRANCH  19  32
ENDBRANCH   1  19
TORSDOF 5
ENDMDL
MODEL 9
REMARK VINA RESULT:      -7.1     10.056     12.823
REMARK  Name = 
REMARK  8 active torsions:
REMARK  status: ('A' for Active; 'I' for Inactive)
REMARK    1  A    between atoms: C_1  and  O_2
REMARK    2  A    between atoms: O_2  and  C_3
REMARK    3  A    between atoms: C_7  and  N_8
REMARK    4  A    between atoms: C_9  and  C_11
REMARK    5  A    between atoms: C_11  and  N_12
REMARK    6  A    between atoms: C_11  and  C_29
REMARK    7  A    between atoms: C_29  and  C_30
REMARK    8  A    between atoms: C_29  and  C_31
REMARK                            x       y       z     vdW  Elec       q    Type
REMARK                         _______ _______ _______ _____ _____    ______ ____
ROOT
ATOM      1  N   UNL     1      -1.647  12.163  20.625  0.00  0.00    +0.000 N 
ATOM      2  C   UNL     1      -1.871  12.030  21.963  0.00  0.00    +0.000 C 
ATOM      3  O   UNL     1      -1.011  11.587  22.724  0.00  0.00    +0.000 OA
ATOM      4  N   UNL     1      -3.113  12.407  22.413  0.00  0.00    +0.000 N 
ATOM      5  C   UNL     1      -3.321  12.436  23.863  0.00  0.00    +0.000 C 
ATOM      6  C   UNL     1      -3.792  13.834  24.302  0.00  0.00    +0.000 C 
ATOM      7  C   UNL     1      -5.128  14.114  23.616  0.00  0.00    +0.000 C 
ATOM      8  C   UNL     1      -4.880  14.144  22.108  0.00  0.00    +0.000 C 
ATOM      9  C   UNL     1      -4.267  12.818  21.610  0.00  0.00    +0.000 C 
ATOM     10  C   UNL     1      -3.970  15.337  21.798  0.00  0.00    +0.000 C 
ATOM     11  N   UNL     1      -2.818  15.511  22.681  0.00  0.00    +0.000 N 
ATOM     12  C   UNL     1      -2.741  14.873  23.926  0.00  0.00    +0.000 A 
ATOM     13  C   UNL     1      -1.702  15.129  24.742  0.00  0.00    +0.000 A 
ATOM     14  C   UNL     1      -0.649  16.024  24.342  0.00  0.00    +0.000 A 
ATOM     15  C   UNL     1      -0.695  16.641  23.157  0.00  0.00    +0.000 A 
ATOM     16  C   UNL     1      -1.847  16.421  22.249  0.00  0.00    +0.000 A 
ATOM     17  O   UNL     1      -1.882  17.016  21.173  0.00  0.00    +0.000 OA
ATOM     18  H   UNL     1      -2.109  12.951  20.204  0.00  0.00    +0.000 HD
ENDROOT
BRANCH   1  19
ATOM     19  C   UNL     1      -0.353  11.836  20.006  0.00  0.00    +0.000 C 
BRANCH  19  21
ATOM     20  N   UNL     1       1.259  13.582  19.383  0.00  0.00    +0.000 N 
ATOM     21  C   UNL     1       0.077  12.963  19.031  0.00  0.00    +0.000 C 
ATOM     22  O   UNL     1      -0.652  13.270  18.088  0.00  0.00    +0.000 OA
ATOM     23  H   UNL     1       1.731  13.205  20.208  0.00  0.00    +0.000 HD
BRANCH  20  28
ATOM     24  C   UNL     1       1.920  16.994  18.154  0.00  0.00    +0.000 A 
ATOM     25  C   UNL     1       3.104  16.795  17.441  0.00  0.00    +0.000 A 
ATOM     26  C   UNL     1       3.702  15.539  17.385  0.00  0.00    +0.000 A 
ATOM     27  C   UNL     1       3.102  14.456  18.028  0.00  0.00    +0.000 A 
ATOM     28  C   UNL     1       1.918  14.635  18.732  0.00  0.00    +0.000 A 
ATOM     29  C   UNL     1       1.341  15.914  18.819  0.00  0.00    +0.000 A 
BRANCH  24  31
ATOM     30  C   UNL     1       0.402  18.536  17.158  0.00  0.00    +0.000 C 
ATOM     31  O   UNL     1       1.430  18.272  18.104  0.00  0.00    +0.000 OA
ENDBRANCH  24  31
ENDBRANCH  20  28
ENDBRANCH  19  21
BRANCH  19  32
ATOM     32  C   UNL     1      -0.303  10.433  19.346  0.00  0.00    +0.000 C 
ATOM     33  C   UNL     1      -1.529  10.173  18.466  0.00  0.00    +0.000 C 
ATOM     34  C   UNL     1       0.966  10.233  18.516  0.00  0.00    +0.000 C 
ENDBRANCH  19  32
ENDBRANCH   1  19
TORSDOF 5
ENDMDL
