MODEL 1
REMARK VINA RESULT:      -7.5      0.000      0.000
REMARK  Name = 
REMARK  7 active torsions:
REMARK  status: ('A' for Active; 'I' for Inactive)
REMARK    1  A    between atoms: C_2  and  C_3
REMARK    2  A    between atoms: C_3  and  N_4
REMARK    3  A    between atoms: C_9  and  N_10
REMARK    4  A    between atoms: C_11  and  C_13
REMARK    5  A    between atoms: C_13  and  C_14
REMARK    6  A    between atoms: C_14  and  C_15
REMARK    7  A    between atoms: C_15  and  C_16
REMARK                            x       y       z     vdW  Elec       q    Type
REMARK                         _______ _______ _______ _____ _____    ______ ____
ROOT
ATOM      1  N   UNL     1       7.735   6.662  18.257  0.00  0.00    +0.000 N 
ATOM      2  C   UNL     1       7.832   8.000  17.938  0.00  0.00    +0.000 C 
ATOM      3  O   UNL     1       7.145   8.543  17.078  0.00  0.00    +0.000 OA
ATOM      4  H   UNL     1       7.997   6.404  19.201  0.00  0.00    +0.000 HD
ENDROOT
BRANCH   1  10
ATOM      5  N   UNL     1       4.688   4.540  18.386  0.00  0.00    +0.000 N 
ATOM      6  C   UNL     1       4.229   4.426  17.004  0.00  0.00    +0.000 C 
ATOM      7  C   UNL     1       5.148   3.583  16.122  0.00  0.00    +0.000 C 
ATOM      8  C   UNL     1       6.380   4.329  15.615  0.00  0.00    +0.000 C 
ATOM      9  C   UNL     1       7.331   4.806  16.710  0.00  0.00    +0.000 C 
ATOM     10  C   UNL     1       6.694   5.839  17.640  0.00  0.00    +0.000 C 
ATOM     11  C   UNL     1       5.889   5.134  18.753  0.00  0.00    +0.000 C 
ATOM     12  O   UNL     1       6.316   5.062  19.910  0.00  0.00    +0.000 OA
BRANCH   5  13
ATOM     13  C   UNL     1       3.895   3.905  19.435  0.00  0.00    +0.000 C 
BRANCH  13  15
ATOM     14  O   UNL     1       4.967   1.932  20.389  0.00  0.00    +0.000 OA
ATOM     15  C   UNL     1       4.182   2.422  19.582  0.00  0.00    +0.000 C 
ENDBRANCH  13  15
ENDBRANCH   5  13
ENDBRANCH   1  10
BRANCH   2  16
ATOM     16  C   UNL     1       8.890   8.744  18.726  0.00  0.00    +0.000 C 
BRANCH  16  17
ATOM     17  C   UNL     1       8.894  10.237  18.416  0.00  0.00    +0.000 C 
BRANCH  17  18
ATOM     18  C   UNL     1       9.616  11.051  19.493  0.00  0.00    +0.000 C 
BRANCH  18  19
ATOM     19  C   UNL     1      10.466  12.142  18.893  0.00  0.00    +0.000 A 
ATOM     20  C   UNL     1      10.884  12.058  17.558  0.00  0.00    +0.000 A 
ATOM     21  C   UNL     1      11.680  13.062  17.004  0.00  0.00    +0.000 A 
ATOM     22  C   UNL     1      12.071  14.152  17.780  0.00  0.00    +0.000 A 
ATOM     23  C   UNL     1      11.668  14.238  19.111  0.00  0.00    +0.000 A 
ATOM     24  C   UNL     1      10.871  13.237  19.666  0.00  0.00    +0.000 A 
ENDBRANCH  18  19
ENDBRANCH  17  18
ENDBRANCH  16  17
ENDBRANCH   2  16
TORSDOF 7
ENDMDL
MODEL 2
REMARK VINA RESULT:      -7.5      3.727      7.661
REMARK  Name = 
REMARK  7 active torsions:
REMARK  status: ('A' for Active; 'I' for Inactive)
REMARK    1  A    between atoms: C_2  and  C_3
REMARK    2  A    between atoms: C_3  and  N_4
REMARK    3  A    between atoms: C_9  and  N_10
REMARK    4  A    between atoms: C_11  and  C_13
REMARK    5  A    between atoms: C_13  and  C_14
REMARK    6  A    between atoms: C_14  and  C_15
REMARK    7  A    between atoms: C_15  and  C_16
REMARK                            x       y       z     vdW  Elec       q    Type
REMARK                         _______ _______ _______ _____ _____    ______ ____
ROOT
ATOM      1  N   UNL     1       3.925   3.364  18.898  0.00  0.00    +0.000 N 
ATOM      2  C   UNL     1       4.072   2.557  20.006  0.00  0.00    +0.000 C 
ATOM      3  O   UNL     1       5.124   1.998  20.302  0.00  0.00    +0.000 OA
ATOM      4  H   UNL     1       3.216   4.085  18.957  0.00  0.00    +0.000 HD
ENDROOT
BRANCH   1  10
ATOM      5  N   UNL     1       7.129   5.123  18.232  0.00  0.00    +0.000 N 
ATOM      6  C   UNL     1       7.717   4.446  17.079  0.00  0.00    +0.000 C 
ATOM      7  C   UNL     1       6.960   4.690  15.775  0.00  0.00    +0.000 C 
ATOM      8  C   UNL     1       5.715   3.823  15.605  0.00  0.00    +0.000 C 
ATOM      9  C   UNL     1       4.632   4.052  16.656  0.00  0.00    +0.000 C 
ATOM     10  C   UNL     1       5.086   3.684  18.068  0.00  0.00    +0.000 C 
ATOM     11  C   UNL     1       5.851   4.862  18.711  0.00  0.00    +0.000 C 
ATOM     12  O   UNL     1       5.331   5.570  19.579  0.00  0.00    +0.000 OA
BRANCH   5  13
ATOM     13  C   UNL     1       7.880   6.208  18.858  0.00  0.00    +0.000 C 
BRANCH  13  15
ATOM     14  O   UNL     1       7.304   7.636  16.966  0.00  0.00    +0.000 OA
ATOM     15  C   UNL     1       7.806   7.508  18.079  0.00  0.00    +0.000 C 
ENDBRANCH  13  15
ENDBRANCH   5  13
ENDBRANCH   1  10
BRANCH   2  16
ATOM     16  C   UNL     1       2.806   2.396  20.821  0.00  0.00    +0.000 C 
BRANCH  16  17
ATOM     17  C   UNL     1       2.338   3.717  21.424  0.00  0.00    +0.000 C 
BRANCH  17  18
ATOM     18  C   UNL     1       1.167   4.325  20.647  0.00  0.00    +0.000 C 
BRANCH  18  19
ATOM     19  C   UNL     1       1.547   5.629  19.994  0.00  0.00    +0.000 A 
ATOM     20  C   UNL     1       1.977   5.653  18.661  0.00  0.00    +0.000 A 
ATOM     21  C   UNL     1       2.339   6.859  18.057  0.00  0.00    +0.000 A 
ATOM     22  C   UNL     1       2.281   8.048  18.782  0.00  0.00    +0.000 A 
ATOM     23  C   UNL     1       1.863   8.032  20.111  0.00  0.00    +0.000 A 
ATOM     24  C   UNL     1       1.499   6.829  20.716  0.00  0.00    +0.000 A 
ENDBRANCH  18  19
ENDBRANCH  17  18
ENDBRANCH  16  17
ENDBRANCH   2  16
TORSDOF 7
ENDMDL
MODEL 3
REMARK VINA RESULT:      -7.3      3.759      7.786
REMARK  Name = 
REMARK  7 active torsions:
REMARK  status: ('A' for Active; 'I' for Inactive)
REMARK    1  A    between atoms: C_2  and  C_3
REMARK    2  A    between atoms: C_3  and  N_4
REMARK    3  A    between atoms: C_9  and  N_10
REMARK    4  A    between atoms: C_11  and  C_13
REMARK    5  A    between atoms: C_13  and  C_14
REMARK    6  A    between atoms: C_14  and  C_15
REMARK    7  A    between atoms: C_15  and  C_16
REMARK                            x       y       z     vdW  Elec       q    Type
REMARK                         _______ _______ _______ _____ _____    ______ ____
ROOT
ATOM      1  N   UNL     1       3.930   3.263  18.856  0.00  0.00    +0.000 N 
ATOM      2  C   UNL     1       4.117   2.512  19.997  0.00  0.00    +0.000 C 
ATOM      3  O   UNL     1       5.199   2.038  20.327  0.00  0.00    +0.000 OA
ATOM      4  H   UNL     1       3.173   3.936  18.879  0.00  0.00    +0.000 HD
ENDROOT
BRANCH   1  10
ATOM      5  N   UNL     1       7.047   5.170  18.183  0.00  0.00    +0.000 N 
ATOM      6  C   UNL     1       7.674   4.507  17.042  0.00  0.00    +0.000 C 
ATOM      7  C   UNL     1       6.913   4.698  15.731  0.00  0.00    +0.000 C 
ATOM      8  C   UNL     1       5.714   3.768  15.566  0.00  0.00    +0.000 C 
ATOM      9  C   UNL     1       4.614   3.957  16.609  0.00  0.00    +0.000 C 
ATOM     10  C   UNL     1       5.079   3.629  18.028  0.00  0.00    +0.000 C 
ATOM     11  C   UNL     1       5.781   4.852  18.659  0.00  0.00    +0.000 C 
ATOM     12  O   UNL     1       5.222   5.544  19.516  0.00  0.00    +0.000 OA
BRANCH   5  13
ATOM     13  C   UNL     1       7.740   6.298  18.798  0.00  0.00    +0.000 C 
BRANCH  13  15
ATOM     14  O   UNL     1       8.476   8.485  18.006  0.00  0.00    +0.000 OA
ATOM     15  C   UNL     1       7.662   7.567  17.970  0.00  0.00    +0.000 C 
ENDBRANCH  13  15
ENDBRANCH   5  13
ENDBRANCH   1  10
BRANCH   2  16
ATOM     16  C   UNL     1       2.853   2.296  20.804  0.00  0.00    +0.000 C 
BRANCH  16  17
ATOM     17  C   UNL     1       2.335   3.592  21.420  0.00  0.00    +0.000 C 
BRANCH  17  18
ATOM     18  C   UNL     1       1.184   4.197  20.612  0.00  0.00    +0.000 C 
BRANCH  18  19
ATOM     19  C   UNL     1       1.578   5.505  19.973  0.00  0.00    +0.000 A 
ATOM     20  C   UNL     1       1.521   6.696  20.708  0.00  0.00    +0.000 A 
ATOM     21  C   UNL     1       1.875   7.909  20.115  0.00  0.00    +0.000 A 
ATOM     22  C   UNL     1       2.280   7.943  18.782  0.00  0.00    +0.000 A 
ATOM     23  C   UNL     1       2.331   6.765  18.041  0.00  0.00    +0.000 A 
ATOM     24  C   UNL     1       1.980   5.551  18.632  0.00  0.00    +0.000 A 
ENDBRANCH  18  19
ENDBRANCH  17  18
ENDBRANCH  16  17
ENDBRANCH   2  16
TORSDOF 7
ENDMDL
MODEL 4
REMARK VINA RESULT:      -7.3      0.585      1.164
REMARK  Name = 
REMARK  7 active torsions:
REMARK  status: ('A' for Active; 'I' for Inactive)
REMARK    1  A    between atoms: C_2  and  C_3
REMARK    2  A    between atoms: C_3  and  N_4
REMARK    3  A    between atoms: C_9  and  N_10
REMARK    4  A    between atoms: C_11  and  C_13
REMARK    5  A    between atoms: C_13  and  C_14
REMARK    6  A    between atoms: C_14  and  C_15
REMARK    7  A    between atoms: C_15  and  C_16
REMARK                            x       y       z     vdW  Elec       q    Type
REMARK                         _______ _______ _______ _____ _____    ______ ____
ROOT
ATOM      1  N   UNL     1       7.776   6.670  18.314  0.00  0.00    +0.000 N 
ATOM      2  C   UNL     1       7.908   8.004  17.995  0.00  0.00    +0.000 C 
ATOM      3  O   UNL     1       7.286   8.549  17.088  0.00  0.00    +0.000 OA
ATOM      4  H   UNL     1       7.971   6.415  19.274  0.00  0.00    +0.000 HD
ENDROOT
BRANCH   1  10
ATOM      5  N   UNL     1       4.749   4.516  18.260  0.00  0.00    +0.000 N 
ATOM      6  C   UNL     1       4.350   4.434  16.857  0.00  0.00    +0.000 C 
ATOM      7  C   UNL     1       5.314   3.622  15.994  0.00  0.00    +0.000 C 
ATOM      8  C   UNL     1       6.559   4.393  15.558  0.00  0.00    +0.000 C 
ATOM      9  C   UNL     1       7.457   4.851  16.704  0.00  0.00    +0.000 C 
ATOM     10  C   UNL     1       6.771   5.853  17.633  0.00  0.00    +0.000 C 
ATOM     11  C   UNL     1       5.927   5.112  18.693  0.00  0.00    +0.000 C 
ATOM     12  O   UNL     1       6.306   5.014  19.864  0.00  0.00    +0.000 OA
BRANCH   5  13
ATOM     13  C   UNL     1       3.919   3.848  19.258  0.00  0.00    +0.000 C 
BRANCH  13  15
ATOM     14  O   UNL     1       3.072   1.674  18.546  0.00  0.00    +0.000 OA
ATOM     15  C   UNL     1       3.929   2.336  19.123  0.00  0.00    +0.000 C 
ENDBRANCH  13  15
ENDBRANCH   5  13
ENDBRANCH   1  10
BRANCH   2  16
ATOM     16  C   UNL     1       8.918   8.743  18.849  0.00  0.00    +0.000 C 
BRANCH  16  17
ATOM     17  C   UNL     1       8.966  10.233  18.522  0.00  0.00    +0.000 C 
BRANCH  17  18
ATOM     18  C   UNL     1       9.802  11.020  19.535  0.00  0.00    +0.000 C 
BRANCH  18  19
ATOM     19  C   UNL     1      10.531  12.169  18.885  0.00  0.00    +0.000 A 
ATOM     20  C   UNL     1      10.913  13.283  19.643  0.00  0.00    +0.000 A 
ATOM     21  C   UNL     1      11.579  14.352  19.042  0.00  0.00    +0.000 A 
ATOM     22  C   UNL     1      11.861  14.320  17.677  0.00  0.00    +0.000 A 
ATOM     23  C   UNL     1      11.476  13.220  16.913  0.00  0.00    +0.000 A 
ATOM     24  C   UNL     1      10.812  12.150  17.513  0.00  0.00    +0.000 A 
ENDBRANCH  18  19
ENDBRANCH  17  18
ENDBRANCH  16  17
ENDBRANCH   2  16
TORSDOF 7
ENDMDL
MODEL 5
REMARK VINA RESULT:      -7.1      4.906      7.167
REMARK  Name = 
REMARK  7 active torsions:
REMARK  status: ('A' for Active; 'I' for Inactive)
REMARK    1  A    between atoms: C_2  and  C_3
REMARK    2  A    between atoms: C_3  and  N_4
REMARK    3  A    between atoms: C_9  and  N_10
REMARK    4  A    between atoms: C_11  and  C_13
REMARK    5  A    between atoms: C_13  and  C_14
REMARK    6  A    between atoms: C_14  and  C_15
REMARK    7  A    between atoms: C_15  and  C_16
REMARK                            x       y       z     vdW  Elec       q    Type
REMARK                         _______ _______ _______ _____ _____    ______ ____
ROOT
ATOM      1  N   UNL     1       5.219   5.774  18.463  0.00  0.00    +0.000 N 
ATOM      2  C   UNL     1       6.499   5.514  18.904  0.00  0.00    +0.000 C 
ATOM      3  O   UNL     1       6.762   5.155  20.048  0.00  0.00    +0.000 OA
ATOM      4  H   UNL     1       5.049   5.646  17.472  0.00  0.00    +0.000 HD
ENDROOT
BRANCH   1  10
ATOM      5  N   UNL     1       2.667   3.552  19.996  0.00  0.00    +0.000 N 
ATOM      6  C   UNL     1       2.102   4.311  21.109  0.00  0.00    +0.000 C 
ATOM      7  C   UNL     1       1.246   5.497  20.668  0.00  0.00    +0.000 C 
ATOM      8  C   UNL     1       2.050   6.735  20.278  0.00  0.00    +0.000 C 
ATOM      9  C   UNL     1       2.975   6.541  19.079  0.00  0.00    +0.000 C 
ATOM     10  C   UNL     1       4.078   5.514  19.340  0.00  0.00    +0.000 C 
ATOM     11  C   UNL     1       3.556   4.085  19.072  0.00  0.00    +0.000 C 
ATOM     12  O   UNL     1       3.878   3.463  18.055  0.00  0.00    +0.000 OA
BRANCH   5  13
ATOM     13  C   UNL     1       2.196   2.187  19.778  0.00  0.00    +0.000 C 
BRANCH  13  15
ATOM     14  O   UNL     1       0.568   2.937  18.122  0.00  0.00    +0.000 OA
ATOM     15  C   UNL     1       0.908   2.124  18.977  0.00  0.00    +0.000 C 
ENDBRANCH  13  15
ENDBRANCH   5  13
ENDBRANCH   1  10
BRANCH   2  16
ATOM     16  C   UNL     1       7.568   5.738  17.854  0.00  0.00    +0.000 C 
BRANCH  16  17
ATOM     17  C   UNL     1       7.383   4.829  16.644  0.00  0.00    +0.000 C 
BRANCH  17  18
ATOM     18  C   UNL     1       7.498   5.594  15.323  0.00  0.00    +0.000 C 
BRANCH  18  19
ATOM     19  C   UNL     1       6.882   4.829  14.178  0.00  0.00    +0.000 A 
ATOM     20  C   UNL     1       5.641   4.198  14.337  0.00  0.00    +0.000 A 
ATOM     21  C   UNL     1       5.074   3.481  13.282  0.00  0.00    +0.000 A 
ATOM     22  C   UNL     1       5.745   3.382  12.064  0.00  0.00    +0.000 A 
ATOM     23  C   UNL     1       6.984   3.998  11.901  0.00  0.00    +0.000 A 
ATOM     24  C   UNL     1       7.552   4.717  12.953  0.00  0.00    +0.000 A 
ENDBRANCH  18  19
ENDBRANCH  17  18
ENDBRANCH  16  17
ENDBRANCH   2  16
TORSDOF 7
ENDMDL
MODEL 6
REMARK VINA RESULT:      -7.1      6.054      8.918
REMARK  Name = 
REMARK  7 active torsions:
REMARK  status: ('A' for Active; 'I' for Inactive)
REMARK    1  A    between atoms: C_2  and  C_3
REMARK    2  A    between atoms: C_3  and  N_4
REMARK    3  A    between atoms: C_9  and  N_10
REMARK    4  A    between atoms: C_11  and  C_13
REMARK    5  A    between atoms: C_13  and  C_14
REMARK    6  A    between atoms: C_14  and  C_15
REMARK    7  A    between atoms: C_15  and  C_16
REMARK                            x       y       z     vdW  Elec       q    Type
REMARK                         _______ _______ _______ _____ _____    ______ ____
ROOT
ATOM      1  N   UNL     1       2.553   7.733  17.951  0.00  0.00    +0.000 N 
ATOM      2  C   UNL     1       1.944   8.586  18.847  0.00  0.00    +0.000 C 
ATOM      3  O   UNL     1       1.667   8.272  20.000  0.00  0.00    +0.000 OA
ATOM      4  H   UNL     1       3.106   8.166  17.221  0.00  0.00    +0.000 HD
ENDROOT
BRANCH   1  10
ATOM      5  N   UNL     1       5.148   5.115  18.412  0.00  0.00    +0.000 N 
ATOM      6  C   UNL     1       4.568   4.145  19.338  0.00  0.00    +0.000 C 
ATOM      7  C   UNL     1       3.423   3.333  18.734  0.00  0.00    +0.000 C 
ATOM      8  C   UNL     1       2.083   4.065  18.716  0.00  0.00    +0.000 C 
ATOM      9  C   UNL     1       2.063   5.334  17.868  0.00  0.00    +0.000 C 
ATOM     10  C   UNL     1       3.009   6.415  18.393  0.00  0.00    +0.000 C 
ATOM     11  C   UNL     1       4.440   6.177  17.865  0.00  0.00    +0.000 C 
ATOM     12  O   UNL     1       4.918   6.873  16.963  0.00  0.00    +0.000 OA
BRANCH   5  13
ATOM     13  C   UNL     1       6.518   4.903  17.953  0.00  0.00    +0.000 C 
BRANCH  13  15
ATOM     14  O   UNL     1       7.546   5.456  20.095  0.00  0.00    +0.000 OA
ATOM     15  C   UNL     1       7.555   5.526  18.869  0.00  0.00    +0.000 C 
ENDBRANCH  13  15
ENDBRANCH   5  13
ENDBRANCH   1  10
BRANCH   2  16
ATOM     16  C   UNL     1       1.617   9.949  18.272  0.00  0.00    +0.000 C 
BRANCH  16  17
ATOM     17  C   UNL     1       0.144  10.307  18.445  0.00  0.00    +0.000 C 
BRANCH  17  18
ATOM     18  C   UNL     1      -0.768   9.429  17.584  0.00  0.00    +0.000 C 
BRANCH  18  19
ATOM     19  C   UNL     1      -2.061  10.128  17.247  0.00  0.00    +0.000 A 
ATOM     20  C   UNL     1      -2.559  10.100  15.938  0.00  0.00    +0.000 A 
ATOM     21  C   UNL     1      -3.750  10.755  15.621  0.00  0.00    +0.000 A 
ATOM     22  C   UNL     1      -4.448  11.450  16.607  0.00  0.00    +0.000 A 
ATOM     23  C   UNL     1      -3.955  11.492  17.910  0.00  0.00    +0.000 A 
ATOM     24  C   UNL     1      -2.766  10.836  18.229  0.00  0.00    +0.000 A 
ENDBRANCH  18  19
ENDBRANCH  17  18
ENDBRANCH  16  17
ENDBRANCH   2  16
TORSDOF 7
ENDMDL
MODEL 7
REMARK VINA RESULT:      -7.1      7.185     10.682
REMARK  Name = 
REMARK  7 active torsions:
REMARK  status: ('A' for Active; 'I' for Inactive)
REMARK    1  A    between atoms: C_2  and  C_3
REMARK    2  A    between atoms: C_3  and  N_4
REMARK    3  A    between atoms: C_9  and  N_10
REMARK    4  A    between atoms: C_11  and  C_13
REMARK    5  A    between atoms: C_13  and  C_14
REMARK    6  A    between atoms: C_14  and  C_15
REMARK    7  A    between atoms: C_15  and  C_16
REMARK                            x       y       z     vdW  Elec       q    Type
REMARK                         _______ _______ _______ _____ _____    ______ ____
ROOT
ATOM      1  N   UNL     1       0.550   9.379  18.424  0.00  0.00    +0.000 N 
ATOM      2  C   UNL     1       1.833   9.671  18.013  0.00  0.00    +0.000 C 
ATOM      3  O   UNL     1       2.262  10.814  17.893  0.00  0.00    +0.000 OA
ATOM      4  H   UNL     1       0.417   8.488  18.888  0.00  0.00    +0.000 HD
ENDROOT
BRANCH   1  10
ATOM      5  N   UNL     1      -1.049  11.514  21.010  0.00  0.00    +0.000 N 
ATOM      6  C   UNL     1      -1.642  12.633  20.284  0.00  0.00    +0.000 C 
ATOM      7  C   UNL     1      -2.846  12.239  19.430  0.00  0.00    +0.000 C 
ATOM      8  C   UNL     1      -2.478  11.610  18.088  0.00  0.00    +0.000 C 
ATOM      9  C   UNL     1      -1.710  10.294  18.192  0.00  0.00    +0.000 C 
ATOM     10  C   UNL     1      -0.342  10.456  18.854  0.00  0.00    +0.000 C 
ATOM     11  C   UNL     1      -0.479  10.408  20.391  0.00  0.00    +0.000 C 
ATOM     12  O   UNL     1      -0.141   9.411  21.037  0.00  0.00    +0.000 OA
BRANCH   5  13
ATOM     13  C   UNL     1      -1.148  11.500  22.467  0.00  0.00    +0.000 C 
BRANCH  13  15
ATOM     14  O   UNL     1      -0.422  13.595  23.485  0.00  0.00    +0.000 OA
ATOM     15  C   UNL     1      -1.330  12.884  23.063  0.00  0.00    +0.000 C 
ENDBRANCH  13  15
ENDBRANCH   5  13
ENDBRANCH   1  10
BRANCH   2  16
ATOM     16  C   UNL     1       2.669   8.448  17.694  0.00  0.00    +0.000 C 
BRANCH  16  17
ATOM     17  C   UNL     1       2.488   7.342  18.729  0.00  0.00    +0.000 C 
BRANCH  17  18
ATOM     18  C   UNL     1       2.712   5.950  18.132  0.00  0.00    +0.000 C 
BRANCH  18  19
ATOM     19  C   UNL     1       2.201   4.863  19.044  0.00  0.00    +0.000 A 
ATOM     20  C   UNL     1       1.398   3.834  18.535  0.00  0.00    +0.000 A 
ATOM     21  C   UNL     1       0.916   2.832  19.378  0.00  0.00    +0.000 A 
ATOM     22  C   UNL     1       1.225   2.855  20.737  0.00  0.00    +0.000 A 
ATOM     23  C   UNL     1       2.015   3.880  21.254  0.00  0.00    +0.000 A 
ATOM     24  C   UNL     1       2.500   4.881  20.412  0.00  0.00    +0.000 A 
ENDBRANCH  18  19
ENDBRANCH  17  18
ENDBRANCH  16  17
ENDBRANCH   2  16
TORSDOF 7
ENDMDL
MODEL 8
REMARK VINA RESULT:      -7.0      6.041      8.614
REMARK  Name = 
REMARK  7 active torsions:
REMARK  status: ('A' for Active; 'I' for Inactive)
REMARK    1  A    between atoms: C_2  and  C_3
REMARK    2  A    between atoms: C_3  and  N_4
REMARK    3  A    between atoms: C_9  and  N_10
REMARK    4  A    between atoms: C_11  and  C_13
REMARK    5  A    between atoms: C_13  and  C_14
REMARK    6  A    between atoms: C_14  and  C_15
REMARK    7  A    between atoms: C_15  and  C_16
REMARK                            x       y       z     vdW  Elec       q    Type
REMARK                         _______ _______ _______ _____ _____    ______ ____
ROOT
ATOM      1  N   UNL     1       2.306   7.561  19.115  0.00  0.00    +0.000 N 
ATOM      2  C   UNL     1       1.819   8.686  18.484  0.00  0.00    +0.000 C 
ATOM      3  O   UNL     1       1.877   8.860  17.271  0.00  0.00    +0.000 OA
ATOM      4  H   UNL     1       1.863   7.308  19.990  0.00  0.00    +0.000 HD
ENDROOT
BRANCH   1  10
ATOM      5  N   UNL     1       2.909   3.949  18.487  0.00  0.00    +0.000 N 
ATOM      6  C   UNL     1       3.308   3.855  17.085  0.00  0.00    +0.000 C 
ATOM      7  C   UNL     1       4.687   4.446  16.800  0.00  0.00    +0.000 C 
ATOM      8  C   UNL     1       4.697   5.967  16.664  0.00  0.00    +0.000 C 
ATOM      9  C   UNL     1       4.275   6.721  17.923  0.00  0.00    +0.000 C 
ATOM     10  C   UNL     1       2.825   6.446  18.322  0.00  0.00    +0.000 C 
ATOM     11  C   UNL     1       2.734   5.152  19.160  0.00  0.00    +0.000 C 
ATOM     12  O   UNL     1       2.561   5.187  20.382  0.00  0.00    +0.000 OA
BRANCH   5  13
ATOM     13  C   UNL     1       2.786   2.715  19.258  0.00  0.00    +0.000 C 
BRANCH  13  15
ATOM     14  O   UNL     1       5.158   2.883  19.803  0.00  0.00    +0.000 OA
ATOM     15  C   UNL     1       4.092   2.281  19.898  0.00  0.00    +0.000 C 
ENDBRANCH  13  15
ENDBRANCH   5  13
ENDBRANCH   1  10
BRANCH   2  16
ATOM     16  C   UNL     1       1.227   9.712  19.428  0.00  0.00    +0.000 C 
BRANCH  16  17
ATOM     17  C   UNL     1       0.287  10.677  18.710  0.00  0.00    +0.000 C 
BRANCH  17  18
ATOM     18  C   UNL     1      -1.165  10.518  19.169  0.00  0.00    +0.000 C 
BRANCH  18  19
ATOM     19  C   UNL     1      -2.127  10.590  18.010  0.00  0.00    +0.000 A 
ATOM     20  C   UNL     1      -1.907   9.820  16.860  0.00  0.00    +0.000 A 
ATOM     21  C   UNL     1      -2.791   9.892  15.783  0.00  0.00    +0.000 A 
ATOM     22  C   UNL     1      -3.897  10.738  15.842  0.00  0.00    +0.000 A 
ATOM     23  C   UNL     1      -4.119  11.514  16.978  0.00  0.00    +0.000 A 
ATOM     24  C   UNL     1      -3.237  11.442  18.057  0.00  0.00    +0.000 A 
ENDBRANCH  18  19
ENDBRANCH  17  18
ENDBRANCH  16  17
ENDBRANCH   2  16
TORSDOF 7
ENDMDL
MODEL 9
REMARK VINA RESULT:      -7.0      6.140      8.706
REMARK  Name = 
REMARK  7 active torsions:
REMARK  status: ('A' for Active; 'I' for Inactive)
REMARK    1  A    between atoms: C_2  and  C_3
REMARK    2  A    between atoms: C_3  and  N_4
REMARK    3  A    between atoms: C_9  and  N_10
REMARK    4  A    between atoms: C_11  and  C_13
REMARK    5  A    between atoms: C_13  and  C_14
REMARK    6  A    between atoms: C_14  and  C_15
REMARK    7  A    between atoms: C_15  and  C_16
REMARK                            x       y       z     vdW  Elec       q    Type
REMARK                         _______ _______ _______ _____ _____    ______ ____
ROOT
ATOM      1  N   UNL     1       2.249   7.476  19.073  0.00  0.00    +0.000 N 
ATOM      2  C   UNL     1       1.954   8.658  18.428  0.00  0.00    +0.000 C 
ATOM      3  O   UNL     1       2.191   8.861  17.241  0.00  0.00    +0.000 OA
ATOM      4  H   UNL     1       1.670   7.241  19.870  0.00  0.00    +0.000 HD
ENDROOT
BRANCH   1  10
ATOM      5  N   UNL     1       2.782   3.844  18.502  0.00  0.00    +0.000 N 
ATOM      6  C   UNL     1       3.233   3.725  17.118  0.00  0.00    +0.000 C 
ATOM      7  C   UNL     1       4.638   4.278  16.884  0.00  0.00    +0.000 C 
ATOM      8  C   UNL     1       4.693   5.796  16.734  0.00  0.00    +0.000 C 
ATOM      9  C   UNL     1       4.241   6.574  17.969  0.00  0.00    +0.000 C 
ATOM     10  C   UNL     1       2.769   6.340  18.311  0.00  0.00    +0.000 C 
ATOM     11  C   UNL     1       2.612   5.057  19.156  0.00  0.00    +0.000 C 
ATOM     12  O   UNL     1       2.391   5.109  20.371  0.00  0.00    +0.000 OA
BRANCH   5  13
ATOM     13  C   UNL     1       2.596   2.621  19.279  0.00  0.00    +0.000 C 
BRANCH  13  15
ATOM     14  O   UNL     1       0.318   2.261  18.483  0.00  0.00    +0.000 OA
ATOM     15  C   UNL     1       1.140   2.206  19.393  0.00  0.00    +0.000 C 
ENDBRANCH  13  15
ENDBRANCH   5  13
ENDBRANCH   1  10
BRANCH   2  16
ATOM     16  C   UNL     1       1.332   9.709  19.326  0.00  0.00    +0.000 C 
BRANCH  16  17
ATOM     17  C   UNL     1       0.307  10.562  18.586  0.00  0.00    +0.000 C 
BRANCH  17  18
ATOM     18  C   UNL     1      -1.122  10.299  19.070  0.00  0.00    +0.000 C 
BRANCH  18  19
ATOM     19  C   UNL     1      -2.129  10.480  17.963  0.00  0.00    +0.000 A 
ATOM     20  C   UNL     1      -1.969   9.807  16.745  0.00  0.00    +0.000 A 
ATOM     21  C   UNL     1      -2.895   9.980  15.715  0.00  0.00    +0.000 A 
ATOM     22  C   UNL     1      -3.984  10.833  15.891  0.00  0.00    +0.000 A 
ATOM     23  C   UNL     1      -4.146  11.513  17.096  0.00  0.00    +0.000 A 
ATOM     24  C   UNL     1      -3.223  11.340  18.127  0.00  0.00    +0.000 A 
ENDBRANCH  18  19
ENDBRANCH  17  18
ENDBRANCH  16  17
ENDBRANCH   2  16
TORSDOF 7
ENDMDL
