MODEL 1
REMARK VINA RESULT:      -8.2      0.000      0.000
REMARK  Name = 
REMARK  8 active torsions:
REMARK  status: ('A' for Active; 'I' for Inactive)
REMARK    1  A    between atoms: C_1  and  O_2
REMARK    2  A    between atoms: O_2  and  C_3
REMARK    3  A    between atoms: C_5  and  N_6
REMARK    4  A    between atoms: C_7  and  C_9
REMARK    5  A    between atoms: N_13  and  S_14
REMARK    6  A    between atoms: S_14  and  C_17
REMARK    7  A    between atoms: C_31  and  O_32
REMARK    8  A    between atoms: O_32  and  C_33
REMARK                            x       y       z     vdW  Elec       q    Type
REMARK                         _______ _______ _______ _____ _____    ______ ____
ROOT
ATOM      1  C   UNL     1      -0.982  13.121  21.931  0.00  0.00    +0.000 C 
ATOM      2  C   UNL     1       0.168  14.098  21.694  0.00  0.00    +0.000 C 
ATOM      3  C   UNL     1       1.188  13.576  20.682  0.00  0.00    +0.000 C 
ATOM      4  C   UNL     1       1.634  12.147  21.001  0.00  0.00    +0.000 C 
ATOM      5  N   UNL     1       0.439  11.257  21.052  0.00  0.00    +0.000 NA
ATOM      6  C   UNL     1      -0.467  11.715  22.182  0.00  0.00    +0.000 C 
ENDROOT
BRANCH   1   8
ATOM      7  N   UNL     1      -2.240  12.008  20.128  0.00  0.00    +0.000 N 
ATOM      8  C   UNL     1      -2.042  13.171  20.793  0.00  0.00    +0.000 C 
ATOM      9  O   UNL     1      -2.542  14.265  20.551  0.00  0.00    +0.000 OA
ATOM     10  H   UNL     1      -1.871  11.156  20.573  0.00  0.00    +0.000 HD
BRANCH   7  13
ATOM     11  C   UNL     1      -3.253  11.114  16.660  0.00  0.00    +0.000 A 
ATOM     12  C   UNL     1      -2.456  11.346  17.782  0.00  0.00    +0.000 A 
ATOM     13  C   UNL     1      -3.006  11.827  18.969  0.00  0.00    +0.000 A 
ATOM     14  C   UNL     1      -4.380  12.078  19.022  0.00  0.00    +0.000 A 
ATOM     15  C   UNL     1      -5.192  11.863  17.898  0.00  0.00    +0.000 A 
ATOM     16  C   UNL     1      -4.621  11.387  16.713  0.00  0.00    +0.000 A 
BRANCH  11  18
ATOM     17  C   UNL     1      -3.326  10.209  14.456  0.00  0.00    +0.000 C 
ATOM     18  O   UNL     1      -2.571  10.603  15.590  0.00  0.00    +0.000 OA
ENDBRANCH  11  18
BRANCH  15  19
ATOM     19  O   UNL     1      -6.518  12.143  18.092  0.00  0.00    +0.000 OA
ATOM     20  C   UNL     1      -7.175  11.444  19.146  0.00  0.00    +0.000 C 
ENDBRANCH  15  19
ENDBRANCH   7  13
ENDBRANCH   1   8
BRANCH   5  21
ATOM     21  S   UNL     1       0.745   9.604  21.271  0.00  0.00    +0.000 S 
ATOM     22  O   UNL     1       1.822   9.497  22.225  0.00  0.00    +0.000 OA
ATOM     23  O   UNL     1      -0.545   8.990  21.520  0.00  0.00    +0.000 OA
BRANCH  21  24
ATOM     24  C   UNL     1       1.344   8.842  19.778  0.00  0.00    +0.000 A 
ATOM     25  C   UNL     1       1.400   9.384  18.498  0.00  0.00    +0.000 A 
ATOM     26  C   UNL     1       2.195   8.721  17.534  0.00  0.00    +0.000 A 
ATOM     27  C   UNL     1       2.984   7.582  17.857  0.00  0.00    +0.000 A 
ATOM     28  C   UNL     1       2.827   7.025  19.101  0.00  0.00    +0.000 A 
ATOM     29  C   UNL     1       1.948   7.622  20.013  0.00  0.00    +0.000 A 
ATOM     30  C   UNL     1       3.471   5.813  19.662  0.00  0.00    +0.000 C 
ATOM     31  C   UNL     1       4.801   5.179  19.375  0.00  0.00    +0.000 C 
ATOM     32  C   UNL     1       5.210   5.197  17.938  0.00  0.00    +0.000 C 
ATOM     33  C   UNL     1       5.154   6.525  17.229  0.00  0.00    +0.000 C 
ATOM     34  O   UNL     1       6.196   7.014  16.759  0.00  0.00    +0.000 OA
ATOM     35  N   UNL     1       3.982   7.179  16.947  0.00  0.00    +0.000 N 
ATOM     36  H   UNL     1       4.148   7.863  16.224  0.00  0.00    +0.000 HD
ENDBRANCH  21  24
ENDBRANCH   5  21
TORSDOF 6
ENDMDL
MODEL 2
REMARK VINA RESULT:      -8.1      2.714      4.881
REMARK  Name = 
REMARK  8 active torsions:
REMARK  status: ('A' for Active; 'I' for Inactive)
REMARK    1  A    between atoms: C_1  and  O_2
REMARK    2  A    between atoms: O_2  and  C_3
REMARK    3  A    between atoms: C_5  and  N_6
REMARK    4  A    between atoms: C_7  and  C_9
REMARK    5  A    between atoms: N_13  and  S_14
REMARK    6  A    between atoms: S_14  and  C_17
REMARK    7  A    between atoms: C_31  and  O_32
REMARK    8  A    between atoms: O_32  and  C_33
REMARK                            x       y       z     vdW  Elec       q    Type
REMARK                         _______ _______ _______ _____ _____    ______ ____
ROOT
ATOM      1  C   UNL     1       0.266  12.799  19.626  0.00  0.00    +0.000 C 
ATOM      2  C   UNL     1      -0.554  12.519  18.367  0.00  0.00    +0.000 C 
ATOM      3  C   UNL     1      -1.500  11.331  18.532  0.00  0.00    +0.000 C 
ATOM      4  C   UNL     1      -0.787  10.102  19.102  0.00  0.00    +0.000 C 
ATOM      5  N   UNL     1      -0.157  10.459  20.406  0.00  0.00    +0.000 NA
ATOM      6  C   UNL     1       0.895  11.528  20.168  0.00  0.00    +0.000 C 
ENDROOT
BRANCH   1   8
ATOM      7  N   UNL     1      -0.710  12.918  21.885  0.00  0.00    +0.000 N 
ATOM      8  C   UNL     1      -0.552  13.564  20.705  0.00  0.00    +0.000 C 
ATOM      9  O   UNL     1      -1.043  14.637  20.369  0.00  0.00    +0.000 OA
ATOM     10  H   UNL     1      -0.091  12.113  22.054  0.00  0.00    +0.000 HD
BRANCH   7  13
ATOM     11  C   UNL     1      -2.115  14.818  24.761  0.00  0.00    +0.000 A 
ATOM     12  C   UNL     1      -1.244  14.413  23.748  0.00  0.00    +0.000 A 
ATOM     13  C   UNL     1      -1.533  13.308  22.949  0.00  0.00    +0.000 A 
ATOM     14  C   UNL     1      -2.718  12.602  23.179  0.00  0.00    +0.000 A 
ATOM     15  C   UNL     1      -3.596  12.988  24.203  0.00  0.00    +0.000 A 
ATOM     16  C   UNL     1      -3.284  14.095  24.999  0.00  0.00    +0.000 A 
BRANCH  11  18
ATOM     17  C   UNL     1      -2.611  17.034  25.483  0.00  0.00    +0.000 C 
ATOM     18  O   UNL     1      -1.709  15.942  25.425  0.00  0.00    +0.000 OA
ENDBRANCH  11  18
BRANCH  15  19
ATOM     19  O   UNL     1      -4.719  12.213  24.311  0.00  0.00    +0.000 OA
ATOM     20  C   UNL     1      -5.953  12.813  23.927  0.00  0.00    +0.000 C 
ENDBRANCH  15  19
ENDBRANCH   7  13
ENDBRANCH   1   8
BRANCH   5  21
ATOM     21  S   UNL     1       0.578   9.189  21.256  0.00  0.00    +0.000 S 
ATOM     22  O   UNL     1       1.681   9.757  21.993  0.00  0.00    +0.000 OA
ATOM     23  O   UNL     1      -0.497   8.488  21.932  0.00  0.00    +0.000 OA
BRANCH  21  24
ATOM     24  C   UNL     1       1.298   7.990  20.155  0.00  0.00    +0.000 A 
ATOM     25  C   UNL     1       2.075   8.218  19.024  0.00  0.00    +0.000 A 
ATOM     26  C   UNL     1       2.795   7.125  18.485  0.00  0.00    +0.000 A 
ATOM     27  C   UNL     1       2.804   5.846  19.106  0.00  0.00    +0.000 A 
ATOM     28  C   UNL     1       1.952   5.639  20.161  0.00  0.00    +0.000 A 
ATOM     29  C   UNL     1       1.155   6.696  20.617  0.00  0.00    +0.000 A 
ATOM     30  C   UNL     1       1.721   4.395  20.935  0.00  0.00    +0.000 C 
ATOM     31  C   UNL     1       2.626   3.237  21.237  0.00  0.00    +0.000 C 
ATOM     32  C   UNL     1       3.517   2.824  20.111  0.00  0.00    +0.000 C 
ATOM     33  C   UNL     1       4.333   3.906  19.454  0.00  0.00    +0.000 C 
ATOM     34  O   UNL     1       5.574   3.837  19.475  0.00  0.00    +0.000 OA
ATOM     35  N   UNL     1       3.783   4.914  18.705  0.00  0.00    +0.000 N 
ATOM     36  H   UNL     1       4.498   5.327  18.126  0.00  0.00    +0.000 HD
ENDBRANCH  21  24
ENDBRANCH   5  21
TORSDOF 6
ENDMDL
MODEL 3
REMARK VINA RESULT:      -8.0      4.181     10.107
REMARK  Name = 
REMARK  8 active torsions:
REMARK  status: ('A' for Active; 'I' for Inactive)
REMARK    1  A    between atoms: C_1  and  O_2
REMARK    2  A    between atoms: O_2  and  C_3
REMARK    3  A    between atoms: C_5  and  N_6
REMARK    4  A    between atoms: C_7  and  C_9
REMARK    5  A    between atoms: N_13  and  S_14
REMARK    6  A    between atoms: S_14  and  C_17
REMARK    7  A    between atoms: C_31  and  O_32
REMARK    8  A    between atoms: O_32  and  C_33
REMARK                            x       y       z     vdW  Elec       q    Type
REMARK                         _______ _______ _______ _____ _____    ______ ____
ROOT
ATOM      1  C   UNL     1       7.347   5.745  18.523  0.00  0.00    +0.000 C 
ATOM      2  C   UNL     1       7.686   4.686  17.475  0.00  0.00    +0.000 C 
ATOM      3  C   UNL     1       6.612   4.558  16.396  0.00  0.00    +0.000 C 
ATOM      4  C   UNL     1       5.209   4.422  16.994  0.00  0.00    +0.000 C 
ATOM      5  N   UNL     1       4.933   5.593  17.875  0.00  0.00    +0.000 NA
ATOM      6  C   UNL     1       5.923   5.585  19.027  0.00  0.00    +0.000 C 
ENDROOT
BRANCH   1   8
ATOM      7  N   UNL     1       8.452   7.928  18.812  0.00  0.00    +0.000 N 
ATOM      8  C   UNL     1       7.640   7.187  18.020  0.00  0.00    +0.000 C 
ATOM      9  O   UNL     1       7.053   7.549  17.005  0.00  0.00    +0.000 OA
ATOM     10  H   UNL     1       8.989   7.416  19.525  0.00  0.00    +0.000 HD
BRANCH   7  13
ATOM     11  C   UNL     1       8.266  11.493  17.758  0.00  0.00    +0.000 A 
ATOM     12  C   UNL     1       8.005  10.124  17.826  0.00  0.00    +0.000 A 
ATOM     13  C   UNL     1       8.735   9.293  18.676  0.00  0.00    +0.000 A 
ATOM     14  C   UNL     1       9.742   9.856  19.466  0.00  0.00    +0.000 A 
ATOM     15  C   UNL     1      10.025  11.227  19.397  0.00  0.00    +0.000 A 
ATOM     16  C   UNL     1       9.288  12.043  18.533  0.00  0.00    +0.000 A 
BRANCH  11  18
ATOM     17  C   UNL     1       7.050  13.487  17.281  0.00  0.00    +0.000 C 
ATOM     18  O   UNL     1       7.438  12.174  16.910  0.00  0.00    +0.000 OA
ENDBRANCH  11  18
BRANCH  15  19
ATOM     19  O   UNL     1      11.030  11.643  20.229  0.00  0.00    +0.000 OA
ATOM     20  C   UNL     1      11.711  12.841  19.866  0.00  0.00    +0.000 C 
ENDBRANCH  15  19
ENDBRANCH   7  13
ENDBRANCH   1   8
BRANCH   5  21
ATOM     21  S   UNL     1       3.374   5.685  18.533  0.00  0.00    +0.000 S 
ATOM     22  O   UNL     1       2.485   5.027  17.606  0.00  0.00    +0.000 OA
ATOM     23  O   UNL     1       3.494   5.236  19.907  0.00  0.00    +0.000 OA
BRANCH  21  24
ATOM     24  C   UNL     1       2.802   7.367  18.640  0.00  0.00    +0.000 A 
ATOM     25  C   UNL     1       2.700   8.308  17.619  0.00  0.00    +0.000 A 
ATOM     26  C   UNL     1       1.933   9.470  17.866  0.00  0.00    +0.000 A 
ATOM     27  C   UNL     1       1.215   9.659  19.080  0.00  0.00    +0.000 A 
ATOM     28  C   UNL     1       1.418   8.757  20.093  0.00  0.00    +0.000 A 
ATOM     29  C   UNL     1       2.272   7.668  19.879  0.00  0.00    +0.000 A 
ATOM     30  C   UNL     1       0.852   8.759  21.463  0.00  0.00    +0.000 C 
ATOM     31  C   UNL     1      -0.442   9.301  21.996  0.00  0.00    +0.000 C 
ATOM     32  C   UNL     1      -0.869  10.605  21.406  0.00  0.00    +0.000 C 
ATOM     33  C   UNL     1      -0.898  10.699  19.903  0.00  0.00    +0.000 C 
ATOM     34  O   UNL     1      -1.971  10.937  19.324  0.00  0.00    +0.000 OA
ATOM     35  N   UNL     1       0.231  10.668  19.125  0.00  0.00    +0.000 N 
ATOM     36  H   UNL     1       0.017  11.043  18.213  0.00  0.00    +0.000 HD
ENDBRANCH  21  24
ENDBRANCH   5  21
TORSDOF 6
ENDMDL
MODEL 4
REMARK VINA RESULT:      -7.9      2.774      4.812
REMARK  Name = 
REMARK  8 active torsions:
REMARK  status: ('A' for Active; 'I' for Inactive)
REMARK    1  A    between atoms: C_1  and  O_2
REMARK    2  A    between atoms: O_2  and  C_3
REMARK    3  A    between atoms: C_5  and  N_6
REMARK    4  A    between atoms: C_7  and  C_9
REMARK    5  A    between atoms: N_13  and  S_14
REMARK    6  A    between atoms: S_14  and  C_17
REMARK    7  A    between atoms: C_31  and  O_32
REMARK    8  A    between atoms: O_32  and  C_33
REMARK                            x       y       z     vdW  Elec       q    Type
REMARK                         _______ _______ _______ _____ _____    ______ ____
ROOT
ATOM      1  C   UNL     1       0.605  12.900  19.781  0.00  0.00    +0.000 C 
ATOM      2  C   UNL     1      -0.002  12.701  18.393  0.00  0.00    +0.000 C 
ATOM      3  C   UNL     1      -0.957  11.510  18.331  0.00  0.00    +0.000 C 
ATOM      4  C   UNL     1      -0.338  10.245  18.933  0.00  0.00    +0.000 C 
ATOM      5  N   UNL     1       0.074  10.519  20.340  0.00  0.00    +0.000 NA
ATOM      6  C   UNL     1       1.145  11.595  20.338  0.00  0.00    +0.000 C 
ENDROOT
BRANCH   1   8
ATOM      7  N   UNL     1      -0.832  12.836  21.782  0.00  0.00    +0.000 N 
ATOM      8  C   UNL     1      -0.380  13.601  20.760  0.00  0.00    +0.000 C 
ATOM      9  O   UNL     1      -0.716  14.748  20.479  0.00  0.00    +0.000 OA
ATOM     10  H   UNL     1      -0.317  11.964  21.965  0.00  0.00    +0.000 HD
BRANCH   7  13
ATOM     11  C   UNL     1      -4.099  12.941  23.563  0.00  0.00    +0.000 A 
ATOM     12  C   UNL     1      -3.129  12.643  22.604  0.00  0.00    +0.000 A 
ATOM     13  C   UNL     1      -1.842  13.169  22.694  0.00  0.00    +0.000 A 
ATOM     14  C   UNL     1      -1.531  14.009  23.767  0.00  0.00    +0.000 A 
ATOM     15  C   UNL     1      -2.499  14.329  24.731  0.00  0.00    +0.000 A 
ATOM     16  C   UNL     1      -3.788  13.797  24.619  0.00  0.00    +0.000 A 
BRANCH  11  18
ATOM     17  C   UNL     1      -6.406  12.742  24.127  0.00  0.00    +0.000 C 
ATOM     18  O   UNL     1      -5.296  12.314  23.355  0.00  0.00    +0.000 OA
ENDBRANCH  11  18
BRANCH  15  19
ATOM     19  O   UNL     1      -2.057  15.155  25.729  0.00  0.00    +0.000 OA
ATOM     20  C   UNL     1      -0.901  15.941  25.449  0.00  0.00    +0.000 C 
ENDBRANCH  15  19
ENDBRANCH   7  13
ENDBRANCH   1   8
BRANCH   5  21
ATOM     21  S   UNL     1       0.669   9.196  21.217  0.00  0.00    +0.000 S 
ATOM     22  O   UNL     1       1.775   9.678  22.008  0.00  0.00    +0.000 OA
ATOM     23  O   UNL     1      -0.486   8.577  21.837  0.00  0.00    +0.000 OA
BRANCH  21  24
ATOM     24  C   UNL     1       1.350   7.948  20.145  0.00  0.00    +0.000 A 
ATOM     25  C   UNL     1       2.139   8.123  19.013  0.00  0.00    +0.000 A 
ATOM     26  C   UNL     1       2.821   6.993  18.502  0.00  0.00    +0.000 A 
ATOM     27  C   UNL     1       2.781   5.728  19.150  0.00  0.00    +0.000 A 
ATOM     28  C   UNL     1       1.918   5.575  20.206  0.00  0.00    +0.000 A 
ATOM     29  C   UNL     1       1.158   6.670  20.634  0.00  0.00    +0.000 A 
ATOM     30  C   UNL     1       1.638   4.358  21.004  0.00  0.00    +0.000 C 
ATOM     31  C   UNL     1       2.499   3.174  21.336  0.00  0.00    +0.000 C 
ATOM     32  C   UNL     1       3.379   2.705  20.223  0.00  0.00    +0.000 C 
ATOM     33  C   UNL     1       4.237   3.742  19.546  0.00  0.00    +0.000 C 
ATOM     34  O   UNL     1       5.474   3.629  19.575  0.00  0.00    +0.000 OA
ATOM     35  N   UNL     1       3.726   4.753  18.773  0.00  0.00    +0.000 N 
ATOM     36  H   UNL     1       4.459   5.127  18.189  0.00  0.00    +0.000 HD
ENDBRANCH  21  24
ENDBRANCH   5  21
TORSDOF 6
ENDMDL
MODEL 5
REMARK VINA RESULT:      -7.7      2.632      8.900
REMARK  Name = 
REMARK  8 active torsions:
REMARK  status: ('A' for Active; 'I' for Inactive)
REMARK    1  A    between atoms: C_1  and  O_2
REMARK    2  A    between atoms: O_2  and  C_3
REMARK    3  A    between atoms: C_5  and  N_6
REMARK    4  A    between atoms: C_7  and  C_9
REMARK    5  A    between atoms: N_13  and  S_14
REMARK    6  A    between atoms: S_14  and  C_17
REMARK    7  A    between atoms: C_31  and  O_32
REMARK    8  A    between atoms: O_32  and  C_33
REMARK                            x       y       z     vdW  Elec       q    Type
REMARK                         _______ _______ _______ _____ _____    ______ ____
ROOT
ATOM      1  C   UNL     1       1.744   9.657  21.277  0.00  0.00    +0.000 C 
ATOM      2  C   UNL     1       1.090   9.261  22.600  0.00  0.00    +0.000 C 
ATOM      3  C   UNL     1      -0.434   9.369  22.561  0.00  0.00    +0.000 C 
ATOM      4  C   UNL     1      -0.900  10.719  22.010  0.00  0.00    +0.000 C 
ATOM      5  N   UNL     1      -0.322  10.923  20.650  0.00  0.00    +0.000 NA
ATOM      6  C   UNL     1       1.191  10.974  20.762  0.00  0.00    +0.000 C 
ENDROOT
BRANCH   1   8
ATOM      7  N   UNL     1       2.201   7.337  20.585  0.00  0.00    +0.000 N 
ATOM      8  C   UNL     1       1.662   8.523  20.215  0.00  0.00    +0.000 C 
ATOM      9  O   UNL     1       1.192   8.823  19.122  0.00  0.00    +0.000 OA
ATOM     10  H   UNL     1       2.392   7.212  21.588  0.00  0.00    +0.000 HD
BRANCH   7  13
ATOM     11  C   UNL     1       3.453   5.120  17.869  0.00  0.00    +0.000 A 
ATOM     12  C   UNL     1       3.216   6.264  18.632  0.00  0.00    +0.000 A 
ATOM     13  C   UNL     1       2.405   6.219  19.765  0.00  0.00    +0.000 A 
ATOM     14  C   UNL     1       1.825   5.000  20.130  0.00  0.00    +0.000 A 
ATOM     15  C   UNL     1       2.043   3.845  19.365  0.00  0.00    +0.000 A 
ATOM     16  C   UNL     1       2.854   3.912  18.228  0.00  0.00    +0.000 A 
BRANCH  11  18
ATOM     17  C   UNL     1       4.812   6.630  16.623  0.00  0.00    +0.000 C 
ATOM     18  O   UNL     1       4.302   5.321  16.817  0.00  0.00    +0.000 OA
ENDBRANCH  11  18
BRANCH  15  19
ATOM     19  O   UNL     1       1.421   2.722  19.841  0.00  0.00    +0.000 OA
ATOM     20  C   UNL     1       1.261   2.625  21.253  0.00  0.00    +0.000 C 
ENDBRANCH  15  19
ENDBRANCH   7  13
ENDBRANCH   1   8
BRANCH   5  21
ATOM     21  S   UNL     1      -0.828  12.313  19.823  0.00  0.00    +0.000 S 
ATOM     22  O   UNL     1      -0.770  13.408  20.761  0.00  0.00    +0.000 OA
ATOM     23  O   UNL     1      -0.068  12.339  18.588  0.00  0.00    +0.000 OA
BRANCH  21  24
ATOM     24  C   UNL     1      -2.532  12.197  19.320  0.00  0.00    +0.000 A 
ATOM     25  C   UNL     1      -3.066  11.496  18.243  0.00  0.00    +0.000 A 
ATOM     26  C   UNL     1      -4.465  11.290  18.217  0.00  0.00    +0.000 A 
ATOM     27  C   UNL     1      -5.311  11.706  19.282  0.00  0.00    +0.000 A 
ATOM     28  C   UNL     1      -4.760  12.475  20.276  0.00  0.00    +0.000 A 
ATOM     29  C   UNL     1      -3.393  12.773  20.233  0.00  0.00    +0.000 A 
ATOM     30  C   UNL     1      -5.426  13.087  21.451  0.00  0.00    +0.000 C 
ATOM     31  C   UNL     1      -6.632  12.660  22.236  0.00  0.00    +0.000 C 
ATOM     32  C   UNL     1      -7.747  12.093  21.419  0.00  0.00    +0.000 C 
ATOM     33  C   UNL     1      -7.395  10.992  20.453  0.00  0.00    +0.000 C 
ATOM     34  O   UNL     1      -7.917   9.872  20.582  0.00  0.00    +0.000 OA
ATOM     35  N   UNL     1      -6.621  11.189  19.338  0.00  0.00    +0.000 N 
ATOM     36  H   UNL     1      -6.765  10.425  18.694  0.00  0.00    +0.000 HD
ENDBRANCH  21  24
ENDBRANCH   5  21
TORSDOF 6
ENDMDL
MODEL 6
REMARK VINA RESULT:      -7.7      2.704      5.197
REMARK  Name = 
REMARK  8 active torsions:
REMARK  status: ('A' for Active; 'I' for Inactive)
REMARK    1  A    between atoms: C_1  and  O_2
REMARK    2  A    between atoms: O_2  and  C_3
REMARK    3  A    between atoms: C_5  and  N_6
REMARK    4  A    between atoms: C_7  and  C_9
REMARK    5  A    between atoms: N_13  and  S_14
REMARK    6  A    between atoms: S_14  and  C_17
REMARK    7  A    between atoms: C_31  and  O_32
REMARK    8  A    between atoms: O_32  and  C_33
REMARK                            x       y       z     vdW  Elec       q    Type
REMARK                         _______ _______ _______ _____ _____    ______ ____
ROOT
ATOM      1  C   UNL     1      -1.600  12.256  19.805  0.00  0.00    +0.000 C 
ATOM      2  C   UNL     1      -1.992  13.090  21.023  0.00  0.00    +0.000 C 
ATOM      3  C   UNL     1      -0.944  13.040  22.135  0.00  0.00    +0.000 C 
ATOM      4  C   UNL     1      -0.526  11.605  22.465  0.00  0.00    +0.000 C 
ATOM      5  N   UNL     1      -0.016  10.943  21.230  0.00  0.00    +0.000 NA
ATOM      6  C   UNL     1      -1.141  10.867  20.213  0.00  0.00    +0.000 C 
ENDROOT
BRANCH   1   8
ATOM      7  N   UNL     1       0.423  13.640  19.555  0.00  0.00    +0.000 N 
ATOM      8  C   UNL     1      -0.564  12.982  18.901  0.00  0.00    +0.000 C 
ATOM      9  O   UNL     1      -0.773  12.961  17.692  0.00  0.00    +0.000 OA
ATOM     10  H   UNL     1       0.547  13.409  20.550  0.00  0.00    +0.000 HD
BRANCH   7  13
ATOM     11  C   UNL     1       2.123  16.711  18.316  0.00  0.00    +0.000 A 
ATOM     12  C   UNL     1       1.135  15.864  18.823  0.00  0.00    +0.000 A 
ATOM     13  C   UNL     1       1.373  14.501  18.990  0.00  0.00    +0.000 A 
ATOM     14  C   UNL     1       2.625  13.987  18.640  0.00  0.00    +0.000 A 
ATOM     15  C   UNL     1       3.622  14.823  18.117  0.00  0.00    +0.000 A 
ATOM     16  C   UNL     1       3.363  16.188  17.949  0.00  0.00    +0.000 A 
BRANCH  11  18
ATOM     17  C   UNL     1       0.729  18.462  19.138  0.00  0.00    +0.000 C 
ATOM     18  O   UNL     1       1.748  18.024  18.253  0.00  0.00    +0.000 OA
ENDBRANCH  11  18
BRANCH  15  19
ATOM     19  O   UNL     1       4.800  14.190  17.824  0.00  0.00    +0.000 OA
ATOM     20  C   UNL     1       6.001  14.897  18.120  0.00  0.00    +0.000 C 
ENDBRANCH  15  19
ENDBRANCH   7  13
ENDBRANCH   1   8
BRANCH   5  21
ATOM     21  S   UNL     1       0.614   9.381  21.423  0.00  0.00    +0.000 S 
ATOM     22  O   UNL     1       1.739   9.488  22.321  0.00  0.00    +0.000 OA
ATOM     23  O   UNL     1      -0.518   8.530  21.732  0.00  0.00    +0.000 OA
BRANCH  21  24
ATOM     24  C   UNL     1       1.274   8.744  19.897  0.00  0.00    +0.000 A 
ATOM     25  C   UNL     1       1.387   9.393  18.671  0.00  0.00    +0.000 A 
ATOM     26  C   UNL     1       2.220   8.808  17.688  0.00  0.00    +0.000 A 
ATOM     27  C   UNL     1       2.989   7.640  17.946  0.00  0.00    +0.000 A 
ATOM     28  C   UNL     1       2.777   6.980  19.130  0.00  0.00    +0.000 A 
ATOM     29  C   UNL     1       1.862   7.504  20.052  0.00  0.00    +0.000 A 
ATOM     30  C   UNL     1       3.391   5.720  19.612  0.00  0.00    +0.000 C 
ATOM     31  C   UNL     1       4.728   5.101  19.328  0.00  0.00    +0.000 C 
ATOM     32  C   UNL     1       5.199   5.239  17.917  0.00  0.00    +0.000 C 
ATOM     33  C   UNL     1       5.180   6.622  17.322  0.00  0.00    +0.000 C 
ATOM     34  O   UNL     1       6.243   7.141  16.940  0.00  0.00    +0.000 OA
ATOM     35  N   UNL     1       4.024   7.308  17.048  0.00  0.00    +0.000 N 
ATOM     36  H   UNL     1       4.224   8.050  16.394  0.00  0.00    +0.000 HD
ENDBRANCH  21  24
ENDBRANCH   5  21
TORSDOF 6
ENDMDL
MODEL 7
REMARK VINA RESULT:      -7.7      4.122     10.051
REMARK  Name = 
REMARK  8 active torsions:
REMARK  status: ('A' for Active; 'I' for Inactive)
REMARK    1  A    between atoms: C_1  and  O_2
REMARK    2  A    between atoms: O_2  and  C_3
REMARK    3  A    between atoms: C_5  and  N_6
REMARK    4  A    between atoms: C_7  and  C_9
REMARK    5  A    between atoms: N_13  and  S_14
REMARK    6  A    between atoms: S_14  and  C_17
REMARK    7  A    between atoms: C_31  and  O_32
REMARK    8  A    between atoms: O_32  and  C_33
REMARK                            x       y       z     vdW  Elec       q    Type
REMARK                         _______ _______ _______ _____ _____    ______ ____
ROOT
ATOM      1  C   UNL     1       7.243   5.767  18.102  0.00  0.00    +0.000 C 
ATOM      2  C   UNL     1       7.429   4.844  16.898  0.00  0.00    +0.000 C 
ATOM      3  C   UNL     1       6.258   4.909  15.919  0.00  0.00    +0.000 C 
ATOM      4  C   UNL     1       4.909   4.755  16.625  0.00  0.00    +0.000 C 
ATOM      5  N   UNL     1       4.777   5.808  17.673  0.00  0.00    +0.000 NA
ATOM      6  C   UNL     1       5.863   5.602  18.714  0.00  0.00    +0.000 C 
ENDROOT
BRANCH   1   8
ATOM      7  N   UNL     1       8.348   7.896  18.665  0.00  0.00    +0.000 N 
ATOM      8  C   UNL     1       7.570   7.250  17.764  0.00  0.00    +0.000 C 
ATOM      9  O   UNL     1       7.036   7.720  16.765  0.00  0.00    +0.000 OA
ATOM     10  H   UNL     1       8.847   7.308  19.346  0.00  0.00    +0.000 HD
BRANCH   7  13
ATOM     11  C   UNL     1       9.973  11.154  19.440  0.00  0.00    +0.000 A 
ATOM     12  C   UNL     1       9.653   9.796  19.488  0.00  0.00    +0.000 A 
ATOM     13  C   UNL     1       8.646   9.265  18.684  0.00  0.00    +0.000 A 
ATOM     14  C   UNL     1       7.953  10.118  17.820  0.00  0.00    +0.000 A 
ATOM     15  C   UNL     1       8.253  11.487  17.771  0.00  0.00    +0.000 A 
ATOM     16  C   UNL     1       9.262  12.004  18.592  0.00  0.00    +0.000 A 
BRANCH  11  18
ATOM     17  C   UNL     1      11.952  12.444  19.758  0.00  0.00    +0.000 C 
ATOM     18  O   UNL     1      11.009  11.509  20.258  0.00  0.00    +0.000 OA
ENDBRANCH  11  18
BRANCH  15  19
ATOM     19  O   UNL     1       7.503  12.203  16.878  0.00  0.00    +0.000 OA
ATOM     20  C   UNL     1       7.044  13.483  17.304  0.00  0.00    +0.000 C 
ENDBRANCH  15  19
ENDBRANCH   7  13
ENDBRANCH   1   8
BRANCH   5  21
ATOM     21  S   UNL     1       3.290   5.878  18.482  0.00  0.00    +0.000 S 
ATOM     22  O   UNL     1       2.320   5.220  17.640  0.00  0.00    +0.000 OA
ATOM     23  O   UNL     1       3.550   5.417  19.833  0.00  0.00    +0.000 OA
BRANCH  21  24
ATOM     24  C   UNL     1       2.716   7.553  18.662  0.00  0.00    +0.000 A 
ATOM     25  C   UNL     1       2.559   8.520  17.674  0.00  0.00    +0.000 A 
ATOM     26  C   UNL     1       1.800   9.671  17.991  0.00  0.00    +0.000 A 
ATOM     27  C   UNL     1       1.144   9.824  19.243  0.00  0.00    +0.000 A 
ATOM     28  C   UNL     1       1.402   8.896  20.220  0.00  0.00    +0.000 A 
ATOM     29  C   UNL     1       2.249   7.818  19.935  0.00  0.00    +0.000 A 
ATOM     30  C   UNL     1       0.905   8.858  21.617  0.00  0.00    +0.000 C 
ATOM     31  C   UNL     1      -0.362   9.378  22.229  0.00  0.00    +0.000 C 
ATOM     32  C   UNL     1      -0.824  10.696  21.696  0.00  0.00    +0.000 C 
ATOM     33  C   UNL     1      -0.930  10.829  20.200  0.00  0.00    +0.000 C 
ATOM     34  O   UNL     1      -2.032  11.076  19.682  0.00  0.00    +0.000 OA
ATOM     35  N   UNL     1       0.158  10.825  19.365  0.00  0.00    +0.000 N 
ATOM     36  H   UNL     1      -0.103  11.223  18.476  0.00  0.00    +0.000 HD
ENDBRANCH  21  24
ENDBRANCH   5  21
TORSDOF 6
ENDMDL
MODEL 8
REMARK VINA RESULT:      -7.6      3.545      5.581
REMARK  Name = 
REMARK  8 active torsions:
REMARK  status: ('A' for Active; 'I' for Inactive)
REMARK    1  A    between atoms: C_1  and  O_2
REMARK    2  A    between atoms: O_2  and  C_3
REMARK    3  A    between atoms: C_5  and  N_6
REMARK    4  A    between atoms: C_7  and  C_9
REMARK    5  A    between atoms: N_13  and  S_14
REMARK    6  A    between atoms: S_14  and  C_17
REMARK    7  A    between atoms: C_31  and  O_32
REMARK    8  A    between atoms: O_32  and  C_33
REMARK                            x       y       z     vdW  Elec       q    Type
REMARK                         _______ _______ _______ _____ _____    ______ ____
ROOT
ATOM      1  C   UNL     1      -0.501  10.207  21.134  0.00  0.00    +0.000 C 
ATOM      2  C   UNL     1      -0.061   9.202  22.197  0.00  0.00    +0.000 C 
ATOM      3  C   UNL     1       1.370   8.708  21.986  0.00  0.00    +0.000 C 
ATOM      4  C   UNL     1       1.613   8.247  20.547  0.00  0.00    +0.000 C 
ATOM      5  N   UNL     1       1.298   9.364  19.611  0.00  0.00    +0.000 NA
ATOM      6  C   UNL     1      -0.176   9.710  19.737  0.00  0.00    +0.000 C 
ENDROOT
BRANCH   1   8
ATOM      7  N   UNL     1       0.652  12.236  20.344  0.00  0.00    +0.000 N 
ATOM      8  C   UNL     1       0.060  11.633  21.403  0.00  0.00    +0.000 C 
ATOM      9  O   UNL     1      -0.011  12.047  22.555  0.00  0.00    +0.000 OA
ATOM     10  H   UNL     1       0.470  11.824  19.420  0.00  0.00    +0.000 HD
BRANCH   7  13
ATOM     11  C   UNL     1       3.432  14.687  20.693  0.00  0.00    +0.000 A 
ATOM     12  C   UNL     1       2.715  13.491  20.746  0.00  0.00    +0.000 A 
ATOM     13  C   UNL     1       1.376  13.435  20.362  0.00  0.00    +0.000 A 
ATOM     14  C   UNL     1       0.753  14.607  19.920  0.00  0.00    +0.000 A 
ATOM     15  C   UNL     1       1.456  15.819  19.875  0.00  0.00    +0.000 A 
ATOM     16  C   UNL     1       2.797  15.857  20.272  0.00  0.00    +0.000 A 
BRANCH  11  18
ATOM     17  C   UNL     1       5.017  14.027  22.346  0.00  0.00    +0.000 C 
ATOM     18  O   UNL     1       4.742  14.566  21.063  0.00  0.00    +0.000 OA
ENDBRANCH  11  18
BRANCH  15  19
ATOM     19  O   UNL     1       0.727  16.883  19.416  0.00  0.00    +0.000 OA
ATOM     20  C   UNL     1      -0.468  16.582  18.700  0.00  0.00    +0.000 C 
ENDBRANCH  15  19
ENDBRANCH   7  13
ENDBRANCH   1   8
BRANCH   5  21
ATOM     21  S   UNL     1       1.626   9.084  17.972  0.00  0.00    +0.000 S 
ATOM     22  O   UNL     1       0.367   8.777  17.336  0.00  0.00    +0.000 OA
ATOM     23  O   UNL     1       2.438  10.202  17.532  0.00  0.00    +0.000 OA
BRANCH  21  24
ATOM     24  C   UNL     1       2.648   7.645  17.742  0.00  0.00    +0.000 A 
ATOM     25  C   UNL     1       4.037   7.569  17.726  0.00  0.00    +0.000 A 
ATOM     26  C   UNL     1       4.631   6.290  17.840  0.00  0.00    +0.000 A 
ATOM     27  C   UNL     1       3.859   5.113  18.045  0.00  0.00    +0.000 A 
ATOM     28  C   UNL     1       2.494   5.218  17.960  0.00  0.00    +0.000 A 
ATOM     29  C   UNL     1       1.916   6.473  17.731  0.00  0.00    +0.000 A 
ATOM     30  C   UNL     1       1.473   4.148  18.068  0.00  0.00    +0.000 C 
ATOM     31  C   UNL     1       1.482   2.848  18.816  0.00  0.00    +0.000 C 
ATOM     32  C   UNL     1       2.790   2.126  18.810  0.00  0.00    +0.000 C 
ATOM     33  C   UNL     1       4.007   2.915  19.216  0.00  0.00    +0.000 C 
ATOM     34  O   UNL     1       4.665   2.562  20.209  0.00  0.00    +0.000 OA
ATOM     35  N   UNL     1       4.522   3.943  18.468  0.00  0.00    +0.000 N 
ATOM     36  H   UNL     1       5.474   4.117  18.752  0.00  0.00    +0.000 HD
ENDBRANCH  21  24
ENDBRANCH   5  21
TORSDOF 6
ENDMDL
MODEL 9
REMARK VINA RESULT:      -7.6      2.838      9.039
REMARK  Name = 
REMARK  8 active torsions:
REMARK  status: ('A' for Active; 'I' for Inactive)
REMARK    1  A    between atoms: C_1  and  O_2
REMARK    2  A    between atoms: O_2  and  C_3
REMARK    3  A    between atoms: C_5  and  N_6
REMARK    4  A    between atoms: C_7  and  C_9
REMARK    5  A    between atoms: N_13  and  S_14
REMARK    6  A    between atoms: S_14  and  C_17
REMARK    7  A    between atoms: C_31  and  O_32
REMARK    8  A    between atoms: O_32  and  C_33
REMARK                            x       y       z     vdW  Elec       q    Type
REMARK                         _______ _______ _______ _____ _____    ______ ____
ROOT
ATOM      1  C   UNL     1       1.714   9.738  19.641  0.00  0.00    +0.000 C 
ATOM      2  C   UNL     1       1.203   9.163  20.961  0.00  0.00    +0.000 C 
ATOM      3  C   UNL     1      -0.284   8.816  20.917  0.00  0.00    +0.000 C 
ATOM      4  C   UNL     1      -1.127   9.970  20.368  0.00  0.00    +0.000 C 
ATOM      5  N   UNL     1      -0.632  10.339  19.010  0.00  0.00    +0.000 NA
ATOM      6  C   UNL     1       0.798  10.835  19.127  0.00  0.00    +0.000 C 
ENDROOT
BRANCH   1   8
ATOM      7  N   UNL     1       2.362   7.432  19.065  0.00  0.00    +0.000 N 
ATOM      8  C   UNL     1       1.973   8.634  18.577  0.00  0.00    +0.000 C 
ATOM      9  O   UNL     1       1.880   8.968  17.400  0.00  0.00    +0.000 OA
ATOM     10  H   UNL     1       2.220   7.278  20.073  0.00  0.00    +0.000 HD
BRANCH   7  13
ATOM     11  C   UNL     1       4.499   5.202  16.988  0.00  0.00    +0.000 A 
ATOM     12  C   UNL     1       4.044   6.333  17.667  0.00  0.00    +0.000 A 
ATOM     13  C   UNL     1       2.813   6.333  18.322  0.00  0.00    +0.000 A 
ATOM     14  C   UNL     1       2.032   5.174  18.288  0.00  0.00    +0.000 A 
ATOM     15  C   UNL     1       2.469   4.035  17.597  0.00  0.00    +0.000 A 
ATOM     16  C   UNL     1       3.703   4.056  16.939  0.00  0.00    +0.000 A 
BRANCH  11  18
ATOM     17  C   UNL     1       5.996   4.689  15.205  0.00  0.00    +0.000 C 
ATOM     18  O   UNL     1       5.741   5.349  16.435  0.00  0.00    +0.000 OA
ENDBRANCH  11  18
BRANCH  15  19
ATOM     19  O   UNL     1       1.609   2.971  17.651  0.00  0.00    +0.000 OA
ATOM     20  C   UNL     1       1.064   2.650  18.928  0.00  0.00    +0.000 C 
ENDBRANCH  15  19
ENDBRANCH   7  13
ENDBRANCH   1   8
BRANCH   5  21
ATOM     21  S   UNL     1      -1.524  11.520  18.184  0.00  0.00    +0.000 S 
ATOM     22  O   UNL     1      -0.638  12.637  17.959  0.00  0.00    +0.000 OA
ATOM     23  O   UNL     1      -2.165  10.834  17.078  0.00  0.00    +0.000 OA
BRANCH  21  24
ATOM     24  C   UNL     1      -2.858  12.154  19.177  0.00  0.00    +0.000 A 
ATOM     25  C   UNL     1      -4.214  11.854  19.090  0.00  0.00    +0.000 A 
ATOM     26  C   UNL     1      -5.045  12.229  20.171  0.00  0.00    +0.000 A 
ATOM     27  C   UNL     1      -4.525  12.823  21.354  0.00  0.00    +0.000 A 
ATOM     28  C   UNL     1      -3.203  13.188  21.361  0.00  0.00    +0.000 A 
ATOM     29  C   UNL     1      -2.411  12.917  20.238  0.00  0.00    +0.000 A 
ATOM     30  C   UNL     1      -2.436  13.874  22.428  0.00  0.00    +0.000 C 
ATOM     31  C   UNL     1      -2.605  13.877  23.920  0.00  0.00    +0.000 C 
ATOM     32  C   UNL     1      -4.022  13.902  24.393  0.00  0.00    +0.000 C 
ATOM     33  C   UNL     1      -4.955  12.872  23.811  0.00  0.00    +0.000 C 
ATOM     34  O   UNL     1      -5.502  12.047  24.561  0.00  0.00    +0.000 OA
ATOM     35  N   UNL     1      -5.349  12.870  22.497  0.00  0.00    +0.000 N 
ATOM     36  H   UNL     1      -6.181  12.307  22.400  0.00  0.00    +0.000 HD
ENDBRANCH  21  24
ENDBRANCH   5  21
TORSDOF 6
ENDMDL
