MODEL 1
REMARK VINA RESULT:      -6.8      0.000      0.000
REMARK  Name = 
REMARK  16 active torsions:
REMARK  status: ('A' for Active; 'I' for Inactive)
REMARK    1  A    between atoms: C_1  and  N_2
REMARK    2  A    between atoms: N_2  and  C_3
REMARK    3  A    between atoms: C_4  and  O_5
REMARK    4  A    between atoms: C_6  and  O_7
REMARK    5  A    between atoms: O_7  and  C_8
REMARK    6  A    between atoms: C_9  and  O_10
REMARK    7  A    between atoms: C_11  and  O_12
REMARK    8  A    between atoms: O_12  and  C_13
REMARK    9  A    between atoms: C_15  and  C_16
REMARK   10  A    between atoms: C_16  and  C_17
REMARK   11  A    between atoms: C_16  and  N_18
REMARK   12  A    between atoms: C_21  and  N_22
REMARK   13  A    between atoms: C_23  and  N_24
REMARK   14  A    between atoms: C_26  and  N_27
REMARK   15  A    between atoms: C_30  and  C_31
REMARK   16  A    between atoms: C_30  and  O_32
REMARK                            x       y       z     vdW  Elec       q    Type
REMARK                         _______ _______ _______ _____ _____    ______ ____
ROOT
ATOM      1  C   UNL     1       2.328   5.552  19.049  0.00  0.00    +0.000 C 
ATOM      2  C   UNL     1       3.332   5.243  17.883  0.00  0.00    +0.000 C 
ATOM      3  C   UNL     1       3.838   3.772  17.662  0.00  0.00    +0.000 C 
ATOM      4  C   UNL     1       2.718   2.738  17.952  0.00  0.00    +0.000 C 
ATOM      5  C   UNL     1       2.057   3.034  19.295  0.00  0.00    +0.000 C 
ATOM      6  C   UNL     1       1.342   4.382  19.307  0.00  0.00    +0.000 C 
ENDROOT
BRANCH   4   7
ATOM      7  N   UNL     1       3.176   1.344  18.094  0.00  0.00    +0.000 NA
ATOM      8  H   UNL     1       2.912   0.952  18.998  0.00  0.00    +0.000 HD
ATOM      9  H   UNL     1       4.190   1.280  18.018  0.00  0.00    +0.000 HD
ENDBRANCH   4   7
BRANCH   6  10
ATOM     10  N   UNL     1       0.675   4.492  20.619  0.00  0.00    +0.000 NA
ATOM     11  H   UNL     1       1.369   4.612  21.360  0.00  0.00    +0.000 HD
ATOM     12  H   UNL     1       0.163   3.639  20.842  0.00  0.00    +0.000 HD
ENDBRANCH   6  10
BRANCH   2  13
ATOM     13  O   UNL     1       4.497   6.080  18.108  0.00  0.00    +0.000 OA
ATOM     14  H   UNL     1       4.182   6.997  18.196  0.00  0.00    +0.000 HD
ENDBRANCH   2  13
BRANCH   1  15
ATOM     15  O   UNL     1       1.702   6.823  18.707  0.00  0.00    +0.000 OA
BRANCH  15  18
ATOM     16  C   UNL     1       0.167   8.933  20.266  0.00  0.00    +0.000 C 
ATOM     17  C   UNL     1       1.642   8.517  20.502  0.00  0.00    +0.000 C 
ATOM     18  C   UNL     1       2.294   8.049  19.161  0.00  0.00    +0.000 C 
ATOM     19  O   UNL     1       2.205   9.121  18.217  0.00  0.00    +0.000 OA
ATOM     20  C   UNL     1       0.868   9.529  17.918  0.00  0.00    +0.000 C 
ATOM     21  C   UNL     1       0.085  10.024  19.156  0.00  0.00    +0.000 C 
ATOM     22  C   UNL     1      -1.359  10.326  18.745  0.00  0.00    +0.000 C 
BRANCH  16  24
ATOM     23  C   UNL     1      -0.038  10.188  22.432  0.00  0.00    +0.000 C 
ATOM     24  N   UNL     1      -0.577   9.172  21.540  0.00  0.00    +0.000 NA
ATOM     25  H   UNL     1      -1.533   9.442  21.301  0.00  0.00    +0.000 HD
ENDBRANCH  16  24
BRANCH  17  26
ATOM     26  O   UNL     1       1.710   7.522  21.533  0.00  0.00    +0.000 OA
ATOM     27  H   UNL     1       0.794   7.177  21.595  0.00  0.00    +0.000 HD
ENDBRANCH  17  26
BRANCH  21  28
ATOM     28  O   UNL     1       0.638  11.275  19.599  0.00  0.00    +0.000 OA
ATOM     29  H   UNL     1       1.589  11.158  19.765  0.00  0.00    +0.000 HD
ENDBRANCH  21  28
ENDBRANCH  15  18
ENDBRANCH   1  15
BRANCH   3  30
ATOM     30  O   UNL     1       4.347   3.734  16.289  0.00  0.00    +0.000 OA
BRANCH  30  31
ATOM     31  C   UNL     1       5.767   3.520  16.121  0.00  0.00    +0.000 C 
ATOM     32  O   UNL     1       6.498   3.926  17.273  0.00  0.00    +0.000 OA
ATOM     33  C   UNL     1       7.293   5.049  17.198  0.00  0.00    +0.000 C 
ATOM     34  C   UNL     1       7.559   5.719  16.072  0.00  0.00    +0.000 C 
ATOM     35  C   UNL     1       6.954   5.395  14.757  0.00  0.00    +0.000 C 
ATOM     36  C   UNL     1       6.275   4.027  14.731  0.00  0.00    +0.000 C 
BRANCH  36  37
ATOM     37  N   UNL     1       5.248   4.009  13.665  0.00  0.00    +0.000 NA
ATOM     38  H   UNL     1       5.624   3.420  12.913  0.00  0.00    +0.000 HD
ATOM     39  H   UNL     1       5.175   4.935  13.251  0.00  0.00    +0.000 HD
ENDBRANCH  36  37
BRANCH  33  40
ATOM     40  C   UNL     1       7.769   5.579  18.542  0.00  0.00    +0.000 C 
ATOM     41  C   UNL     1       7.968   7.088  18.399  0.00  0.00    +0.000 C 
BRANCH  40  42
ATOM     42  N   UNL     1       6.842   5.273  19.629  0.00  0.00    +0.000 NA
ATOM     43  H   UNL     1       6.072   5.930  19.597  0.00  0.00    +0.000 HD
ATOM     44  H   UNL     1       7.314   5.436  20.521  0.00  0.00    +0.000 HD
ENDBRANCH  40  42
ENDBRANCH  33  40
ENDBRANCH  30  31
ENDBRANCH   3  30
TORSDOF 13
ENDMDL
MODEL 2
REMARK VINA RESULT:      -6.6      2.264      8.372
REMARK  Name = 
REMARK  16 active torsions:
REMARK  status: ('A' for Active; 'I' for Inactive)
REMARK    1  A    between atoms: C_1  and  N_2
REMARK    2  A    between atoms: N_2  and  C_3
REMARK    3  A    between atoms: C_4  and  O_5
REMARK    4  A    between atoms: C_6  and  O_7
REMARK    5  A    between atoms: O_7  and  C_8
REMARK    6  A    between atoms: C_9  and  O_10
REMARK    7  A    between atoms: C_11  and  O_12
REMARK    8  A    between atoms: O_12  and  C_13
REMARK    9  A    between atoms: C_15  and  C_16
REMARK   10  A    between atoms: C_16  and  C_17
REMARK   11  A    between atoms: C_16  and  N_18
REMARK   12  A    between atoms: C_21  and  N_22
REMARK   13  A    between atoms: C_23  and  N_24
REMARK   14  A    between atoms: C_26  and  N_27
REMARK   15  A    between atoms: C_30  and  C_31
REMARK   16  A    between atoms: C_30  and  O_32
REMARK                            x       y       z     vdW  Elec       q    Type
REMARK                         _______ _______ _______ _____ _____    ______ ____
ROOT
ATOM      1  C   UNL     1       2.115   7.239  19.295  0.00  0.00    +0.000 C 
ATOM      2  C   UNL     1       1.905   8.795  19.296  0.00  0.00    +0.000 C 
ATOM      3  C   UNL     1       0.823   9.432  20.241  0.00  0.00    +0.000 C 
ATOM      4  C   UNL     1       0.748   8.686  21.599  0.00  0.00    +0.000 C 
ATOM      5  C   UNL     1       0.648   7.181  21.373  0.00  0.00    +0.000 C 
ATOM      6  C   UNL     1       1.892   6.610  20.696  0.00  0.00    +0.000 C 
ENDROOT
BRANCH   4   7
ATOM      7  N   UNL     1      -0.443   8.991  22.414  0.00  0.00    +0.000 NA
ATOM      8  H   UNL     1      -0.298   8.751  23.395  0.00  0.00    +0.000 HD
ATOM      9  H   UNL     1      -1.256   8.469  22.089  0.00  0.00    +0.000 HD
ENDBRANCH   4   7
BRANCH   6  10
ATOM     10  N   UNL     1       1.700   5.149  20.629  0.00  0.00    +0.000 NA
ATOM     11  H   UNL     1       1.615   4.847  19.656  0.00  0.00    +0.000 HD
ATOM     12  H   UNL     1       0.835   4.871  21.091  0.00  0.00    +0.000 HD
ENDBRANCH   6  10
BRANCH   2  13
ATOM     13  O   UNL     1       1.573   9.167  17.932  0.00  0.00    +0.000 OA
ATOM     14  H   UNL     1       2.386   9.086  17.404  0.00  0.00    +0.000 HD
ENDBRANCH   2  13
BRANCH   1  15
ATOM     15  O   UNL     1       3.438   7.019  18.724  0.00  0.00    +0.000 OA
BRANCH  15  18
ATOM     16  C   UNL     1       4.860   4.415  18.059  0.00  0.00    +0.000 C 
ATOM     17  C   UNL     1       3.565   4.945  17.389  0.00  0.00    +0.000 C 
ATOM     18  C   UNL     1       3.556   6.508  17.388  0.00  0.00    +0.000 C 
ATOM     19  O   UNL     1       4.721   6.965  16.693  0.00  0.00    +0.000 OA
ATOM     20  C   UNL     1       5.955   6.549  17.281  0.00  0.00    +0.000 C 
ATOM     21  C   UNL     1       6.115   5.013  17.354  0.00  0.00    +0.000 C 
ATOM     22  C   UNL     1       7.411   4.680  18.098  0.00  0.00    +0.000 C 
BRANCH  16  24
ATOM     23  C   UNL     1       4.488   2.503  19.644  0.00  0.00    +0.000 C 
ATOM     24  N   UNL     1       4.825   2.941  18.297  0.00  0.00    +0.000 NA
ATOM     25  H   UNL     1       4.142   2.532  17.657  0.00  0.00    +0.000 HD
ENDBRANCH  16  24
BRANCH  17  26
ATOM     26  O   UNL     1       2.415   4.381  18.036  0.00  0.00    +0.000 OA
ATOM     27  H   UNL     1       1.724   4.380  17.341  0.00  0.00    +0.000 HD
ENDBRANCH  17  26
BRANCH  21  28
ATOM     28  O   UNL     1       6.278   4.488  16.025  0.00  0.00    +0.000 OA
ATOM     29  H   UNL     1       6.183   3.521  16.054  0.00  0.00    +0.000 HD
ENDBRANCH  21  28
ENDBRANCH  15  18
ENDBRANCH   1  15
BRANCH   3  30
ATOM     30  O   UNL     1       1.186  10.847  20.355  0.00  0.00    +0.000 OA
BRANCH  30  31
ATOM     31  C   UNL     1       0.101  11.800  20.412  0.00  0.00    +0.000 C 
ATOM     32  O   UNL     1      -0.946  11.458  19.508  0.00  0.00    +0.000 OA
ATOM     33  C   UNL     1      -1.147  12.241  18.393  0.00  0.00    +0.000 C 
ATOM     34  C   UNL     1      -0.529  13.404  18.157  0.00  0.00    +0.000 C 
ATOM     35  C   UNL     1       0.534  13.964  19.027  0.00  0.00    +0.000 C 
ATOM     36  C   UNL     1       0.617  13.277  20.389  0.00  0.00    +0.000 C 
BRANCH  36  37
ATOM     37  N   UNL     1       1.976  13.454  20.946  0.00  0.00    +0.000 NA
ATOM     38  H   UNL     1       2.581  12.790  20.449  0.00  0.00    +0.000 HD
ATOM     39  H   UNL     1       1.989  13.135  21.912  0.00  0.00    +0.000 HD
ENDBRANCH  36  37
BRANCH  33  40
ATOM     40  C   UNL     1      -2.056  11.623  17.341  0.00  0.00    +0.000 C 
ATOM     41  C   UNL     1      -1.826  10.112  17.363  0.00  0.00    +0.000 C 
BRANCH  40  42
ATOM     42  N   UNL     1      -3.465  11.942  17.557  0.00  0.00    +0.000 NA
ATOM     43  H   UNL     1      -3.610  12.134  18.541  0.00  0.00    +0.000 HD
ATOM     44  H   UNL     1      -4.026  11.116  17.345  0.00  0.00    +0.000 HD
ENDBRANCH  40  42
ENDBRANCH  33  40
ENDBRANCH  30  31
ENDBRANCH   3  30
TORSDOF 13
ENDMDL
MODEL 3
REMARK VINA RESULT:      -6.5      2.335      8.204
REMARK  Name = 
REMARK  16 active torsions:
REMARK  status: ('A' for Active; 'I' for Inactive)
REMARK    1  A    between atoms: C_1  and  N_2
REMARK    2  A    between atoms: N_2  and  C_3
REMARK    3  A    between atoms: C_4  and  O_5
REMARK    4  A    between atoms: C_6  and  O_7
REMARK    5  A    between atoms: O_7  and  C_8
REMARK    6  A    between atoms: C_9  and  O_10
REMARK    7  A    between atoms: C_11  and  O_12
REMARK    8  A    between atoms: O_12  and  C_13
REMARK    9  A    between atoms: C_15  and  C_16
REMARK   10  A    between atoms: C_16  and  C_17
REMARK   11  A    between atoms: C_16  and  N_18
REMARK   12  A    between atoms: C_21  and  N_22
REMARK   13  A    between atoms: C_23  and  N_24
REMARK   14  A    between atoms: C_26  and  N_27
REMARK   15  A    between atoms: C_30  and  C_31
REMARK   16  A    between atoms: C_30  and  O_32
REMARK                            x       y       z     vdW  Elec       q    Type
REMARK                         _______ _______ _______ _____ _____    ______ ____
ROOT
ATOM      1  C   UNL     1       2.406   6.601  19.388  0.00  0.00    +0.000 C 
ATOM      2  C   UNL     1       2.244   8.151  19.200  0.00  0.00    +0.000 C 
ATOM      3  C   UNL     1       1.002   8.883  19.826  0.00  0.00    +0.000 C 
ATOM      4  C   UNL     1       0.615   8.271  21.197  0.00  0.00    +0.000 C 
ATOM      5  C   UNL     1       0.524   6.752  21.094  0.00  0.00    +0.000 C 
ATOM      6  C   UNL     1       1.869   6.111  20.758  0.00  0.00    +0.000 C 
ENDROOT
BRANCH   4   7
ATOM      7  N   UNL     1      -0.715   8.661  21.702  0.00  0.00    +0.000 NA
ATOM      8  H   UNL     1      -0.736   9.641  21.985  0.00  0.00    +0.000 HD
ATOM      9  H   UNL     1      -0.980   8.104  22.512  0.00  0.00    +0.000 HD
ENDBRANCH   4   7
BRANCH   6  10
ATOM     10  N   UNL     1       1.656   4.651  20.784  0.00  0.00    +0.000 NA
ATOM     11  H   UNL     1       2.018   4.256  21.654  0.00  0.00    +0.000 HD
ATOM     12  H   UNL     1       2.164   4.192  20.029  0.00  0.00    +0.000 HD
ENDBRANCH   6  10
BRANCH   2  13
ATOM     13  O   UNL     1       2.224   8.394  17.769  0.00  0.00    +0.000 OA
ATOM     14  H   UNL     1       3.035   8.006  17.398  0.00  0.00    +0.000 HD
ENDBRANCH   2  13
BRANCH   1  15
ATOM     15  O   UNL     1       3.815   6.318  19.140  0.00  0.00    +0.000 OA
BRANCH  15  18
ATOM     16  C   UNL     1       6.704   5.698  18.426  0.00  0.00    +0.000 C 
ATOM     17  C   UNL     1       5.492   4.751  18.230  0.00  0.00    +0.000 C 
ATOM     18  C   UNL     1       4.193   5.580  17.969  0.00  0.00    +0.000 C 
ATOM     19  O   UNL     1       4.403   6.395  16.811  0.00  0.00    +0.000 OA
ATOM     20  C   UNL     1       5.481   7.325  16.937  0.00  0.00    +0.000 C 
ATOM     21  C   UNL     1       6.847   6.651  17.201  0.00  0.00    +0.000 C 
ATOM     22  C   UNL     1       7.903   7.736  17.431  0.00  0.00    +0.000 C 
BRANCH  16  24
ATOM     23  C   UNL     1       8.446   5.374  20.206  0.00  0.00    +0.000 C 
ATOM     24  N   UNL     1       7.925   4.983  18.904  0.00  0.00    +0.000 NA
ATOM     25  H   UNL     1       7.713   3.984  18.942  0.00  0.00    +0.000 HD
ENDBRANCH  16  24
BRANCH  17  26
ATOM     26  O   UNL     1       5.374   3.870  19.356  0.00  0.00    +0.000 OA
ATOM     27  H   UNL     1       4.527   3.398  19.206  0.00  0.00    +0.000 HD
ENDBRANCH  17  26
BRANCH  21  28
ATOM     28  O   UNL     1       7.263   5.941  16.022  0.00  0.00    +0.000 OA
ATOM     29  H   UNL     1       6.536   5.951  15.376  0.00  0.00    +0.000 HD
ENDBRANCH  21  28
ENDBRANCH  15  18
ENDBRANCH   1  15
BRANCH   3  30
ATOM     30  O   UNL     1       1.370  10.300  19.885  0.00  0.00    +0.000 OA
BRANCH  30  31
ATOM     31  C   UNL     1       0.316  11.241  20.186  0.00  0.00    +0.000 C 
ATOM     32  O   UNL     1      -0.817  11.045  19.345  0.00  0.00    +0.000 OA
ATOM     33  C   UNL     1      -1.105  11.988  18.383  0.00  0.00    +0.000 C 
ATOM     34  C   UNL     1      -0.488  13.169  18.264  0.00  0.00    +0.000 C 
ATOM     35  C   UNL     1       0.663  13.585  19.104  0.00  0.00    +0.000 C 
ATOM     36  C   UNL     1       0.857  12.701  20.334  0.00  0.00    +0.000 C 
BRANCH  36  37
ATOM     37  N   UNL     1       2.266  12.784  20.780  0.00  0.00    +0.000 NA
ATOM     38  H   UNL     1       2.589  11.817  20.895  0.00  0.00    +0.000 HD
ATOM     39  H   UNL     1       2.301  13.176  21.718  0.00  0.00    +0.000 HD
ENDBRANCH  36  37
BRANCH  33  40
ATOM     40  C   UNL     1      -2.120  11.541  17.342  0.00  0.00    +0.000 C 
ATOM     41  C   UNL     1      -2.012  10.021  17.215  0.00  0.00    +0.000 C 
BRANCH  40  42
ATOM     42  N   UNL     1      -3.484  11.943  17.676  0.00  0.00    +0.000 NA
ATOM     43  H   UNL     1      -4.063  11.856  16.850  0.00  0.00    +0.000 HD
ATOM     44  H   UNL     1      -3.485  12.936  17.918  0.00  0.00    +0.000 HD
ENDBRANCH  40  42
ENDBRANCH  33  40
ENDBRANCH  30  31
ENDBRANCH   3  30
TORSDOF 13
ENDMDL
MODEL 4
REMARK VINA RESULT:      -6.4      2.675      8.290
REMARK  Name = 
REMARK  16 active torsions:
REMARK  status: ('A' for Active; 'I' for Inactive)
REMARK    1  A    between atoms: C_1  and  N_2
REMARK    2  A    between atoms: N_2  and  C_3
REMARK    3  A    between atoms: C_4  and  O_5
REMARK    4  A    between atoms: C_6  and  O_7
REMARK    5  A    between atoms: O_7  and  C_8
REMARK    6  A    between atoms: C_9  and  O_10
REMARK    7  A    between atoms: C_11  and  O_12
REMARK    8  A    between atoms: O_12  and  C_13
REMARK    9  A    between atoms: C_15  and  C_16
REMARK   10  A    between atoms: C_16  and  C_17
REMARK   11  A    between atoms: C_16  and  N_18
REMARK   12  A    between atoms: C_21  and  N_22
REMARK   13  A    between atoms: C_23  and  N_24
REMARK   14  A    between atoms: C_26  and  N_27
REMARK   15  A    between atoms: C_30  and  C_31
REMARK   16  A    between atoms: C_30  and  O_32
REMARK                            x       y       z     vdW  Elec       q    Type
REMARK                         _______ _______ _______ _____ _____    ______ ____
ROOT
ATOM      1  C   UNL     1       2.247   7.611  18.944  0.00  0.00    +0.000 C 
ATOM      2  C   UNL     1       1.803   9.058  18.528  0.00  0.00    +0.000 C 
ATOM      3  C   UNL     1       0.654   9.777  19.323  0.00  0.00    +0.000 C 
ATOM      4  C   UNL     1       0.716   9.440  20.836  0.00  0.00    +0.000 C 
ATOM      5  C   UNL     1       0.842   7.934  21.040  0.00  0.00    +0.000 C 
ATOM      6  C   UNL     1       2.146   7.377  20.474  0.00  0.00    +0.000 C 
ENDROOT
BRANCH   4   7
ATOM      7  N   UNL     1      -0.494   9.791  21.604  0.00  0.00    +0.000 NA
ATOM      8  H   UNL     1      -0.262  10.309  22.451  0.00  0.00    +0.000 HD
ATOM      9  H   UNL     1      -1.006   8.958  21.886  0.00  0.00    +0.000 HD
ENDBRANCH   4   7
BRANCH   6  10
ATOM     10  N   UNL     1       2.177   5.944  20.823  0.00  0.00    +0.000 NA
ATOM     11  H   UNL     1       2.682   5.804  21.700  0.00  0.00    +0.000 HD
ATOM     12  H   UNL     1       2.677   5.405  20.116  0.00  0.00    +0.000 HD
ENDBRANCH   6  10
BRANCH   2  13
ATOM     13  O   UNL     1       1.395   8.981  17.137  0.00  0.00    +0.000 OA
ATOM     14  H   UNL     1       2.051   8.432  16.673  0.00  0.00    +0.000 HD
ENDBRANCH   2  13
BRANCH   1  15
ATOM     15  O   UNL     1       3.578   7.428  18.378  0.00  0.00    +0.000 OA
BRANCH  15  18
ATOM     16  C   UNL     1       4.948   4.726  18.123  0.00  0.00    +0.000 C 
ATOM     17  C   UNL     1       3.692   5.190  17.340  0.00  0.00    +0.000 C 
ATOM     18  C   UNL     1       3.727   6.738  17.129  0.00  0.00    +0.000 C 
ATOM     19  O   UNL     1       4.928   7.070  16.422  0.00  0.00    +0.000 OA
ATOM     20  C   UNL     1       6.129   6.709  17.107  0.00  0.00    +0.000 C 
ATOM     21  C   UNL     1       6.243   5.193  17.393  0.00  0.00    +0.000 C 
ATOM     22  C   UNL     1       7.503   4.935  18.223  0.00  0.00    +0.000 C 
BRANCH  16  24
ATOM     23  C   UNL     1       4.477   3.055  19.939  0.00  0.00    +0.000 C 
ATOM     24  N   UNL     1       4.864   3.298  18.557  0.00  0.00    +0.000 NA
ATOM     25  H   UNL     1       4.187   2.825  17.956  0.00  0.00    +0.000 HD
ENDBRANCH  16  24
BRANCH  17  26
ATOM     26  O   UNL     1       2.506   4.746  18.014  0.00  0.00    +0.000 OA
ATOM     27  H   UNL     1       1.809   5.363  17.706  0.00  0.00    +0.000 HD
ENDBRANCH  17  26
BRANCH  21  28
ATOM     28  O   UNL     1       6.437   4.490  16.153  0.00  0.00    +0.000 OA
ATOM     29  H   UNL     1       5.781   3.774  16.092  0.00  0.00    +0.000 HD
ENDBRANCH  21  28
ENDBRANCH  15  18
ENDBRANCH   1  15
BRANCH   3  30
ATOM     30  O   UNL     1       0.800  11.203  19.021  0.00  0.00    +0.000 OA
BRANCH  30  31
ATOM     31  C   UNL     1       1.688  11.967  19.867  0.00  0.00    +0.000 C 
ATOM     32  O   UNL     1       1.050  12.355  21.080  0.00  0.00    +0.000 OA
ATOM     33  C   UNL     1       0.738  13.683  21.274  0.00  0.00    +0.000 C 
ATOM     34  C   UNL     1       1.122  14.681  20.472  0.00  0.00    +0.000 C 
ATOM     35  C   UNL     1       1.864  14.480  19.203  0.00  0.00    +0.000 C 
ATOM     36  C   UNL     1       2.450  13.075  19.068  0.00  0.00    +0.000 C 
BRANCH  36  37
ATOM     37  N   UNL     1       2.650  12.762  17.636  0.00  0.00    +0.000 NA
ATOM     38  H   UNL     1       2.099  13.450  17.110  0.00  0.00    +0.000 HD
ATOM     39  H   UNL     1       2.214  11.869  17.421  0.00  0.00    +0.000 HD
ENDBRANCH  36  37
BRANCH  33  40
ATOM     40  C   UNL     1      -0.213  13.947  22.432  0.00  0.00    +0.000 C 
ATOM     41  C   UNL     1      -1.368  14.793  21.896  0.00  0.00    +0.000 C 
BRANCH  40  42
ATOM     42  N   UNL     1      -0.706  12.717  23.047  0.00  0.00    +0.000 NA
ATOM     43  H   UNL     1      -0.070  12.442  23.785  0.00  0.00    +0.000 HD
ATOM     44  H   UNL     1      -0.677  11.967  22.355  0.00  0.00    +0.000 HD
ENDBRANCH  40  42
ENDBRANCH  33  40
ENDBRANCH  30  31
ENDBRANCH   3  30
TORSDOF 13
ENDMDL
MODEL 5
REMARK VINA RESULT:      -6.4      1.285      2.775
REMARK  Name = 
REMARK  16 active torsions:
REMARK  status: ('A' for Active; 'I' for Inactive)
REMARK    1  A    between atoms: C_1  and  N_2
REMARK    2  A    between atoms: N_2  and  C_3
REMARK    3  A    between atoms: C_4  and  O_5
REMARK    4  A    between atoms: C_6  and  O_7
REMARK    5  A    between atoms: O_7  and  C_8
REMARK    6  A    between atoms: C_9  and  O_10
REMARK    7  A    between atoms: C_11  and  O_12
REMARK    8  A    between atoms: O_12  and  C_13
REMARK    9  A    between atoms: C_15  and  C_16
REMARK   10  A    between atoms: C_16  and  C_17
REMARK   11  A    between atoms: C_16  and  N_18
REMARK   12  A    between atoms: C_21  and  N_22
REMARK   13  A    between atoms: C_23  and  N_24
REMARK   14  A    between atoms: C_26  and  N_27
REMARK   15  A    between atoms: C_30  and  C_31
REMARK   16  A    between atoms: C_30  and  O_32
REMARK                            x       y       z     vdW  Elec       q    Type
REMARK                         _______ _______ _______ _____ _____    ______ ____
ROOT
ATOM      1  C   UNL     1       2.451   4.914  19.259  0.00  0.00    +0.000 C 
ATOM      2  C   UNL     1       3.858   4.823  18.570  0.00  0.00    +0.000 C 
ATOM      3  C   UNL     1       4.528   3.417  18.356  0.00  0.00    +0.000 C 
ATOM      4  C   UNL     1       3.473   2.334  18.007  0.00  0.00    +0.000 C 
ATOM      5  C   UNL     1       2.311   2.388  18.993  0.00  0.00    +0.000 C 
ATOM      6  C   UNL     1       1.542   3.705  18.915  0.00  0.00    +0.000 C 
ENDROOT
BRANCH   4   7
ATOM      7  N   UNL     1       3.950   0.942  18.112  0.00  0.00    +0.000 NA
ATOM      8  H   UNL     1       3.180   0.295  18.287  0.00  0.00    +0.000 HD
ATOM      9  H   UNL     1       4.616   0.837  18.875  0.00  0.00    +0.000 HD
ENDBRANCH   4   7
BRANCH   6  10
ATOM     10  N   UNL     1       0.402   3.581  19.843  0.00  0.00    +0.000 NA
ATOM     11  H   UNL     1       0.654   3.940  20.765  0.00  0.00    +0.000 HD
ATOM     12  H   UNL     1       0.144   2.603  19.978  0.00  0.00    +0.000 HD
ENDBRANCH   6  10
BRANCH   2  13
ATOM     13  O   UNL     1       4.764   5.625  19.372  0.00  0.00    +0.000 OA
ATOM     14  H   UNL     1       4.868   6.481  18.922  0.00  0.00    +0.000 HD
ENDBRANCH   2  13
BRANCH   1  15
ATOM     15  O   UNL     1       1.912   6.217  18.886  0.00  0.00    +0.000 OA
BRANCH  15  18
ATOM     16  C   UNL     1       0.555   8.744  19.894  0.00  0.00    +0.000 C 
ATOM     17  C   UNL     1       1.909   8.174  20.392  0.00  0.00    +0.000 C 
ATOM     18  C   UNL     1       2.632   7.407  19.238  0.00  0.00    +0.000 C 
ATOM     19  O   UNL     1       2.823   8.313  18.145  0.00  0.00    +0.000 OA
ATOM     20  C   UNL     1       1.612   8.846  17.606  0.00  0.00    +0.000 C 
ATOM     21  C   UNL     1       0.776   9.639  18.638  0.00  0.00    +0.000 C 
ATOM     22  C   UNL     1      -0.544  10.065  17.989  0.00  0.00    +0.000 C 
BRANCH  16  24
ATOM     23  C   UNL     1       0.334  10.277  21.871  0.00  0.00    +0.000 C 
ATOM     24  N   UNL     1      -0.287   9.287  21.002  0.00  0.00    +0.000 NA
ATOM     25  H   UNL     1      -1.118   9.714  20.588  0.00  0.00    +0.000 HD
ENDBRANCH  16  24
BRANCH  17  26
ATOM     26  O   UNL     1       1.697   7.361  21.555  0.00  0.00    +0.000 OA
ATOM     27  H   UNL     1       0.721   7.316  21.644  0.00  0.00    +0.000 HD
ENDBRANCH  17  26
BRANCH  21  28
ATOM     28  O   UNL     1       1.464  10.858  18.969  0.00  0.00    +0.000 OA
ATOM     29  H   UNL     1       2.336  10.855  18.540  0.00  0.00    +0.000 HD
ENDBRANCH  21  28
ENDBRANCH  15  18
ENDBRANCH   1  15
BRANCH   3  30
ATOM     30  O   UNL     1       5.544   3.620  17.320  0.00  0.00    +0.000 OA
BRANCH  30  31
ATOM     31  C   UNL     1       5.242   4.581  16.283  0.00  0.00    +0.000 C 
ATOM     32  O   UNL     1       4.919   3.940  15.053  0.00  0.00    +0.000 OA
ATOM     33  C   UNL     1       5.807   4.024  14.004  0.00  0.00    +0.000 C 
ATOM     34  C   UNL     1       6.900   4.795  13.990  0.00  0.00    +0.000 C 
ATOM     35  C   UNL     1       7.356   5.598  15.151  0.00  0.00    +0.000 C 
ATOM     36  C   UNL     1       6.291   5.741  16.236  0.00  0.00    +0.000 C 
BRANCH  36  37
ATOM     37  N   UNL     1       6.946   6.021  17.533  0.00  0.00    +0.000 NA
ATOM     38  H   UNL     1       7.951   6.100  17.338  0.00  0.00    +0.000 HD
ATOM     39  H   UNL     1       6.867   5.204  18.134  0.00  0.00    +0.000 HD
ENDBRANCH  36  37
BRANCH  33  40
ATOM     40  C   UNL     1       5.532   3.057  12.862  0.00  0.00    +0.000 C 
ATOM     41  C   UNL     1       4.478   3.698  11.959  0.00  0.00    +0.000 C 
BRANCH  40  42
ATOM     42  N   UNL     1       6.735   2.721  12.106  0.00  0.00    +0.000 NA
ATOM     43  H   UNL     1       7.118   3.569  11.705  0.00  0.00    +0.000 HD
ATOM     44  H   UNL     1       6.474   2.129  11.315  0.00  0.00    +0.000 HD
ENDBRANCH  40  42
ENDBRANCH  33  40
ENDBRANCH  30  31
ENDBRANCH   3  30
TORSDOF 13
ENDMDL
MODEL 6
REMARK VINA RESULT:      -6.2      4.637     11.115
REMARK  Name = 
REMARK  16 active torsions:
REMARK  status: ('A' for Active; 'I' for Inactive)
REMARK    1  A    between atoms: C_1  and  N_2
REMARK    2  A    between atoms: N_2  and  C_3
REMARK    3  A    between atoms: C_4  and  O_5
REMARK    4  A    between atoms: C_6  and  O_7
REMARK    5  A    between atoms: O_7  and  C_8
REMARK    6  A    between atoms: C_9  and  O_10
REMARK    7  A    between atoms: C_11  and  O_12
REMARK    8  A    between atoms: O_12  and  C_13
REMARK    9  A    between atoms: C_15  and  C_16
REMARK   10  A    between atoms: C_16  and  C_17
REMARK   11  A    between atoms: C_16  and  N_18
REMARK   12  A    between atoms: C_21  and  N_22
REMARK   13  A    between atoms: C_23  and  N_24
REMARK   14  A    between atoms: C_26  and  N_27
REMARK   15  A    between atoms: C_30  and  C_31
REMARK   16  A    between atoms: C_30  and  O_32
REMARK                            x       y       z     vdW  Elec       q    Type
REMARK                         _______ _______ _______ _____ _____    ______ ____
ROOT
ATOM      1  C   UNL     1      -2.217  11.330  17.708  0.00  0.00    +0.000 C 
ATOM      2  C   UNL     1      -3.107  11.721  18.940  0.00  0.00    +0.000 C 
ATOM      3  C   UNL     1      -4.597  12.166  18.712  0.00  0.00    +0.000 C 
ATOM      4  C   UNL     1      -5.258  11.362  17.561  0.00  0.00    +0.000 C 
ATOM      5  C   UNL     1      -4.356  11.357  16.331  0.00  0.00    +0.000 C 
ATOM      6  C   UNL     1      -3.032  10.640  16.583  0.00  0.00    +0.000 C 
ENDROOT
BRANCH   4   7
ATOM      7  N   UNL     1      -6.525  11.923  17.056  0.00  0.00    +0.000 NA
ATOM      8  H   UNL     1      -6.496  12.064  16.046  0.00  0.00    +0.000 HD
ATOM      9  H   UNL     1      -6.726  12.825  17.484  0.00  0.00    +0.000 HD
ENDBRANCH   4   7
BRANCH   6  10
ATOM     10  N   UNL     1      -2.310  10.628  15.296  0.00  0.00    +0.000 NA
ATOM     11  H   UNL     1      -1.837   9.732  15.164  0.00  0.00    +0.000 HD
ATOM     12  H   UNL     1      -1.582  11.341  15.278  0.00  0.00    +0.000 HD
ENDBRANCH   6  10
BRANCH   2  13
ATOM     13  O   UNL     1      -2.422  12.808  19.617  0.00  0.00    +0.000 OA
ATOM     14  H   UNL     1      -3.026  13.151  20.298  0.00  0.00    +0.000 HD
ENDBRANCH   2  13
BRANCH   1  15
ATOM     15  O   UNL     1      -1.119  10.538  18.249  0.00  0.00    +0.000 OA
BRANCH  15  18
ATOM     16  C   UNL     1       1.227   9.043  19.477  0.00  0.00    +0.000 C 
ATOM     17  C   UNL     1       1.278  10.456  18.838  0.00  0.00    +0.000 C 
ATOM     18  C   UNL     1      -0.094  11.182  19.019  0.00  0.00    +0.000 C 
ATOM     19  O   UNL     1      -0.382  11.259  20.420  0.00  0.00    +0.000 OA
ATOM     20  C   UNL     1      -0.487   9.989  21.067  0.00  0.00    +0.000 C 
ATOM     21  C   UNL     1       0.804   9.143  20.973  0.00  0.00    +0.000 C 
ATOM     22  C   UNL     1       0.546   7.768  21.596  0.00  0.00    +0.000 C 
BRANCH  16  24
ATOM     23  C   UNL     1       2.174   6.965  18.432  0.00  0.00    +0.000 C 
ATOM     24  N   UNL     1       2.422   8.213  19.139  0.00  0.00    +0.000 NA
ATOM     25  H   UNL     1       3.048   8.778  18.563  0.00  0.00    +0.000 HD
ENDBRANCH  16  24
BRANCH  17  26
ATOM     26  O   UNL     1       1.678  10.356  17.464  0.00  0.00    +0.000 OA
ATOM     27  H   UNL     1       2.462   9.767  17.484  0.00  0.00    +0.000 HD
ENDBRANCH  17  26
BRANCH  21  28
ATOM     28  O   UNL     1       1.831   9.752  21.775  0.00  0.00    +0.000 OA
ATOM     29  H   UNL     1       1.982   9.203  22.563  0.00  0.00    +0.000 HD
ENDBRANCH  21  28
ENDBRANCH  15  18
ENDBRANCH   1  15
BRANCH   3  30
ATOM     30  O   UNL     1      -5.258  12.006  20.010  0.00  0.00    +0.000 OA
BRANCH  30  31
ATOM     31  C   UNL     1      -5.498  13.207  20.776  0.00  0.00    +0.000 C 
ATOM     32  O   UNL     1      -4.612  13.307  21.887  0.00  0.00    +0.000 OA
ATOM     33  C   UNL     1      -5.115  13.144  23.159  0.00  0.00    +0.000 C 
ATOM     34  C   UNL     1      -6.415  13.047  23.457  0.00  0.00    +0.000 C 
ATOM     35  C   UNL     1      -7.494  13.007  22.439  0.00  0.00    +0.000 C 
ATOM     36  C   UNL     1      -7.022  13.433  21.050  0.00  0.00    +0.000 C 
BRANCH  36  37
ATOM     37  N   UNL     1      -7.916  12.847  20.027  0.00  0.00    +0.000 NA
ATOM     38  H   UNL     1      -8.521  12.180  20.521  0.00  0.00    +0.000 HD
ATOM     39  H   UNL     1      -7.370  12.272  19.391  0.00  0.00    +0.000 HD
ENDBRANCH  36  37
BRANCH  33  40
ATOM     40  C   UNL     1      -4.059  12.948  24.237  0.00  0.00    +0.000 C 
ATOM     41  C   UNL     1      -3.470  14.321  24.560  0.00  0.00    +0.000 C 
BRANCH  40  42
ATOM     42  N   UNL     1      -4.593  12.312  25.438  0.00  0.00    +0.000 NA
ATOM     43  H   UNL     1      -5.510  12.697  25.633  0.00  0.00    +0.000 HD
ATOM     44  H   UNL     1      -4.006  12.566  26.235  0.00  0.00    +0.000 HD
ENDBRANCH  40  42
ENDBRANCH  33  40
ENDBRANCH  30  31
ENDBRANCH   3  30
TORSDOF 13
ENDMDL
MODEL 7
REMARK VINA RESULT:      -6.1      2.917      8.173
REMARK  Name = 
REMARK  16 active torsions:
REMARK  status: ('A' for Active; 'I' for Inactive)
REMARK    1  A    between atoms: C_1  and  N_2
REMARK    2  A    between atoms: N_2  and  C_3
REMARK    3  A    between atoms: C_4  and  O_5
REMARK    4  A    between atoms: C_6  and  O_7
REMARK    5  A    between atoms: O_7  and  C_8
REMARK    6  A    between atoms: C_9  and  O_10
REMARK    7  A    between atoms: C_11  and  O_12
REMARK    8  A    between atoms: O_12  and  C_13
REMARK    9  A    between atoms: C_15  and  C_16
REMARK   10  A    between atoms: C_16  and  C_17
REMARK   11  A    between atoms: C_16  and  N_18
REMARK   12  A    between atoms: C_21  and  N_22
REMARK   13  A    between atoms: C_23  and  N_24
REMARK   14  A    between atoms: C_26  and  N_27
REMARK   15  A    between atoms: C_30  and  C_31
REMARK   16  A    between atoms: C_30  and  O_32
REMARK                            x       y       z     vdW  Elec       q    Type
REMARK                         _______ _______ _______ _____ _____    ______ ____
ROOT
ATOM      1  C   UNL     1       2.220   7.431  19.056  0.00  0.00    +0.000 C 
ATOM      2  C   UNL     1       2.045   8.986  18.927  0.00  0.00    +0.000 C 
ATOM      3  C   UNL     1       0.957   9.719  19.791  0.00  0.00    +0.000 C 
ATOM      4  C   UNL     1       0.831   9.086  21.202  0.00  0.00    +0.000 C 
ATOM      5  C   UNL     1       0.702   7.570  21.093  0.00  0.00    +0.000 C 
ATOM      6  C   UNL     1       1.948   6.921  20.495  0.00  0.00    +0.000 C 
ENDROOT
BRANCH   4   7
ATOM      7  N   UNL     1      -0.372   9.480  21.958  0.00  0.00    +0.000 NA
ATOM      8  H   UNL     1      -1.197   9.518  21.357  0.00  0.00    +0.000 HD
ATOM      9  H   UNL     1      -0.259  10.401  22.378  0.00  0.00    +0.000 HD
ENDBRANCH   4   7
BRANCH   6  10
ATOM     10  N   UNL     1       1.725   5.463  20.540  0.00  0.00    +0.000 NA
ATOM     11  H   UNL     1       2.542   4.991  20.931  0.00  0.00    +0.000 HD
ATOM     12  H   UNL     1       1.598   5.084  19.602  0.00  0.00    +0.000 HD
ENDBRANCH   6  10
BRANCH   2  13
ATOM     13  O   UNL     1       1.755   9.255  17.530  0.00  0.00    +0.000 OA
ATOM     14  H   UNL     1       1.673   8.396  17.081  0.00  0.00    +0.000 HD
ENDBRANCH   2  13
BRANCH   1  15
ATOM     15  O   UNL     1       3.551   7.138  18.538  0.00  0.00    +0.000 OA
BRANCH  15  18
ATOM     16  C   UNL     1       4.957   4.481  18.087  0.00  0.00    +0.000 C 
ATOM     17  C   UNL     1       3.681   4.974  17.356  0.00  0.00    +0.000 C 
ATOM     18  C   UNL     1       3.690   6.533  17.244  0.00  0.00    +0.000 C 
ATOM     19  O   UNL     1       4.874   6.929  16.543  0.00  0.00    +0.000 OA
ATOM     20  C   UNL     1       6.091   6.544  17.184  0.00  0.00    +0.000 C 
ATOM     21  C   UNL     1       6.232   5.015  17.369  0.00  0.00    +0.000 C 
ATOM     22  C   UNL     1       7.510   4.724  18.161  0.00  0.00    +0.000 C 
BRANCH  16  24
ATOM     23  C   UNL     1       4.527   2.689  19.794  0.00  0.00    +0.000 C 
ATOM     24  N   UNL     1       4.902   3.027  18.428  0.00  0.00    +0.000 NA
ATOM     25  H   UNL     1       4.229   2.581  17.802  0.00  0.00    +0.000 HD
ENDBRANCH  16  24
BRANCH  17  26
ATOM     26  O   UNL     1       2.513   4.469  18.017  0.00  0.00    +0.000 OA
ATOM     27  H   UNL     1       2.766   3.563  18.294  0.00  0.00    +0.000 HD
ENDBRANCH  17  26
BRANCH  21  28
ATOM     28  O   UNL     1       6.416   4.396  16.083  0.00  0.00    +0.000 OA
ATOM     29  H   UNL     1       5.931   3.554  16.067  0.00  0.00    +0.000 HD
ENDBRANCH  21  28
ENDBRANCH  15  18
ENDBRANCH   1  15
BRANCH   3  30
ATOM     30  O   UNL     1       1.348  11.131  19.801  0.00  0.00    +0.000 OA
BRANCH  30  31
ATOM     31  C   UNL     1       0.795  11.974  18.766  0.00  0.00    +0.000 C 
ATOM     32  O   UNL     1       1.785  12.829  18.202  0.00  0.00    +0.000 OA
ATOM     33  C   UNL     1       1.726  14.180  18.463  0.00  0.00    +0.000 C 
ATOM     34  C   UNL     1       0.715  14.792  19.090  0.00  0.00    +0.000 C 
ATOM     35  C   UNL     1      -0.445  14.075  19.676  0.00  0.00    +0.000 C 
ATOM     36  C   UNL     1      -0.557  12.628  19.202  0.00  0.00    +0.000 C 
BRANCH  36  37
ATOM     37  N   UNL     1      -1.318  11.842  20.199  0.00  0.00    +0.000 NA
ATOM     38  H   UNL     1      -0.631  11.494  20.877  0.00  0.00    +0.000 HD
ATOM     39  H   UNL     1      -1.687  11.004  19.758  0.00  0.00    +0.000 HD
ENDBRANCH  36  37
BRANCH  33  40
ATOM     40  C   UNL     1       2.983  14.952  18.094  0.00  0.00    +0.000 C 
ATOM     41  C   UNL     1       3.319  15.875  19.266  0.00  0.00    +0.000 C 
BRANCH  40  42
ATOM     42  N   UNL     1       4.109  14.077  17.778  0.00  0.00    +0.000 NA
ATOM     43  H   UNL     1       4.885  14.308  18.385  0.00  0.00    +0.000 HD
ATOM     44  H   UNL     1       4.426  14.276  16.827  0.00  0.00    +0.000 HD
ENDBRANCH  40  42
ENDBRANCH  33  40
ENDBRANCH  30  31
ENDBRANCH   3  30
TORSDOF 13
ENDMDL
MODEL 8
REMARK VINA RESULT:      -6.1      5.880      9.340
REMARK  Name = 
REMARK  16 active torsions:
REMARK  status: ('A' for Active; 'I' for Inactive)
REMARK    1  A    between atoms: C_1  and  N_2
REMARK    2  A    between atoms: N_2  and  C_3
REMARK    3  A    between atoms: C_4  and  O_5
REMARK    4  A    between atoms: C_6  and  O_7
REMARK    5  A    between atoms: O_7  and  C_8
REMARK    6  A    between atoms: C_9  and  O_10
REMARK    7  A    between atoms: C_11  and  O_12
REMARK    8  A    between atoms: O_12  and  C_13
REMARK    9  A    between atoms: C_15  and  C_16
REMARK   10  A    between atoms: C_16  and  C_17
REMARK   11  A    between atoms: C_16  and  N_18
REMARK   12  A    between atoms: C_21  and  N_22
REMARK   13  A    between atoms: C_23  and  N_24
REMARK   14  A    between atoms: C_26  and  N_27
REMARK   15  A    between atoms: C_30  and  C_31
REMARK   16  A    between atoms: C_30  and  O_32
REMARK                            x       y       z     vdW  Elec       q    Type
REMARK                         _______ _______ _______ _____ _____    ______ ____
ROOT
ATOM      1  C   UNL     1      -1.589  14.667  20.470  0.00  0.00    +0.000 C 
ATOM      2  C   UNL     1      -0.639  13.715  19.661  0.00  0.00    +0.000 C 
ATOM      3  C   UNL     1       0.895  13.677  20.000  0.00  0.00    +0.000 C 
ATOM      4  C   UNL     1       1.142  13.830  21.525  0.00  0.00    +0.000 C 
ATOM      5  C   UNL     1       0.355  15.016  22.074  0.00  0.00    +0.000 C 
ATOM      6  C   UNL     1      -1.154  14.819  21.951  0.00  0.00    +0.000 C 
ENDROOT
BRANCH   4   7
ATOM      7  N   UNL     1       2.534  14.135  21.904  0.00  0.00    +0.000 NA
ATOM      8  H   UNL     1       2.786  13.696  22.790  0.00  0.00    +0.000 HD
ATOM      9  H   UNL     1       2.676  15.138  22.010  0.00  0.00    +0.000 HD
ENDBRANCH   4   7
BRANCH   6  10
ATOM     10  N   UNL     1      -1.783  15.985  22.602  0.00  0.00    +0.000 NA
ATOM     11  H   UNL     1      -1.106  16.468  23.195  0.00  0.00    +0.000 HD
ATOM     12  H   UNL     1      -2.545  15.696  23.214  0.00  0.00    +0.000 HD
ENDBRANCH   6  10
BRANCH   2  13
ATOM     13  O   UNL     1      -0.772  14.089  18.264  0.00  0.00    +0.000 OA
ATOM     14  H   UNL     1       0.102  14.390  17.960  0.00  0.00    +0.000 HD
ENDBRANCH   2  13
BRANCH   1  15
ATOM     15  O   UNL     1      -2.935  14.142  20.273  0.00  0.00    +0.000 OA
BRANCH  15  18
ATOM     16  C   UNL     1      -5.417  12.685  19.292  0.00  0.00    +0.000 C 
ATOM     17  C   UNL     1      -3.992  12.083  19.412  0.00  0.00    +0.000 C 
ATOM     18  C   UNL     1      -3.212  12.768  20.580  0.00  0.00    +0.000 C 
ATOM     19  O   UNL     1      -3.955  12.582  21.790  0.00  0.00    +0.000 OA
ATOM     20  C   UNL     1      -5.265  13.152  21.766  0.00  0.00    +0.000 C 
ATOM     21  C   UNL     1      -6.168  12.571  20.653  0.00  0.00    +0.000 C 
ATOM     22  C   UNL     1      -7.500  13.325  20.645  0.00  0.00    +0.000 C 
BRANCH  16  24
ATOM     23  C   UNL     1      -6.480  13.273  17.094  0.00  0.00    +0.000 C 
ATOM     24  N   UNL     1      -6.131  12.239  18.057  0.00  0.00    +0.000 NA
ATOM     25  H   UNL     1      -5.540  11.556  17.580  0.00  0.00    +0.000 HD
ENDBRANCH  16  24
BRANCH  17  26
ATOM     26  O   UNL     1      -3.313  12.183  18.153  0.00  0.00    +0.000 OA
ATOM     27  H   UNL     1      -3.104  11.254  17.917  0.00  0.00    +0.000 HD
ENDBRANCH  17  26
BRANCH  21  28
ATOM     28  O   UNL     1      -6.491  11.205  20.967  0.00  0.00    +0.000 OA
ATOM     29  H   UNL     1      -7.201  11.194  21.631  0.00  0.00    +0.000 HD
ENDBRANCH  21  28
ENDBRANCH  15  18
ENDBRANCH   1  15
BRANCH   3  30
ATOM     30  O   UNL     1       1.391  12.420  19.436  0.00  0.00    +0.000 OA
BRANCH  30  31
ATOM     31  C   UNL     1       0.456  11.322  19.355  0.00  0.00    +0.000 C 
ATOM     32  O   UNL     1      -0.108  11.018  20.628  0.00  0.00    +0.000 OA
ATOM     33  C   UNL     1       0.252   9.845  21.254  0.00  0.00    +0.000 C 
ATOM     34  C   UNL     1       0.984   8.876  20.693  0.00  0.00    +0.000 C 
ATOM     35  C   UNL     1       1.590   8.977  19.343  0.00  0.00    +0.000 C 
ATOM     36  C   UNL     1       1.022  10.129  18.516  0.00  0.00    +0.000 C 
BRANCH  36  37
ATOM     37  N   UNL     1       2.007  10.526  17.485  0.00  0.00    +0.000 NA
ATOM     38  H   UNL     1       2.615  11.228  17.922  0.00  0.00    +0.000 HD
ATOM     39  H   UNL     1       1.532  11.029  16.740  0.00  0.00    +0.000 HD
ENDBRANCH  36  37
BRANCH  33  40
ATOM     40  C   UNL     1      -0.140   9.764  22.721  0.00  0.00    +0.000 C 
ATOM     41  C   UNL     1      -1.018  10.977  23.032  0.00  0.00    +0.000 C 
BRANCH  40  42
ATOM     42  N   UNL     1      -0.831   8.520  23.051  0.00  0.00    +0.000 NA
ATOM     43  H   UNL     1      -1.766   8.739  23.373  0.00  0.00    +0.000 HD
ATOM     44  H   UNL     1      -0.357   8.079  23.842  0.00  0.00    +0.000 HD
ENDBRANCH  40  42
ENDBRANCH  33  40
ENDBRANCH  30  31
ENDBRANCH   3  30
TORSDOF 13
ENDMDL
MODEL 9
REMARK VINA RESULT:      -6.1      5.012     11.481
REMARK  Name = 
REMARK  16 active torsions:
REMARK  status: ('A' for Active; 'I' for Inactive)
REMARK    1  A    between atoms: C_1  and  N_2
REMARK    2  A    between atoms: N_2  and  C_3
REMARK    3  A    between atoms: C_4  and  O_5
REMARK    4  A    between atoms: C_6  and  O_7
REMARK    5  A    between atoms: O_7  and  C_8
REMARK    6  A    between atoms: C_9  and  O_10
REMARK    7  A    between atoms: C_11  and  O_12
REMARK    8  A    between atoms: O_12  and  C_13
REMARK    9  A    between atoms: C_15  and  C_16
REMARK   10  A    between atoms: C_16  and  C_17
REMARK   11  A    between atoms: C_16  and  N_18
REMARK   12  A    between atoms: C_21  and  N_22
REMARK   13  A    between atoms: C_23  and  N_24
REMARK   14  A    between atoms: C_26  and  N_27
REMARK   15  A    between atoms: C_30  and  C_31
REMARK   16  A    between atoms: C_30  and  O_32
REMARK                            x       y       z     vdW  Elec       q    Type
REMARK                         _______ _______ _______ _____ _____    ______ ____
ROOT
ATOM      1  C   UNL     1      -2.700  11.636  18.396  0.00  0.00    +0.000 C 
ATOM      2  C   UNL     1      -3.735  11.815  19.562  0.00  0.00    +0.000 C 
ATOM      3  C   UNL     1      -5.219  12.212  19.229  0.00  0.00    +0.000 C 
ATOM      4  C   UNL     1      -5.705  11.538  17.919  0.00  0.00    +0.000 C 
ATOM      5  C   UNL     1      -4.683  11.741  16.806  0.00  0.00    +0.000 C 
ATOM      6  C   UNL     1      -3.349  11.063  17.109  0.00  0.00    +0.000 C 
ENDROOT
BRANCH   4   7
ATOM      7  N   UNL     1      -6.947  12.097  17.353  0.00  0.00    +0.000 NA
ATOM      8  H   UNL     1      -7.765  11.818  17.895  0.00  0.00    +0.000 HD
ATOM      9  H   UNL     1      -7.092  11.780  16.396  0.00  0.00    +0.000 HD
ENDBRANCH   4   7
BRANCH   6  10
ATOM     10  N   UNL     1      -2.499  11.258  15.919  0.00  0.00    +0.000 NA
ATOM     11  H   UNL     1      -1.544  10.950  16.112  0.00  0.00    +0.000 HD
ATOM     12  H   UNL     1      -2.437  12.245  15.671  0.00  0.00    +0.000 HD
ENDBRANCH   6  10
BRANCH   2  13
ATOM     13  O   UNL     1      -3.194  12.834  20.443  0.00  0.00    +0.000 OA
ATOM     14  H   UNL     1      -3.452  12.599  21.351  0.00  0.00    +0.000 HD
ENDBRANCH   2  13
BRANCH   1  15
ATOM     15  O   UNL     1      -1.616  10.834  18.950  0.00  0.00    +0.000 OA
BRANCH  15  18
ATOM     16  C   UNL     1       1.013   9.488  19.672  0.00  0.00    +0.000 C 
ATOM     17  C   UNL     1       0.822  10.985  19.316  0.00  0.00    +0.000 C 
ATOM     18  C   UNL     1      -0.602  11.466  19.745  0.00  0.00    +0.000 C 
ATOM     19  O   UNL     1      -0.748  11.247  21.153  0.00  0.00    +0.000 OA
ATOM     20  C   UNL     1      -0.626   9.879  21.548  0.00  0.00    +0.000 C 
ATOM     21  C   UNL     1       0.742   9.255  21.189  0.00  0.00    +0.000 C 
ATOM     22  C   UNL     1       0.723   7.767  21.553  0.00  0.00    +0.000 C 
BRANCH  16  24
ATOM     23  C   UNL     1       2.091   7.980  17.977  0.00  0.00    +0.000 C 
ATOM     24  N   UNL     1       2.259   8.909  19.086  0.00  0.00    +0.000 NA
ATOM     25  H   UNL     1       2.843   9.681  18.759  0.00  0.00    +0.000 HD
ENDBRANCH  16  24
BRANCH  17  26
ATOM     26  O   UNL     1       1.084  11.193  17.922  0.00  0.00    +0.000 OA
ATOM     27  H   UNL     1       0.638  10.441  17.478  0.00  0.00    +0.000 HD
ENDBRANCH  17  26
BRANCH  21  28
ATOM     28  O   UNL     1       1.765   9.847  22.008  0.00  0.00    +0.000 OA
ATOM     29  H   UNL     1       2.405   9.160  22.260  0.00  0.00    +0.000 HD
ENDBRANCH  21  28
ENDBRANCH  15  18
ENDBRANCH   1  15
BRANCH   3  30
ATOM     30  O   UNL     1      -5.998  11.849  20.415  0.00  0.00    +0.000 OA
BRANCH  30  31
ATOM     31  C   UNL     1      -6.720  12.911  21.078  0.00  0.00    +0.000 C 
ATOM     32  O   UNL     1      -5.909  14.070  21.247  0.00  0.00    +0.000 OA
ATOM     33  C   UNL     1      -5.490  14.412  22.513  0.00  0.00    +0.000 C 
ATOM     34  C   UNL     1      -5.910  13.825  23.640  0.00  0.00    +0.000 C 
ATOM     35  C   UNL     1      -6.820  12.653  23.668  0.00  0.00    +0.000 C 
ATOM     36  C   UNL     1      -7.506  12.395  22.328  0.00  0.00    +0.000 C 
BRANCH  36  37
ATOM     37  N   UNL     1      -7.908  10.973  22.248  0.00  0.00    +0.000 NA
ATOM     38  H   UNL     1      -8.694  10.932  21.588  0.00  0.00    +0.000 HD
ATOM     39  H   UNL     1      -8.309  10.685  23.137  0.00  0.00    +0.000 HD
ENDBRANCH  36  37
BRANCH  33  40
ATOM     40  C   UNL     1      -4.384  15.455  22.555  0.00  0.00    +0.000 C 
ATOM     41  C   UNL     1      -3.282  14.922  23.471  0.00  0.00    +0.000 C 
BRANCH  40  42
ATOM     42  N   UNL     1      -3.856  15.769  21.229  0.00  0.00    +0.000 NA
ATOM     43  H   UNL     1      -3.012  15.231  21.077  0.00  0.00    +0.000 HD
ATOM     44  H   UNL     1      -3.572  16.750  21.212  0.00  0.00    +0.000 HD
ENDBRANCH  40  42
ENDBRANCH  33  40
ENDBRANCH  30  31
ENDBRANCH   3  30
TORSDOF 13
ENDMDL
