MODEL 1
REMARK VINA RESULT:      -9.0      0.000      0.000
REMARK  Name = 
REMARK  5 active torsions:
REMARK  status: ('A' for Active; 'I' for Inactive)
REMARK    1  A    between atoms: C_1  and  O_2
REMARK    2  A    between atoms: O_2  and  C_3
REMARK    3  A    between atoms: C_12  and  C_13
REMARK    4  A    between atoms: C_14  and  C_15
REMARK    5  A    between atoms: C_16  and  C_17
REMARK                            x       y       z     vdW  Elec       q    Type
REMARK                         _______ _______ _______ _____ _____    ______ ____
ROOT
ATOM      1  C   UNL     1       3.435   3.685  17.969  0.00  0.00    +0.000 A 
ATOM      2  C   UNL     1       2.543   4.018  19.016  0.00  0.00    +0.000 A 
ATOM      3  C   UNL     1       1.476   3.369  19.708  0.00  0.00    +0.000 A 
ATOM      4  C   UNL     1       0.945   4.295  20.575  0.00  0.00    +0.000 A 
ATOM      5  O   UNL     1       1.634   5.458  20.503  0.00  0.00    +0.000 OA
ATOM      6  C   UNL     1       2.617   5.286  19.580  0.00  0.00    +0.000 A 
ATOM      7  C   UNL     1       3.563   6.241  19.237  0.00  0.00    +0.000 A 
ATOM      8  C   UNL     1       4.547   5.842  18.329  0.00  0.00    +0.000 A 
ATOM      9  O   UNL     1       5.523   6.788  18.099  0.00  0.00    +0.000 OA
ATOM     10  C   UNL     1       6.626   6.448  17.338  0.00  0.00    +0.000 A 
ATOM     11  C   UNL     1       6.732   5.271  16.705  0.00  0.00    +0.000 A 
ATOM     12  C   UNL     1       5.629   4.283  16.778  0.00  0.00    +0.000 A 
ATOM     13  O   UNL     1       5.698   3.268  16.097  0.00  0.00    +0.000 OA
ATOM     14  C   UNL     1       4.509   4.585  17.705  0.00  0.00    +0.000 A 
ENDROOT
BRANCH   1  16
ATOM     15  C   UNL     1       3.603   1.328  17.980  0.00  0.00    +0.000 C 
ATOM     16  O   UNL     1       3.297   2.520  17.239  0.00  0.00    +0.000 OA
ENDBRANCH   1  16
BRANCH  10  17
ATOM     17  C   UNL     1       7.665   7.466  17.272  0.00  0.00    +0.000 C 
ATOM     18  C   UNL     1       7.567   8.707  17.802  0.00  0.00    +0.000 C 
BRANCH  18  19
ATOM     19  C   UNL     1       8.602   9.720  17.741  0.00  0.00    +0.000 C 
ATOM     20  C   UNL     1       9.166  10.233  18.850  0.00  0.00    +0.000 C 
BRANCH  20  21
ATOM     21  C   UNL     1      10.237  11.228  18.775  0.00  0.00    +0.000 A 
ATOM     22  C   UNL     1      11.107  11.423  19.853  0.00  0.00    +0.000 A 
ATOM     23  C   UNL     1      12.048  12.457  19.817  0.00  0.00    +0.000 A 
ATOM     24  C   UNL     1      12.135  13.283  18.697  0.00  0.00    +0.000 A 
ATOM     25  C   UNL     1      11.308  13.056  17.597  0.00  0.00    +0.000 A 
ATOM     26  C   UNL     1      10.362  12.030  17.635  0.00  0.00    +0.000 A 
ENDBRANCH  20  21
ENDBRANCH  18  19
ENDBRANCH  10  17
TORSDOF 4
ENDMDL
MODEL 2
REMARK VINA RESULT:      -8.6      0.468      1.031
REMARK  Name = 
REMARK  5 active torsions:
REMARK  status: ('A' for Active; 'I' for Inactive)
REMARK    1  A    between atoms: C_1  and  O_2
REMARK    2  A    between atoms: O_2  and  C_3
REMARK    3  A    between atoms: C_12  and  C_13
REMARK    4  A    between atoms: C_14  and  C_15
REMARK    5  A    between atoms: C_16  and  C_17
REMARK                            x       y       z     vdW  Elec       q    Type
REMARK                         _______ _______ _______ _____ _____    ______ ____
ROOT
ATOM      1  C   UNL     1       3.378   3.508  17.914  0.00  0.00    +0.000 A 
ATOM      2  C   UNL     1       2.402   3.733  18.915  0.00  0.00    +0.000 A 
ATOM      3  C   UNL     1       1.419   2.950  19.592  0.00  0.00    +0.000 A 
ATOM      4  C   UNL     1       0.719   3.810  20.404  0.00  0.00    +0.000 A 
ATOM      5  O   UNL     1       1.224   5.062  20.313  0.00  0.00    +0.000 OA
ATOM      6  C   UNL     1       2.260   5.014  19.434  0.00  0.00    +0.000 A 
ATOM      7  C   UNL     1       3.063   6.092  19.089  0.00  0.00    +0.000 A 
ATOM      8  C   UNL     1       4.132   5.820  18.232  0.00  0.00    +0.000 A 
ATOM      9  O   UNL     1       4.961   6.898  18.002  0.00  0.00    +0.000 OA
ATOM     10  C   UNL     1       6.133   6.707  17.294  0.00  0.00    +0.000 A 
ATOM     11  C   UNL     1       6.443   5.541  16.710  0.00  0.00    +0.000 A 
ATOM     12  C   UNL     1       5.502   4.398  16.780  0.00  0.00    +0.000 A 
ATOM     13  O   UNL     1       5.753   3.384  16.141  0.00  0.00    +0.000 OA
ATOM     14  C   UNL     1       4.311   4.554  17.655  0.00  0.00    +0.000 A 
ENDROOT
BRANCH   1  16
ATOM     15  C   UNL     1       3.798   1.186  18.045  0.00  0.00    +0.000 C 
ATOM     16  O   UNL     1       3.449   2.312  17.224  0.00  0.00    +0.000 OA
ENDBRANCH   1  16
BRANCH  10  17
ATOM     17  C   UNL     1       7.007   7.870  17.226  0.00  0.00    +0.000 C 
ATOM     18  C   UNL     1       8.020   8.127  18.086  0.00  0.00    +0.000 C 
BRANCH  18  19
ATOM     19  C   UNL     1       8.894   9.281  18.018  0.00  0.00    +0.000 C 
ATOM     20  C   UNL     1       9.119  10.071  19.084  0.00  0.00    +0.000 C 
BRANCH  20  21
ATOM     21  C   UNL     1      10.033  11.212  19.013  0.00  0.00    +0.000 A 
ATOM     22  C   UNL     1      10.405  11.752  17.777  0.00  0.00    +0.000 A 
ATOM     23  C   UNL     1      11.371  12.762  17.714  0.00  0.00    +0.000 A 
ATOM     24  C   UNL     1      11.950  13.247  18.886  0.00  0.00    +0.000 A 
ATOM     25  C   UNL     1      11.541  12.752  20.123  0.00  0.00    +0.000 A 
ATOM     26  C   UNL     1      10.584  11.737  20.187  0.00  0.00    +0.000 A 
ENDBRANCH  20  21
ENDBRANCH  18  19
ENDBRANCH  10  17
TORSDOF 4
ENDMDL
MODEL 3
REMARK VINA RESULT:      -8.2      5.086      8.269
REMARK  Name = 
REMARK  5 active torsions:
REMARK  status: ('A' for Active; 'I' for Inactive)
REMARK    1  A    between atoms: C_1  and  O_2
REMARK    2  A    between atoms: O_2  and  C_3
REMARK    3  A    between atoms: C_12  and  C_13
REMARK    4  A    between atoms: C_14  and  C_15
REMARK    5  A    between atoms: C_16  and  C_17
REMARK                            x       y       z     vdW  Elec       q    Type
REMARK                         _______ _______ _______ _____ _____    ______ ____
ROOT
ATOM      1  C   UNL     1       3.986   4.273  18.191  0.00  0.00    +0.000 A 
ATOM      2  C   UNL     1       4.591   4.690  16.980  0.00  0.00    +0.000 A 
ATOM      3  C   UNL     1       5.234   4.053  15.876  0.00  0.00    +0.000 A 
ATOM      4  C   UNL     1       5.691   5.055  15.053  0.00  0.00    +0.000 A 
ATOM      5  O   UNL     1       5.342   6.266  15.546  0.00  0.00    +0.000 OA
ATOM      6  C   UNL     1       4.653   6.049  16.697  0.00  0.00    +0.000 A 
ATOM      7  C   UNL     1       4.094   7.039  17.491  0.00  0.00    +0.000 A 
ATOM      8  C   UNL     1       3.349   6.607  18.591  0.00  0.00    +0.000 A 
ATOM      9  O   UNL     1       2.727   7.622  19.287  0.00  0.00    +0.000 OA
ATOM     10  C   UNL     1       1.842   7.300  20.300  0.00  0.00    +0.000 A 
ATOM     11  C   UNL     1       1.654   6.042  20.722  0.00  0.00    +0.000 A 
ATOM     12  C   UNL     1       2.429   4.930  20.123  0.00  0.00    +0.000 A 
ATOM     13  O   UNL     1       2.325   3.809  20.605  0.00  0.00    +0.000 OA
ATOM     14  C   UNL     1       3.273   5.251  18.943  0.00  0.00    +0.000 A 
ENDROOT
BRANCH   1  16
ATOM     15  C   UNL     1       3.216   2.059  17.886  0.00  0.00    +0.000 C 
ATOM     16  O   UNL     1       4.055   2.962  18.624  0.00  0.00    +0.000 OA
ENDBRANCH   1  16
BRANCH  10  17
ATOM     17  C   UNL     1       1.131   8.432  20.878  0.00  0.00    +0.000 C 
ATOM     18  C   UNL     1       0.185   8.340  21.841  0.00  0.00    +0.000 C 
BRANCH  18  19
ATOM     19  C   UNL     1      -0.521   9.465  22.421  0.00  0.00    +0.000 C 
ATOM     20  C   UNL     1      -0.323  10.728  21.999  0.00  0.00    +0.000 C 
BRANCH  20  21
ATOM     21  C   UNL     1      -1.069  11.852  22.567  0.00  0.00    +0.000 A 
ATOM     22  C   UNL     1      -2.301  11.645  23.196  0.00  0.00    +0.000 A 
ATOM     23  C   UNL     1      -3.061  12.737  23.628  0.00  0.00    +0.000 A 
ATOM     24  C   UNL     1      -2.583  14.034  23.449  0.00  0.00    +0.000 A 
ATOM     25  C   UNL     1      -1.329  14.242  22.874  0.00  0.00    +0.000 A 
ATOM     26  C   UNL     1      -0.573  13.154  22.434  0.00  0.00    +0.000 A 
ENDBRANCH  20  21
ENDBRANCH  18  19
ENDBRANCH  10  17
TORSDOF 4
ENDMDL
MODEL 4
REMARK VINA RESULT:      -8.1      5.080      8.221
REMARK  Name = 
REMARK  5 active torsions:
REMARK  status: ('A' for Active; 'I' for Inactive)
REMARK    1  A    between atoms: C_1  and  O_2
REMARK    2  A    between atoms: O_2  and  C_3
REMARK    3  A    between atoms: C_12  and  C_13
REMARK    4  A    between atoms: C_14  and  C_15
REMARK    5  A    between atoms: C_16  and  C_17
REMARK                            x       y       z     vdW  Elec       q    Type
REMARK                         _______ _______ _______ _____ _____    ______ ____
ROOT
ATOM      1  C   UNL     1       4.403   4.300  17.900  0.00  0.00    +0.000 A 
ATOM      2  C   UNL     1       5.051   4.491  16.656  0.00  0.00    +0.000 A 
ATOM      3  C   UNL     1       5.727   3.665  15.708  0.00  0.00    +0.000 A 
ATOM      4  C   UNL     1       6.219   4.501  14.734  0.00  0.00    +0.000 A 
ATOM      5  O   UNL     1       5.860   5.781  14.987  0.00  0.00    +0.000 OA
ATOM      6  C   UNL     1       5.131   5.776  16.134  0.00  0.00    +0.000 A 
ATOM      7  C   UNL     1       4.551   6.894  16.715  0.00  0.00    +0.000 A 
ATOM      8  C   UNL     1       3.767   6.668  17.849  0.00  0.00    +0.000 A 
ATOM      9  O   UNL     1       3.127   7.792  18.328  0.00  0.00    +0.000 OA
ATOM     10  C   UNL     1       2.207   7.659  19.351  0.00  0.00    +0.000 A 
ATOM     11  C   UNL     1       1.996   6.498  19.987  0.00  0.00    +0.000 A 
ATOM     12  C   UNL     1       2.784   5.296  19.626  0.00  0.00    +0.000 A 
ATOM     13  O   UNL     1       2.658   4.281  20.299  0.00  0.00    +0.000 OA
ATOM     14  C   UNL     1       3.670   5.398  18.438  0.00  0.00    +0.000 A 
ENDROOT
BRANCH   1  16
ATOM     15  C   UNL     1       3.586   2.085  18.009  0.00  0.00    +0.000 C 
ATOM     16  O   UNL     1       4.449   3.090  18.566  0.00  0.00    +0.000 OA
ENDBRANCH   1  16
BRANCH  10  17
ATOM     17  C   UNL     1       1.483   8.877  19.689  0.00  0.00    +0.000 C 
ATOM     18  C   UNL     1       0.714   9.038  20.791  0.00  0.00    +0.000 C 
BRANCH  18  19
ATOM     19  C   UNL     1      -0.003  10.250  21.133  0.00  0.00    +0.000 C 
ATOM     20  C   UNL     1      -0.520  10.454  22.359  0.00  0.00    +0.000 C 
BRANCH  20  21
ATOM     21  C   UNL     1      -1.209  11.698  22.702  0.00  0.00    +0.000 A 
ATOM     22  C   UNL     1      -0.606  12.938  22.464  0.00  0.00    +0.000 A 
ATOM     23  C   UNL     1      -1.220  14.114  22.905  0.00  0.00    +0.000 A 
ATOM     24  C   UNL     1      -2.445  14.056  23.567  0.00  0.00    +0.000 A 
ATOM     25  C   UNL     1      -3.078  12.827  23.757  0.00  0.00    +0.000 A 
ATOM     26  C   UNL     1      -2.461  11.651  23.325  0.00  0.00    +0.000 A 
ENDBRANCH  20  21
ENDBRANCH  18  19
ENDBRANCH  10  17
TORSDOF 4
ENDMDL
MODEL 5
REMARK VINA RESULT:      -8.1      4.278     10.971
REMARK  Name = 
REMARK  5 active torsions:
REMARK  status: ('A' for Active; 'I' for Inactive)
REMARK    1  A    between atoms: C_1  and  O_2
REMARK    2  A    between atoms: O_2  and  C_3
REMARK    3  A    between atoms: C_12  and  C_13
REMARK    4  A    between atoms: C_14  and  C_15
REMARK    5  A    between atoms: C_16  and  C_17
REMARK                            x       y       z     vdW  Elec       q    Type
REMARK                         _______ _______ _______ _____ _____    ______ ____
ROOT
ATOM      1  C   UNL     1      10.665  14.717  20.119  0.00  0.00    +0.000 A 
ATOM      2  C   UNL     1      11.206  15.445  19.032  0.00  0.00    +0.000 A 
ATOM      3  C   UNL     1      11.900  16.680  18.861  0.00  0.00    +0.000 A 
ATOM      4  C   UNL     1      12.066  16.857  17.507  0.00  0.00    +0.000 A 
ATOM      5  O   UNL     1      11.563  15.800  16.829  0.00  0.00    +0.000 OA
ATOM      6  C   UNL     1      11.066  14.931  17.748  0.00  0.00    +0.000 A 
ATOM      7  C   UNL     1      10.489  13.704  17.455  0.00  0.00    +0.000 A 
ATOM      8  C   UNL     1      10.117  12.916  18.547  0.00  0.00    +0.000 A 
ATOM      9  O   UNL     1       9.647  11.665  18.208  0.00  0.00    +0.000 OA
ATOM     10  C   UNL     1       9.393  10.746  19.210  0.00  0.00    +0.000 A 
ATOM     11  C   UNL     1       9.465  11.058  20.512  0.00  0.00    +0.000 A 
ATOM     12  C   UNL     1       9.799  12.441  20.930  0.00  0.00    +0.000 A 
ATOM     13  O   UNL     1       9.743  12.729  22.119  0.00  0.00    +0.000 OA
ATOM     14  C   UNL     1      10.208  13.391  19.864  0.00  0.00    +0.000 A 
ENDROOT
BRANCH   1  16
ATOM     15  C   UNL     1       9.506  16.161  21.588  0.00  0.00    +0.000 C 
ATOM     16  O   UNL     1      10.601  15.252  21.392  0.00  0.00    +0.000 OA
ENDBRANCH   1  16
BRANCH  10  17
ATOM     17  C   UNL     1       9.037   9.413  18.746  0.00  0.00    +0.000 C 
ATOM     18  C   UNL     1       7.985   9.129  17.944  0.00  0.00    +0.000 C 
BRANCH  18  19
ATOM     19  C   UNL     1       7.632   7.802  17.477  0.00  0.00    +0.000 C 
ATOM     20  C   UNL     1       6.357   7.446  17.235  0.00  0.00    +0.000 C 
BRANCH  20  21
ATOM     21  C   UNL     1       6.016   6.116  16.728  0.00  0.00    +0.000 A 
ATOM     22  C   UNL     1       4.807   5.506  17.080  0.00  0.00    +0.000 A 
ATOM     23  C   UNL     1       4.546   4.189  16.689  0.00  0.00    +0.000 A 
ATOM     24  C   UNL     1       5.482   3.487  15.930  0.00  0.00    +0.000 A 
ATOM     25  C   UNL     1       6.663   4.111  15.528  0.00  0.00    +0.000 A 
ATOM     26  C   UNL     1       6.929   5.423  15.925  0.00  0.00    +0.000 A 
ENDBRANCH  20  21
ENDBRANCH  18  19
ENDBRANCH  10  17
TORSDOF 4
ENDMDL
MODEL 6
REMARK VINA RESULT:      -7.9      5.861      8.771
REMARK  Name = 
REMARK  5 active torsions:
REMARK  status: ('A' for Active; 'I' for Inactive)
REMARK    1  A    between atoms: C_1  and  O_2
REMARK    2  A    between atoms: O_2  and  C_3
REMARK    3  A    between atoms: C_12  and  C_13
REMARK    4  A    between atoms: C_14  and  C_15
REMARK    5  A    between atoms: C_16  and  C_17
REMARK                            x       y       z     vdW  Elec       q    Type
REMARK                         _______ _______ _______ _____ _____    ______ ____
ROOT
ATOM      1  C   UNL     1       3.323   5.402  18.331  0.00  0.00    +0.000 A 
ATOM      2  C   UNL     1       3.523   4.249  19.128  0.00  0.00    +0.000 A 
ATOM      3  C   UNL     1       4.252   3.028  19.011  0.00  0.00    +0.000 A 
ATOM      4  C   UNL     1       3.944   2.275  20.119  0.00  0.00    +0.000 A 
ATOM      5  O   UNL     1       3.111   2.959  20.937  0.00  0.00    +0.000 OA
ATOM      6  C   UNL     1       2.875   4.164  20.355  0.00  0.00    +0.000 A 
ATOM      7  C   UNL     1       2.091   5.172  20.897  0.00  0.00    +0.000 A 
ATOM      8  C   UNL     1       2.041   6.372  20.184  0.00  0.00    +0.000 A 
ATOM      9  O   UNL     1       1.337   7.376  20.814  0.00  0.00    +0.000 OA
ATOM     10  C   UNL     1       1.350   8.649  20.275  0.00  0.00    +0.000 A 
ATOM     11  C   UNL     1       1.918   8.927  19.092  0.00  0.00    +0.000 A 
ATOM     12  C   UNL     1       2.539   7.846  18.291  0.00  0.00    +0.000 A 
ATOM     13  O   UNL     1       2.945   8.103  17.164  0.00  0.00    +0.000 OA
ATOM     14  C   UNL     1       2.652   6.509  18.928  0.00  0.00    +0.000 A 
ENDROOT
BRANCH   1  16
ATOM     15  C   UNL     1       5.212   5.536  16.917  0.00  0.00    +0.000 C 
ATOM     16  O   UNL     1       3.781   5.474  17.029  0.00  0.00    +0.000 OA
ENDBRANCH   1  16
BRANCH  10  17
ATOM     17  C   UNL     1       0.697   9.667  21.085  0.00  0.00    +0.000 C 
ATOM     18  C   UNL     1      -0.223   9.418  22.046  0.00  0.00    +0.000 C 
BRANCH  18  19
ATOM     19  C   UNL     1      -0.871  10.430  22.857  0.00  0.00    +0.000 C 
ATOM     20  C   UNL     1      -1.375  11.558  22.324  0.00  0.00    +0.000 C 
BRANCH  20  21
ATOM     21  C   UNL     1      -2.060  12.555  23.148  0.00  0.00    +0.000 A 
ATOM     22  C   UNL     1      -1.449  13.778  23.445  0.00  0.00    +0.000 A 
ATOM     23  C   UNL     1      -2.059  14.672  24.330  0.00  0.00    +0.000 A 
ATOM     24  C   UNL     1      -3.290  14.354  24.905  0.00  0.00    +0.000 A 
ATOM     25  C   UNL     1      -3.929  13.161  24.568  0.00  0.00    +0.000 A 
ATOM     26  C   UNL     1      -3.316  12.264  23.691  0.00  0.00    +0.000 A 
ENDBRANCH  20  21
ENDBRANCH  18  19
ENDBRANCH  10  17
TORSDOF 4
ENDMDL
MODEL 7
REMARK VINA RESULT:      -7.9      6.438      9.267
REMARK  Name = 
REMARK  5 active torsions:
REMARK  status: ('A' for Active; 'I' for Inactive)
REMARK    1  A    between atoms: C_1  and  O_2
REMARK    2  A    between atoms: O_2  and  C_3
REMARK    3  A    between atoms: C_12  and  C_13
REMARK    4  A    between atoms: C_14  and  C_15
REMARK    5  A    between atoms: C_16  and  C_17
REMARK                            x       y       z     vdW  Elec       q    Type
REMARK                         _______ _______ _______ _____ _____    ______ ____
ROOT
ATOM      1  C   UNL     1      -2.807  12.194  19.643  0.00  0.00    +0.000 A 
ATOM      2  C   UNL     1      -3.918  11.897  18.817  0.00  0.00    +0.000 A 
ATOM      3  C   UNL     1      -5.245  12.398  18.654  0.00  0.00    +0.000 A 
ATOM      4  C   UNL     1      -5.860  11.593  17.725  0.00  0.00    +0.000 A 
ATOM      5  O   UNL     1      -4.997  10.656  17.267  0.00  0.00    +0.000 OA
ATOM      6  C   UNL     1      -3.814  10.853  17.906  0.00  0.00    +0.000 A 
ATOM      7  C   UNL     1      -2.659  10.114  17.691  0.00  0.00    +0.000 A 
ATOM      8  C   UNL     1      -1.519  10.528  18.384  0.00  0.00    +0.000 A 
ATOM      9  O   UNL     1      -0.375   9.831  18.059  0.00  0.00    +0.000 OA
ATOM     10  C   UNL     1       0.839  10.254  18.568  0.00  0.00    +0.000 A 
ATOM     11  C   UNL     1       0.941  11.242  19.468  0.00  0.00    +0.000 A 
ATOM     12  C   UNL     1      -0.278  11.910  19.983  0.00  0.00    +0.000 A 
ATOM     13  O   UNL     1      -0.168  12.726  20.890  0.00  0.00    +0.000 OA
ATOM     14  C   UNL     1      -1.568  11.557  19.337  0.00  0.00    +0.000 A 
ENDROOT
BRANCH   1  16
ATOM     15  C   UNL     1      -3.637  12.588  21.820  0.00  0.00    +0.000 C 
ATOM     16  O   UNL     1      -2.900  13.087  20.693  0.00  0.00    +0.000 OA
ENDBRANCH   1  16
BRANCH  10  17
ATOM     17  C   UNL     1       2.002   9.543  18.055  0.00  0.00    +0.000 C 
ATOM     18  C   UNL     1       2.146   8.197  18.053  0.00  0.00    +0.000 C 
BRANCH  18  19
ATOM     19  C   UNL     1       3.301   7.487  17.540  0.00  0.00    +0.000 C 
ATOM     20  C   UNL     1       3.802   6.399  18.153  0.00  0.00    +0.000 C 
BRANCH  20  21
ATOM     21  C   UNL     1       4.945   5.668  17.603  0.00  0.00    +0.000 A 
ATOM     22  C   UNL     1       6.192   5.714  18.236  0.00  0.00    +0.000 A 
ATOM     23  C   UNL     1       7.305   5.113  17.639  0.00  0.00    +0.000 A 
ATOM     24  C   UNL     1       7.169   4.448  16.421  0.00  0.00    +0.000 A 
ATOM     25  C   UNL     1       5.916   4.351  15.815  0.00  0.00    +0.000 A 
ATOM     26  C   UNL     1       4.807   4.959  16.405  0.00  0.00    +0.000 A 
ENDBRANCH  20  21
ENDBRANCH  18  19
ENDBRANCH  10  17
TORSDOF 4
ENDMDL
MODEL 8
REMARK VINA RESULT:      -7.7      6.326      9.137
REMARK  Name = 
REMARK  5 active torsions:
REMARK  status: ('A' for Active; 'I' for Inactive)
REMARK    1  A    between atoms: C_1  and  O_2
REMARK    2  A    between atoms: O_2  and  C_3
REMARK    3  A    between atoms: C_12  and  C_13
REMARK    4  A    between atoms: C_14  and  C_15
REMARK    5  A    between atoms: C_16  and  C_17
REMARK                            x       y       z     vdW  Elec       q    Type
REMARK                         _______ _______ _______ _____ _____    ______ ____
ROOT
ATOM      1  C   UNL     1      -2.598  12.155  19.425  0.00  0.00    +0.000 A 
ATOM      2  C   UNL     1      -3.727  11.878  18.617  0.00  0.00    +0.000 A 
ATOM      3  C   UNL     1      -5.008  12.469  18.396  0.00  0.00    +0.000 A 
ATOM      4  C   UNL     1      -5.684  11.638  17.535  0.00  0.00    +0.000 A 
ATOM      5  O   UNL     1      -4.900  10.597  17.171  0.00  0.00    +0.000 OA
ATOM      6  C   UNL     1      -3.706  10.752  17.803  0.00  0.00    +0.000 A 
ATOM      7  C   UNL     1      -2.616   9.905  17.666  0.00  0.00    +0.000 A 
ATOM      8  C   UNL     1      -1.448  10.284  18.332  0.00  0.00    +0.000 A 
ATOM      9  O   UNL     1      -0.364   9.469  18.082  0.00  0.00    +0.000 OA
ATOM     10  C   UNL     1       0.879   9.835  18.564  0.00  0.00    +0.000 A 
ATOM     11  C   UNL     1       1.059  10.887  19.375  0.00  0.00    +0.000 A 
ATOM     12  C   UNL     1      -0.103  11.696  19.816  0.00  0.00    +0.000 A 
ATOM     13  O   UNL     1       0.072  12.577  20.648  0.00  0.00    +0.000 OA
ATOM     14  C   UNL     1      -1.415  11.394  19.190  0.00  0.00    +0.000 A 
ENDROOT
BRANCH   1  16
ATOM     15  C   UNL     1      -3.342  12.780  21.579  0.00  0.00    +0.000 C 
ATOM     16  O   UNL     1      -2.620  13.143  20.391  0.00  0.00    +0.000 OA
ENDBRANCH   1  16
BRANCH  10  17
ATOM     17  C   UNL     1       1.981   8.988  18.129  0.00  0.00    +0.000 C 
ATOM     18  C   UNL     1       2.215   7.733  18.577  0.00  0.00    +0.000 C 
BRANCH  18  19
ATOM     19  C   UNL     1       3.308   6.887  18.142  0.00  0.00    +0.000 C 
ATOM     20  C   UNL     1       4.067   7.192  17.072  0.00  0.00    +0.000 C 
BRANCH  20  21
ATOM     21  C   UNL     1       5.192   6.349  16.665  0.00  0.00    +0.000 A 
ATOM     22  C   UNL     1       5.300   5.890  15.348  0.00  0.00    +0.000 A 
ATOM     23  C   UNL     1       6.310   4.989  15.000  0.00  0.00    +0.000 A 
ATOM     24  C   UNL     1       7.226   4.561  15.960  0.00  0.00    +0.000 A 
ATOM     25  C   UNL     1       7.157   5.060  17.261  0.00  0.00    +0.000 A 
ATOM     26  C   UNL     1       6.143   5.953  17.613  0.00  0.00    +0.000 A 
ENDBRANCH  20  21
ENDBRANCH  18  19
ENDBRANCH  10  17
TORSDOF 4
ENDMDL
MODEL 9
REMARK VINA RESULT:      -7.7      6.146      8.862
REMARK  Name = 
REMARK  5 active torsions:
REMARK  status: ('A' for Active; 'I' for Inactive)
REMARK    1  A    between atoms: C_1  and  O_2
REMARK    2  A    between atoms: O_2  and  C_3
REMARK    3  A    between atoms: C_12  and  C_13
REMARK    4  A    between atoms: C_14  and  C_15
REMARK    5  A    between atoms: C_16  and  C_17
REMARK                            x       y       z     vdW  Elec       q    Type
REMARK                         _______ _______ _______ _____ _____    ______ ____
ROOT
ATOM      1  C   UNL     1       3.388   5.596  18.464  0.00  0.00    +0.000 A 
ATOM      2  C   UNL     1       3.694   4.356  19.075  0.00  0.00    +0.000 A 
ATOM      3  C   UNL     1       4.563   3.257  18.800  0.00  0.00    +0.000 A 
ATOM      4  C   UNL     1       4.309   2.303  19.756  0.00  0.00    +0.000 A 
ATOM      5  O   UNL     1       3.376   2.747  20.630  0.00  0.00    +0.000 OA
ATOM      6  C   UNL     1       3.022   3.999  20.237  0.00  0.00    +0.000 A 
ATOM      7  C   UNL     1       2.109   4.812  20.894  0.00  0.00    +0.000 A 
ATOM      8  C   UNL     1       1.945   6.101  20.382  0.00  0.00    +0.000 A 
ATOM      9  O   UNL     1       1.109   6.905  21.128  0.00  0.00    +0.000 OA
ATOM     10  C   UNL     1       0.992   8.243  20.802  0.00  0.00    +0.000 A 
ATOM     11  C   UNL     1       1.562   8.773  19.710  0.00  0.00    +0.000 A 
ATOM     12  C   UNL     1       2.330   7.914  18.778  0.00  0.00    +0.000 A 
ATOM     13  O   UNL     1       2.739   8.396  17.730  0.00  0.00    +0.000 OA
ATOM     14  C   UNL     1       2.575   6.510  19.197  0.00  0.00    +0.000 A 
ENDROOT
BRANCH   1  16
ATOM     15  C   UNL     1       5.272   6.274  17.208  0.00  0.00    +0.000 C 
ATOM     16  O   UNL     1       3.876   5.931  17.216  0.00  0.00    +0.000 OA
ENDBRANCH   1  16
BRANCH  10  17
ATOM     17  C   UNL     1       0.201   9.036  21.732  0.00  0.00    +0.000 C 
ATOM     18  C   UNL     1       0.047  10.379  21.666  0.00  0.00    +0.000 C 
BRANCH  18  19
ATOM     19  C   UNL     1      -0.745  11.170  22.587  0.00  0.00    +0.000 C 
ATOM     20  C   UNL     1      -0.894  12.500  22.442  0.00  0.00    +0.000 C 
BRANCH  20  21
ATOM     21  C   UNL     1      -1.726  13.282  23.357  0.00  0.00    +0.000 A 
ATOM     22  C   UNL     1      -3.034  12.882  23.651  0.00  0.00    +0.000 A 
ATOM     23  C   UNL     1      -3.860  13.698  24.429  0.00  0.00    +0.000 A 
ATOM     24  C   UNL     1      -3.375  14.905  24.932  0.00  0.00    +0.000 A 
ATOM     25  C   UNL     1      -2.054  15.281  24.689  0.00  0.00    +0.000 A 
ATOM     26  C   UNL     1      -1.231  14.471  23.904  0.00  0.00    +0.000 A 
ENDBRANCH  20  21
ENDBRANCH  18  19
ENDBRANCH  10  17
TORSDOF 4
ENDMDL
