MODEL 1
REMARK VINA RESULT:      -7.2      0.000      0.000
REMARK  Name = 
REMARK  8 active torsions:
REMARK  status: ('A' for Active; 'I' for Inactive)
REMARK    1  A    between atoms: N_1  and  C_2
REMARK    2  A    between atoms: C_2  and  C_3
REMARK    3  A    between atoms: C_2  and  C_7
REMARK    4  A    between atoms: N_5  and  O_6
REMARK    5  A    between atoms: N_9  and  C_10
REMARK    6  A    between atoms: C_10  and  C_11
REMARK    7  A    between atoms: C_11  and  C_12
REMARK    8  A    between atoms: C_12  and  C_13
REMARK                            x       y       z     vdW  Elec       q    Type
REMARK                         _______ _______ _______ _____ _____    ______ ____
ROOT
ATOM      1  C   UNL     1       5.958   6.659  17.138  0.00  0.00    +0.000 C 
ATOM      2  O   UNL     1       6.577   7.719  17.221  0.00  0.00    +0.000 OA
ATOM      3  N   UNL     1       4.595   6.563  17.297  0.00  0.00    +0.000 N 
ATOM      4  H   UNL     1       4.207   5.620  17.299  0.00  0.00    +0.000 HD
ENDROOT
BRANCH   1   5
ATOM      5  C   UNL     1       6.664   5.331  16.827  0.00  0.00    +0.000 C 
BRANCH   5   6
ATOM      6  C   UNL     1       7.620   4.926  17.962  0.00  0.00    +0.000 C 
ATOM      7  O   UNL     1       8.494   4.065  17.828  0.00  0.00    +0.000 OA
ATOM      8  N   UNL     1       7.397   5.551  19.168  0.00  0.00    +0.000 N 
ATOM      9  H   UNL     1       7.005   6.497  19.183  0.00  0.00    +0.000 HD
BRANCH   8  10
ATOM     10  O   UNL     1       8.351   5.264  20.177  0.00  0.00    +0.000 OA
ATOM     11  H   UNL     1       9.198   5.518  19.751  0.00  0.00    +0.000 HD
ENDBRANCH   8  10
ENDBRANCH   5   6
BRANCH   5  12
ATOM     12  N   UNL     1       7.420   5.424  15.531  0.00  0.00    +0.000 NA
ATOM     13  H   UNL     1       8.134   6.148  15.669  0.00  0.00    +0.000 HD
ATOM     14  H   UNL     1       6.790   5.864  14.853  0.00  0.00    +0.000 HD
ENDBRANCH   5  12
ENDBRANCH   1   5
BRANCH   3  15
ATOM     15  C   UNL     1       3.738   7.713  17.483  0.00  0.00    +0.000 C 
BRANCH  15  16
ATOM     16  C   UNL     1       2.412   7.336  18.144  0.00  0.00    +0.000 C 
BRANCH  16  17
ATOM     17  C   UNL     1       2.648   6.587  19.454  0.00  0.00    +0.000 C 
BRANCH  17  18
ATOM     18  C   UNL     1       2.031   5.209  19.448  0.00  0.00    +0.000 A 
ATOM     19  C   UNL     1       1.874   4.504  18.251  0.00  0.00    +0.000 A 
ATOM     20  C   UNL     1       1.305   3.230  18.244  0.00  0.00    +0.000 A 
ATOM     21  C   UNL     1       0.881   2.649  19.437  0.00  0.00    +0.000 A 
ATOM     22  C   UNL     1       1.025   3.344  20.637  0.00  0.00    +0.000 A 
ATOM     23  C   UNL     1       1.593   4.618  20.643  0.00  0.00    +0.000 A 
ENDBRANCH  17  18
ENDBRANCH  16  17
ENDBRANCH  15  16
ENDBRANCH   3  15
TORSDOF 8
ENDMDL
MODEL 2
REMARK VINA RESULT:      -7.2      2.190      2.756
REMARK  Name = 
REMARK  8 active torsions:
REMARK  status: ('A' for Active; 'I' for Inactive)
REMARK    1  A    between atoms: N_1  and  C_2
REMARK    2  A    between atoms: C_2  and  C_3
REMARK    3  A    between atoms: C_2  and  C_7
REMARK    4  A    between atoms: N_5  and  O_6
REMARK    5  A    between atoms: N_9  and  C_10
REMARK    6  A    between atoms: C_10  and  C_11
REMARK    7  A    between atoms: C_11  and  C_12
REMARK    8  A    between atoms: C_12  and  C_13
REMARK                            x       y       z     vdW  Elec       q    Type
REMARK                         _______ _______ _______ _____ _____    ______ ____
ROOT
ATOM      1  C   UNL     1       6.365   5.643  16.796  0.00  0.00    +0.000 C 
ATOM      2  O   UNL     1       5.808   6.391  15.993  0.00  0.00    +0.000 OA
ATOM      3  N   UNL     1       6.006   4.328  16.980  0.00  0.00    +0.000 N 
ATOM      4  H   UNL     1       6.477   3.835  17.739  0.00  0.00    +0.000 HD
ENDROOT
BRANCH   1   5
ATOM      5  C   UNL     1       7.541   6.117  17.662  0.00  0.00    +0.000 C 
BRANCH   5   6
ATOM      6  C   UNL     1       7.353   5.705  19.133  0.00  0.00    +0.000 C 
ATOM      7  O   UNL     1       6.242   5.537  19.645  0.00  0.00    +0.000 OA
ATOM      8  N   UNL     1       8.513   5.593  19.864  0.00  0.00    +0.000 N 
ATOM      9  H   UNL     1       9.382   5.320  19.395  0.00  0.00    +0.000 HD
BRANCH   8  10
ATOM     10  O   UNL     1       8.344   5.100  21.183  0.00  0.00    +0.000 OA
ATOM     11  H   UNL     1       8.394   4.127  21.058  0.00  0.00    +0.000 HD
ENDBRANCH   8  10
ENDBRANCH   5   6
BRANCH   5  12
ATOM     12  N   UNL     1       7.704   7.607  17.565  0.00  0.00    +0.000 NA
ATOM     13  H   UNL     1       6.847   8.014  17.959  0.00  0.00    +0.000 HD
ATOM     14  H   UNL     1       7.625   7.849  16.573  0.00  0.00    +0.000 HD
ENDBRANCH   5  12
ENDBRANCH   1   5
BRANCH   3  15
ATOM     15  C   UNL     1       5.000   3.663  16.182  0.00  0.00    +0.000 C 
BRANCH  15  16
ATOM     16  C   UNL     1       3.640   3.642  16.879  0.00  0.00    +0.000 C 
BRANCH  16  17
ATOM     17  C   UNL     1       3.484   2.385  17.734  0.00  0.00    +0.000 C 
BRANCH  17  18
ATOM     18  C   UNL     1       2.766   2.657  19.034  0.00  0.00    +0.000 A 
ATOM     19  C   UNL     1       3.407   2.448  20.259  0.00  0.00    +0.000 A 
ATOM     20  C   UNL     1       2.746   2.700  21.462  0.00  0.00    +0.000 A 
ATOM     21  C   UNL     1       1.430   3.160  21.450  0.00  0.00    +0.000 A 
ATOM     22  C   UNL     1       0.778   3.367  20.236  0.00  0.00    +0.000 A 
ATOM     23  C   UNL     1       1.440   3.113  19.034  0.00  0.00    +0.000 A 
ENDBRANCH  17  18
ENDBRANCH  16  17
ENDBRANCH  15  16
ENDBRANCH   3  15
TORSDOF 8
ENDMDL
MODEL 3
REMARK VINA RESULT:      -7.1      0.919      1.041
REMARK  Name = 
REMARK  8 active torsions:
REMARK  status: ('A' for Active; 'I' for Inactive)
REMARK    1  A    between atoms: N_1  and  C_2
REMARK    2  A    between atoms: C_2  and  C_3
REMARK    3  A    between atoms: C_2  and  C_7
REMARK    4  A    between atoms: N_5  and  O_6
REMARK    5  A    between atoms: N_9  and  C_10
REMARK    6  A    between atoms: C_10  and  C_11
REMARK    7  A    between atoms: C_11  and  C_12
REMARK    8  A    between atoms: C_12  and  C_13
REMARK                            x       y       z     vdW  Elec       q    Type
REMARK                         _______ _______ _______ _____ _____    ______ ____
ROOT
ATOM      1  C   UNL     1       5.436   6.500  16.471  0.00  0.00    +0.000 C 
ATOM      2  O   UNL     1       5.157   6.784  15.307  0.00  0.00    +0.000 OA
ATOM      3  N   UNL     1       4.751   6.996  17.557  0.00  0.00    +0.000 N 
ATOM      4  H   UNL     1       5.133   6.764  18.473  0.00  0.00    +0.000 HD
ENDROOT
BRANCH   1   5
ATOM      5  C   UNL     1       6.580   5.536  16.818  0.00  0.00    +0.000 C 
BRANCH   5   6
ATOM      6  C   UNL     1       7.301   5.966  18.108  0.00  0.00    +0.000 C 
ATOM      7  O   UNL     1       7.870   7.054  18.226  0.00  0.00    +0.000 OA
ATOM      8  N   UNL     1       7.321   5.024  19.111  0.00  0.00    +0.000 N 
ATOM      9  H   UNL     1       6.551   4.353  19.190  0.00  0.00    +0.000 HD
BRANCH   8  10
ATOM     10  O   UNL     1       7.881   5.465  20.336  0.00  0.00    +0.000 OA
ATOM     11  H   UNL     1       8.761   5.806  20.062  0.00  0.00    +0.000 HD
ENDBRANCH   8  10
ENDBRANCH   5   6
BRANCH   5  12
ATOM     12  N   UNL     1       7.564   5.453  15.686  0.00  0.00    +0.000 NA
ATOM     13  H   UNL     1       8.303   6.133  15.900  0.00  0.00    +0.000 HD
ATOM     14  H   UNL     1       7.111   5.872  14.869  0.00  0.00    +0.000 HD
ENDBRANCH   5  12
ENDBRANCH   1   5
BRANCH   3  15
ATOM     15  C   UNL     1       3.574   7.828  17.436  0.00  0.00    +0.000 C 
BRANCH  15  16
ATOM     16  C   UNL     1       2.348   7.177  18.077  0.00  0.00    +0.000 C 
BRANCH  16  17
ATOM     17  C   UNL     1       2.716   6.495  19.393  0.00  0.00    +0.000 C 
BRANCH  17  18
ATOM     18  C   UNL     1       2.119   5.113  19.512  0.00  0.00    +0.000 A 
ATOM     19  C   UNL     1       1.811   4.369  18.368  0.00  0.00    +0.000 A 
ATOM     20  C   UNL     1       1.260   3.092  18.476  0.00  0.00    +0.000 A 
ATOM     21  C   UNL     1       1.005   2.547  19.733  0.00  0.00    +0.000 A 
ATOM     22  C   UNL     1       1.301   3.280  20.881  0.00  0.00    +0.000 A 
ATOM     23  C   UNL     1       1.851   4.557  20.772  0.00  0.00    +0.000 A 
ENDBRANCH  17  18
ENDBRANCH  16  17
ENDBRANCH  15  16
ENDBRANCH   3  15
TORSDOF 8
ENDMDL
MODEL 4
REMARK VINA RESULT:      -7.1      1.771      3.450
REMARK  Name = 
REMARK  8 active torsions:
REMARK  status: ('A' for Active; 'I' for Inactive)
REMARK    1  A    between atoms: N_1  and  C_2
REMARK    2  A    between atoms: C_2  and  C_3
REMARK    3  A    between atoms: C_2  and  C_7
REMARK    4  A    between atoms: N_5  and  O_6
REMARK    5  A    between atoms: N_9  and  C_10
REMARK    6  A    between atoms: C_10  and  C_11
REMARK    7  A    between atoms: C_11  and  C_12
REMARK    8  A    between atoms: C_12  and  C_13
REMARK                            x       y       z     vdW  Elec       q    Type
REMARK                         _______ _______ _______ _____ _____    ______ ____
ROOT
ATOM      1  C   UNL     1       6.057   4.828  18.907  0.00  0.00    +0.000 C 
ATOM      2  O   UNL     1       5.460   5.569  19.687  0.00  0.00    +0.000 OA
ATOM      3  N   UNL     1       5.672   3.533  18.647  0.00  0.00    +0.000 N 
ATOM      4  H   UNL     1       6.298   2.988  18.055  0.00  0.00    +0.000 HD
ENDROOT
BRANCH   1   5
ATOM      5  C   UNL     1       7.293   5.300  18.127  0.00  0.00    +0.000 C 
BRANCH   5   6
ATOM      6  C   UNL     1       6.903   6.252  16.984  0.00  0.00    +0.000 C 
ATOM      7  O   UNL     1       7.638   7.162  16.589  0.00  0.00    +0.000 OA
ATOM      8  N   UNL     1       5.643   6.060  16.464  0.00  0.00    +0.000 N 
ATOM      9  H   UNL     1       5.231   5.123  16.472  0.00  0.00    +0.000 HD
BRANCH   8  10
ATOM     10  O   UNL     1       5.333   6.860  15.335  0.00  0.00    +0.000 OA
ATOM     11  H   UNL     1       5.857   6.437  14.620  0.00  0.00    +0.000 HD
ENDBRANCH   8  10
ENDBRANCH   5   6
BRANCH   5  12
ATOM     12  N   UNL     1       8.053   4.126  17.578  0.00  0.00    +0.000 NA
ATOM     13  H   UNL     1       8.498   3.672  18.385  0.00  0.00    +0.000 HD
ATOM     14  H   UNL     1       8.858   4.506  17.070  0.00  0.00    +0.000 HD
ENDBRANCH   5  12
ENDBRANCH   1   5
BRANCH   3  15
ATOM     15  C   UNL     1       4.471   2.941  19.194  0.00  0.00    +0.000 C 
BRANCH  15  16
ATOM     16  C   UNL     1       3.394   2.747  18.127  0.00  0.00    +0.000 C 
BRANCH  16  17
ATOM     17  C   UNL     1       2.042   3.264  18.616  0.00  0.00    +0.000 C 
BRANCH  17  18
ATOM     18  C   UNL     1       2.081   4.730  18.973  0.00  0.00    +0.000 A 
ATOM     19  C   UNL     1       2.419   5.689  18.012  0.00  0.00    +0.000 A 
ATOM     20  C   UNL     1       2.455   7.045  18.340  0.00  0.00    +0.000 A 
ATOM     21  C   UNL     1       2.159   7.456  19.638  0.00  0.00    +0.000 A 
ATOM     22  C   UNL     1       1.827   6.511  20.607  0.00  0.00    +0.000 A 
ATOM     23  C   UNL     1       1.792   5.155  20.278  0.00  0.00    +0.000 A 
ENDBRANCH  17  18
ENDBRANCH  16  17
ENDBRANCH  15  16
ENDBRANCH   3  15
TORSDOF 8
ENDMDL
MODEL 5
REMARK VINA RESULT:      -7.0      1.538      1.999
REMARK  Name = 
REMARK  8 active torsions:
REMARK  status: ('A' for Active; 'I' for Inactive)
REMARK    1  A    between atoms: N_1  and  C_2
REMARK    2  A    between atoms: C_2  and  C_3
REMARK    3  A    between atoms: C_2  and  C_7
REMARK    4  A    between atoms: N_5  and  O_6
REMARK    5  A    between atoms: N_9  and  C_10
REMARK    6  A    between atoms: C_10  and  C_11
REMARK    7  A    between atoms: C_11  and  C_12
REMARK    8  A    between atoms: C_12  and  C_13
REMARK                            x       y       z     vdW  Elec       q    Type
REMARK                         _______ _______ _______ _____ _____    ______ ____
ROOT
ATOM      1  C   UNL     1       5.385   6.442  16.744  0.00  0.00    +0.000 C 
ATOM      2  O   UNL     1       5.187   6.658  15.549  0.00  0.00    +0.000 OA
ATOM      3  N   UNL     1       4.627   6.997  17.750  0.00  0.00    +0.000 N 
ATOM      4  H   UNL     1       4.945   6.819  18.702  0.00  0.00    +0.000 HD
ENDROOT
BRANCH   1   5
ATOM      5  C   UNL     1       6.502   5.503  17.223  0.00  0.00    +0.000 C 
BRANCH   5   6
ATOM      6  C   UNL     1       6.111   4.791  18.529  0.00  0.00    +0.000 C 
ATOM      7  O   UNL     1       6.348   5.261  19.646  0.00  0.00    +0.000 OA
ATOM      8  N   UNL     1       5.527   3.554  18.372  0.00  0.00    +0.000 N 
ATOM      9  H   UNL     1       4.972   3.360  17.533  0.00  0.00    +0.000 HD
BRANCH   8  10
ATOM     10  O   UNL     1       5.061   2.955  19.569  0.00  0.00    +0.000 OA
ATOM     11  H   UNL     1       5.861   2.959  20.138  0.00  0.00    +0.000 HD
ENDBRANCH   8  10
ENDBRANCH   5   6
BRANCH   5  12
ATOM     12  N   UNL     1       7.784   6.262  17.419  0.00  0.00    +0.000 NA
ATOM     13  H   UNL     1       8.490   5.565  17.685  0.00  0.00    +0.000 HD
ATOM     14  H   UNL     1       7.678   6.805  18.281  0.00  0.00    +0.000 HD
ENDBRANCH   5  12
ENDBRANCH   1   5
BRANCH   3  15
ATOM     15  C   UNL     1       3.462   7.816  17.502  0.00  0.00    +0.000 C 
BRANCH  15  16
ATOM     16  C   UNL     1       2.227   7.290  18.234  0.00  0.00    +0.000 C 
BRANCH  16  17
ATOM     17  C   UNL     1       2.622   6.577  19.527  0.00  0.00    +0.000 C 
BRANCH  17  18
ATOM     18  C   UNL     1       2.129   5.151  19.570  0.00  0.00    +0.000 A 
ATOM     19  C   UNL     1       1.888   4.517  20.794  0.00  0.00    +0.000 A 
ATOM     20  C   UNL     1       1.431   3.199  20.836  0.00  0.00    +0.000 A 
ATOM     21  C   UNL     1       1.216   2.497  19.652  0.00  0.00    +0.000 A 
ATOM     22  C   UNL     1       1.459   3.115  18.426  0.00  0.00    +0.000 A 
ATOM     23  C   UNL     1       1.916   4.432  18.384  0.00  0.00    +0.000 A 
ENDBRANCH  17  18
ENDBRANCH  16  17
ENDBRANCH  15  16
ENDBRANCH   3  15
TORSDOF 8
ENDMDL
MODEL 6
REMARK VINA RESULT:      -6.9      2.186      2.667
REMARK  Name = 
REMARK  8 active torsions:
REMARK  status: ('A' for Active; 'I' for Inactive)
REMARK    1  A    between atoms: N_1  and  C_2
REMARK    2  A    between atoms: C_2  and  C_3
REMARK    3  A    between atoms: C_2  and  C_7
REMARK    4  A    between atoms: N_5  and  O_6
REMARK    5  A    between atoms: N_9  and  C_10
REMARK    6  A    between atoms: C_10  and  C_11
REMARK    7  A    between atoms: C_11  and  C_12
REMARK    8  A    between atoms: C_12  and  C_13
REMARK                            x       y       z     vdW  Elec       q    Type
REMARK                         _______ _______ _______ _____ _____    ______ ____
ROOT
ATOM      1  C   UNL     1       5.320   6.098  16.194  0.00  0.00    +0.000 C 
ATOM      2  O   UNL     1       5.187   6.862  15.239  0.00  0.00    +0.000 OA
ATOM      3  N   UNL     1       4.739   6.311  17.423  0.00  0.00    +0.000 N 
ATOM      4  H   UNL     1       4.997   5.658  18.162  0.00  0.00    +0.000 HD
ENDROOT
BRANCH   1   5
ATOM      5  C   UNL     1       6.145   4.807  16.088  0.00  0.00    +0.000 C 
BRANCH   5   6
ATOM      6  C   UNL     1       6.693   4.609  14.664  0.00  0.00    +0.000 C 
ATOM      7  O   UNL     1       6.329   3.688  13.928  0.00  0.00    +0.000 OA
ATOM      8  N   UNL     1       7.670   5.500  14.282  0.00  0.00    +0.000 N 
ATOM      9  H   UNL     1       7.670   6.448  14.671  0.00  0.00    +0.000 HD
BRANCH   8  10
ATOM     10  O   UNL     1       8.087   5.389  12.932  0.00  0.00    +0.000 OA
ATOM     11  H   UNL     1       7.249   5.185  12.462  0.00  0.00    +0.000 HD
ENDBRANCH   8  10
ENDBRANCH   5   6
BRANCH   5  12
ATOM     12  N   UNL     1       5.320   3.616  16.488  0.00  0.00    +0.000 NA
ATOM     13  H   UNL     1       5.035   3.781  17.461  0.00  0.00    +0.000 HD
ATOM     14  H   UNL     1       5.967   2.827  16.581  0.00  0.00    +0.000 HD
ENDBRANCH   5  12
ENDBRANCH   1   5
BRANCH   3  15
ATOM     15  C   UNL     1       3.835   7.407  17.689  0.00  0.00    +0.000 C 
BRANCH  15  16
ATOM     16  C   UNL     1       2.454   6.916  18.125  0.00  0.00    +0.000 C 
BRANCH  16  17
ATOM     17  C   UNL     1       2.495   6.362  19.548  0.00  0.00    +0.000 C 
BRANCH  17  18
ATOM     18  C   UNL     1       1.988   4.942  19.628  0.00  0.00    +0.000 A 
ATOM     19  C   UNL     1       1.693   4.225  18.464  0.00  0.00    +0.000 A 
ATOM     20  C   UNL     1       1.225   2.912  18.536  0.00  0.00    +0.000 A 
ATOM     21  C   UNL     1       1.040   2.304  19.776  0.00  0.00    +0.000 A 
ATOM     22  C   UNL     1       1.324   3.011  20.944  0.00  0.00    +0.000 A 
ATOM     23  C   UNL     1       1.791   4.323  20.872  0.00  0.00    +0.000 A 
ENDBRANCH  17  18
ENDBRANCH  16  17
ENDBRANCH  15  16
ENDBRANCH   3  15
TORSDOF 8
ENDMDL
MODEL 7
REMARK VINA RESULT:      -6.9      2.318      2.979
REMARK  Name = 
REMARK  8 active torsions:
REMARK  status: ('A' for Active; 'I' for Inactive)
REMARK    1  A    between atoms: N_1  and  C_2
REMARK    2  A    between atoms: C_2  and  C_3
REMARK    3  A    between atoms: C_2  and  C_7
REMARK    4  A    between atoms: N_5  and  O_6
REMARK    5  A    between atoms: N_9  and  C_10
REMARK    6  A    between atoms: C_10  and  C_11
REMARK    7  A    between atoms: C_11  and  C_12
REMARK    8  A    between atoms: C_12  and  C_13
REMARK                            x       y       z     vdW  Elec       q    Type
REMARK                         _______ _______ _______ _____ _____    ______ ____
ROOT
ATOM      1  C   UNL     1       5.354   6.041  16.120  0.00  0.00    +0.000 C 
ATOM      2  O   UNL     1       5.267   6.892  15.236  0.00  0.00    +0.000 OA
ATOM      3  N   UNL     1       4.651   6.101  17.301  0.00  0.00    +0.000 N 
ATOM      4  H   UNL     1       4.876   5.389  17.995  0.00  0.00    +0.000 HD
ENDROOT
BRANCH   1   5
ATOM      5  C   UNL     1       6.255   4.807  15.970  0.00  0.00    +0.000 C 
BRANCH   5   6
ATOM      6  C   UNL     1       6.783   4.672  14.532  0.00  0.00    +0.000 C 
ATOM      7  O   UNL     1       6.380   3.807  13.748  0.00  0.00    +0.000 OA
ATOM      8  N   UNL     1       7.787   5.549  14.190  0.00  0.00    +0.000 N 
ATOM      9  H   UNL     1       7.825   6.472  14.632  0.00  0.00    +0.000 HD
BRANCH   8  10
ATOM     10  O   UNL     1       8.187   5.500  12.831  0.00  0.00    +0.000 OA
ATOM     11  H   UNL     1       7.522   6.071  12.388  0.00  0.00    +0.000 HD
ENDBRANCH   8  10
ENDBRANCH   5   6
BRANCH   5  12
ATOM     12  N   UNL     1       5.515   3.559  16.363  0.00  0.00    +0.000 NA
ATOM     13  H   UNL     1       4.517   3.776  16.258  0.00  0.00    +0.000 HD
ATOM     14  H   UNL     1       5.613   3.465  17.378  0.00  0.00    +0.000 HD
ENDBRANCH   5  12
ENDBRANCH   1   5
BRANCH   3  15
ATOM     15  C   UNL     1       3.667   7.122  17.584  0.00  0.00    +0.000 C 
BRANCH  15  16
ATOM     16  C   UNL     1       2.491   6.574  18.394  0.00  0.00    +0.000 C 
BRANCH  16  17
ATOM     17  C   UNL     1       2.210   5.117  18.030  0.00  0.00    +0.000 C 
BRANCH  17  18
ATOM     18  C   UNL     1       2.265   4.204  19.231  0.00  0.00    +0.000 A 
ATOM     19  C   UNL     1       3.413   3.453  19.504  0.00  0.00    +0.000 A 
ATOM     20  C   UNL     1       3.465   2.609  20.614  0.00  0.00    +0.000 A 
ATOM     21  C   UNL     1       2.364   2.502  21.461  0.00  0.00    +0.000 A 
ATOM     22  C   UNL     1       1.211   3.239  21.197  0.00  0.00    +0.000 A 
ATOM     23  C   UNL     1       1.159   4.082  20.086  0.00  0.00    +0.000 A 
ENDBRANCH  17  18
ENDBRANCH  16  17
ENDBRANCH  15  16
ENDBRANCH   3  15
TORSDOF 8
ENDMDL
MODEL 8
REMARK VINA RESULT:      -6.9      1.732      2.694
REMARK  Name = 
REMARK  8 active torsions:
REMARK  status: ('A' for Active; 'I' for Inactive)
REMARK    1  A    between atoms: N_1  and  C_2
REMARK    2  A    between atoms: C_2  and  C_3
REMARK    3  A    between atoms: C_2  and  C_7
REMARK    4  A    between atoms: N_5  and  O_6
REMARK    5  A    between atoms: N_9  and  C_10
REMARK    6  A    between atoms: C_10  and  C_11
REMARK    7  A    between atoms: C_11  and  C_12
REMARK    8  A    between atoms: C_12  and  C_13
REMARK                            x       y       z     vdW  Elec       q    Type
REMARK                         _______ _______ _______ _____ _____    ______ ____
ROOT
ATOM      1  C   UNL     1       6.205   6.391  17.132  0.00  0.00    +0.000 C 
ATOM      2  O   UNL     1       6.700   7.509  16.991  0.00  0.00    +0.000 OA
ATOM      3  N   UNL     1       4.890   6.182  17.480  0.00  0.00    +0.000 N 
ATOM      4  H   UNL     1       4.621   5.216  17.658  0.00  0.00    +0.000 HD
ENDROOT
BRANCH   1   5
ATOM      5  C   UNL     1       7.023   5.110  16.910  0.00  0.00    +0.000 C 
BRANCH   5   6
ATOM      6  C   UNL     1       7.041   4.710  15.425  0.00  0.00    +0.000 C 
ATOM      7  O   UNL     1       7.682   5.330  14.571  0.00  0.00    +0.000 OA
ATOM      8  N   UNL     1       6.240   3.640  15.095  0.00  0.00    +0.000 N 
ATOM      9  H   UNL     1       6.064   2.908  15.789  0.00  0.00    +0.000 HD
BRANCH   8  10
ATOM     10  O   UNL     1       6.350   3.201  13.752  0.00  0.00    +0.000 OA
ATOM     11  H   UNL     1       5.659   2.506  13.694  0.00  0.00    +0.000 HD
ENDBRANCH   8  10
ENDBRANCH   5   6
BRANCH   5  12
ATOM     12  N   UNL     1       6.476   3.982  17.738  0.00  0.00    +0.000 NA
ATOM     13  H   UNL     1       6.200   4.395  18.636  0.00  0.00    +0.000 HD
ATOM     14  H   UNL     1       7.273   3.396  18.003  0.00  0.00    +0.000 HD
ENDBRANCH   5  12
ENDBRANCH   1   5
BRANCH   3  15
ATOM     15  C   UNL     1       3.931   7.255  17.622  0.00  0.00    +0.000 C 
BRANCH  15  16
ATOM     16  C   UNL     1       2.644   6.783  18.299  0.00  0.00    +0.000 C 
BRANCH  16  17
ATOM     17  C   UNL     1       2.290   5.360  17.870  0.00  0.00    +0.000 C 
BRANCH  17  18
ATOM     18  C   UNL     1       1.966   4.468  19.044  0.00  0.00    +0.000 A 
ATOM     19  C   UNL     1       2.403   4.797  20.331  0.00  0.00    +0.000 A 
ATOM     20  C   UNL     1       2.103   3.975  21.418  0.00  0.00    +0.000 A 
ATOM     21  C   UNL     1       1.367   2.807  21.226  0.00  0.00    +0.000 A 
ATOM     22  C   UNL     1       0.931   2.464  19.947  0.00  0.00    +0.000 A 
ATOM     23  C   UNL     1       1.232   3.286  18.861  0.00  0.00    +0.000 A 
ENDBRANCH  17  18
ENDBRANCH  16  17
ENDBRANCH  15  16
ENDBRANCH   3  15
TORSDOF 8
ENDMDL
MODEL 9
REMARK VINA RESULT:      -6.8      1.700      2.396
REMARK  Name = 
REMARK  8 active torsions:
REMARK  status: ('A' for Active; 'I' for Inactive)
REMARK    1  A    between atoms: N_1  and  C_2
REMARK    2  A    between atoms: C_2  and  C_3
REMARK    3  A    between atoms: C_2  and  C_7
REMARK    4  A    between atoms: N_5  and  O_6
REMARK    5  A    between atoms: N_9  and  C_10
REMARK    6  A    between atoms: C_10  and  C_11
REMARK    7  A    between atoms: C_11  and  C_12
REMARK    8  A    between atoms: C_12  and  C_13
REMARK                            x       y       z     vdW  Elec       q    Type
REMARK                         _______ _______ _______ _____ _____    ______ ____
ROOT
ATOM      1  C   UNL     1       6.262   6.434  17.105  0.00  0.00    +0.000 C 
ATOM      2  O   UNL     1       6.781   7.547  17.022  0.00  0.00    +0.000 OA
ATOM      3  N   UNL     1       4.930   6.238  17.388  0.00  0.00    +0.000 N 
ATOM      4  H   UNL     1       4.637   5.271  17.522  0.00  0.00    +0.000 HD
ENDROOT
BRANCH   1   5
ATOM      5  C   UNL     1       7.067   5.146  16.874  0.00  0.00    +0.000 C 
BRANCH   5   6
ATOM      6  C   UNL     1       7.048   4.733  15.393  0.00  0.00    +0.000 C 
ATOM      7  O   UNL     1       7.661   5.351  14.517  0.00  0.00    +0.000 OA
ATOM      8  N   UNL     1       6.247   3.654  15.094  0.00  0.00    +0.000 N 
ATOM      9  H   UNL     1       6.095   2.927  15.799  0.00  0.00    +0.000 HD
BRANCH   8  10
ATOM     10  O   UNL     1       6.324   3.204  13.752  0.00  0.00    +0.000 OA
ATOM     11  H   UNL     1       7.255   3.403  13.510  0.00  0.00    +0.000 HD
ENDBRANCH   8  10
ENDBRANCH   5   6
BRANCH   5  12
ATOM     12  N   UNL     1       6.532   4.028  17.724  0.00  0.00    +0.000 NA
ATOM     13  H   UNL     1       6.628   4.340  18.698  0.00  0.00    +0.000 HD
ATOM     14  H   UNL     1       7.214   3.265  17.671  0.00  0.00    +0.000 HD
ENDBRANCH   5  12
ENDBRANCH   1   5
BRANCH   3  15
ATOM     15  C   UNL     1       3.984   7.322  17.526  0.00  0.00    +0.000 C 
BRANCH  15  16
ATOM     16  C   UNL     1       2.626   6.835  18.031  0.00  0.00    +0.000 C 
BRANCH  16  17
ATOM     17  C   UNL     1       2.699   6.448  19.508  0.00  0.00    +0.000 C 
BRANCH  17  18
ATOM     18  C   UNL     1       2.163   5.060  19.766  0.00  0.00    +0.000 A 
ATOM     19  C   UNL     1       1.663   4.282  18.717  0.00  0.00    +0.000 A 
ATOM     20  C   UNL     1       1.168   2.999  18.955  0.00  0.00    +0.000 A 
ATOM     21  C   UNL     1       1.162   2.483  20.249  0.00  0.00    +0.000 A 
ATOM     22  C   UNL     1       1.650   3.250  21.305  0.00  0.00    +0.000 A 
ATOM     23  C   UNL     1       2.145   4.533  21.067  0.00  0.00    +0.000 A 
ENDBRANCH  17  18
ENDBRANCH  16  17
ENDBRANCH  15  16
ENDBRANCH   3  15
TORSDOF 8
ENDMDL
