MODEL 1
REMARK VINA RESULT:      -6.9      0.000      0.000
REMARK  Name = 
REMARK  5 active torsions:
REMARK  status: ('A' for Active; 'I' for Inactive)
REMARK    1  A    between atoms: C_1  and  C_2
REMARK    2  A    between atoms: N_11  and  C_12
REMARK    3  A    between atoms: N_11  and  C_13
REMARK    4  A    between atoms: C_13  and  C_14
REMARK    5  A    between atoms: C_14  and  C_16
REMARK                            x       y       z     vdW  Elec       q    Type
REMARK                         _______ _______ _______ _____ _____    ______ ____
ROOT
ATOM      1  C   UNL     1      -0.446  11.700  21.469  0.00  0.00    +0.000 C 
ATOM      2  C   UNL     1      -1.041  11.110  20.190  0.00  0.00    +0.000 C 
ATOM      3  C   UNL     1      -2.317  11.870  19.776  0.00  0.00    +0.000 C 
ATOM      4  C   UNL     1      -2.866  11.427  18.442  0.00  0.00    +0.000 A 
ATOM      5  C   UNL     1      -4.160  11.824  18.076  0.00  0.00    +0.000 A 
ATOM      6  C   UNL     1      -4.691  11.443  16.846  0.00  0.00    +0.000 A 
ATOM      7  C   UNL     1      -3.939  10.661  15.974  0.00  0.00    +0.000 A 
ATOM      8  C   UNL     1      -2.644  10.276  16.320  0.00  0.00    +0.000 A 
ATOM      9  C   UNL     1      -2.087  10.674  17.544  0.00  0.00    +0.000 A 
ATOM     10  C   UNL     1      -0.685  10.239  17.893  0.00  0.00    +0.000 C 
ATOM     11  N   UNL     1      -0.020  11.081  19.008  0.00  0.00    +0.000 N 
ATOM     12  C   UNL     1       0.295  12.473  18.449  0.00  0.00    +0.000 C 
ENDROOT
BRANCH  11  13
ATOM     13  C   UNL     1       1.350  10.429  19.397  0.00  0.00    +0.000 C 
BRANCH  13  14
ATOM     14  C   UNL     1       1.896   9.333  18.489  0.00  0.00    +0.000 C 
ATOM     15  O   UNL     1       2.274   9.555  17.342  0.00  0.00    +0.000 OA
BRANCH  14  16
ATOM     16  C   UNL     1       1.976   7.941  19.028  0.00  0.00    +0.000 A 
ATOM     17  C   UNL     1       1.623   7.624  20.346  0.00  0.00    +0.000 A 
ATOM     18  C   UNL     1       1.704   6.300  20.793  0.00  0.00    +0.000 A 
ATOM     19  C   UNL     1       2.136   5.296  19.929  0.00  0.00    +0.000 A 
ATOM     20  I   UNL     1       2.237   3.334  20.599  0.00  0.00    +0.000 I 
ATOM     21  C   UNL     1       2.495   5.604  18.619  0.00  0.00    +0.000 A 
ATOM     22  C   UNL     1       2.415   6.924  18.169  0.00  0.00    +0.000 A 
ENDBRANCH  14  16
ENDBRANCH  13  14
ENDBRANCH  11  13
TORSDOF 3
ENDMDL
MODEL 2
REMARK VINA RESULT:      -6.8      1.499      1.696
REMARK  Name = 
REMARK  5 active torsions:
REMARK  status: ('A' for Active; 'I' for Inactive)
REMARK    1  A    between atoms: C_1  and  C_2
REMARK    2  A    between atoms: N_11  and  C_12
REMARK    3  A    between atoms: N_11  and  C_13
REMARK    4  A    between atoms: C_13  and  C_14
REMARK    5  A    between atoms: C_14  and  C_16
REMARK                            x       y       z     vdW  Elec       q    Type
REMARK                         _______ _______ _______ _____ _____    ______ ____
ROOT
ATOM      1  C   UNL     1      -1.226  12.412  21.544  0.00  0.00    +0.000 C 
ATOM      2  C   UNL     1      -1.542  11.543  20.327  0.00  0.00    +0.000 C 
ATOM      3  C   UNL     1      -2.645  12.185  19.464  0.00  0.00    +0.000 C 
ATOM      4  C   UNL     1      -2.897  11.446  18.173  0.00  0.00    +0.000 A 
ATOM      5  C   UNL     1      -4.048  11.747  17.432  0.00  0.00    +0.000 A 
ATOM      6  C   UNL     1      -4.303  11.092  16.230  0.00  0.00    +0.000 A 
ATOM      7  C   UNL     1      -3.415  10.130  15.758  0.00  0.00    +0.000 A 
ATOM      8  C   UNL     1      -2.257   9.835  16.478  0.00  0.00    +0.000 A 
ATOM      9  C   UNL     1      -1.975  10.505  17.677  0.00  0.00    +0.000 A 
ATOM     10  C   UNL     1      -0.716  10.163  18.435  0.00  0.00    +0.000 C 
ATOM     11  N   UNL     1      -0.280  11.240  19.458  0.00  0.00    +0.000 N 
ATOM     12  C   UNL     1       0.231  12.466  18.690  0.00  0.00    +0.000 C 
ENDROOT
BRANCH  11  13
ATOM     13  C   UNL     1       0.926  10.696  20.295  0.00  0.00    +0.000 C 
BRANCH  13  14
ATOM     14  C   UNL     1       0.815   9.288  20.867  0.00  0.00    +0.000 C 
ATOM     15  O   UNL     1       0.169   9.038  21.882  0.00  0.00    +0.000 OA
BRANCH  14  16
ATOM     16  C   UNL     1       1.517   8.177  20.156  0.00  0.00    +0.000 A 
ATOM     17  C   UNL     1       1.642   6.893  20.703  0.00  0.00    +0.000 A 
ATOM     18  C   UNL     1       2.298   5.887  19.988  0.00  0.00    +0.000 A 
ATOM     19  C   UNL     1       2.831   6.159  18.729  0.00  0.00    +0.000 A 
ATOM     20  I   UNL     1       3.790   4.654  17.669  0.00  0.00    +0.000 I 
ATOM     21  C   UNL     1       2.719   7.434  18.180  0.00  0.00    +0.000 A 
ATOM     22  C   UNL     1       2.063   8.441  18.892  0.00  0.00    +0.000 A 
ENDBRANCH  14  16
ENDBRANCH  13  14
ENDBRANCH  11  13
TORSDOF 3
ENDMDL
MODEL 3
REMARK VINA RESULT:      -6.8      6.426      8.446
REMARK  Name = 
REMARK  5 active torsions:
REMARK  status: ('A' for Active; 'I' for Inactive)
REMARK    1  A    between atoms: C_1  and  C_2
REMARK    2  A    between atoms: N_11  and  C_12
REMARK    3  A    between atoms: N_11  and  C_13
REMARK    4  A    between atoms: C_13  and  C_14
REMARK    5  A    between atoms: C_14  and  C_16
REMARK                            x       y       z     vdW  Elec       q    Type
REMARK                         _______ _______ _______ _____ _____    ______ ____
ROOT
ATOM      1  C   UNL     1       3.670   7.097  17.170  0.00  0.00    +0.000 C 
ATOM      2  C   UNL     1       3.823   5.986  18.210  0.00  0.00    +0.000 C 
ATOM      3  C   UNL     1       2.483   5.709  18.918  0.00  0.00    +0.000 C 
ATOM      4  C   UNL     1       2.537   4.524  19.851  0.00  0.00    +0.000 A 
ATOM      5  C   UNL     1       1.490   4.329  20.762  0.00  0.00    +0.000 A 
ATOM      6  C   UNL     1       1.504   3.238  21.628  0.00  0.00    +0.000 A 
ATOM      7  C   UNL     1       2.562   2.335  21.594  0.00  0.00    +0.000 A 
ATOM      8  C   UNL     1       3.601   2.508  20.679  0.00  0.00    +0.000 A 
ATOM      9  C   UNL     1       3.586   3.588  19.784  0.00  0.00    +0.000 A 
ATOM     10  C   UNL     1       4.725   3.752  18.808  0.00  0.00    +0.000 C 
ATOM     11  N   UNL     1       4.399   4.668  17.603  0.00  0.00    +0.000 N 
ATOM     12  C   UNL     1       3.406   3.940  16.689  0.00  0.00    +0.000 C 
ENDROOT
BRANCH  11  13
ATOM     13  C   UNL     1       5.701   4.896  16.764  0.00  0.00    +0.000 C 
BRANCH  13  14
ATOM     14  C   UNL     1       7.022   5.004  17.518  0.00  0.00    +0.000 C 
ATOM     15  O   UNL     1       7.679   4.018  17.840  0.00  0.00    +0.000 OA
BRANCH  14  16
ATOM     16  C   UNL     1       7.527   6.366  17.869  0.00  0.00    +0.000 A 
ATOM     17  C   UNL     1       8.281   6.613  19.024  0.00  0.00    +0.000 A 
ATOM     18  C   UNL     1       8.740   7.906  19.297  0.00  0.00    +0.000 A 
ATOM     19  C   UNL     1       8.449   8.950  18.421  0.00  0.00    +0.000 A 
ATOM     20  I   UNL     1       9.149  10.862  18.828  0.00  0.00    +0.000 I 
ATOM     21  C   UNL     1       7.695   8.715  17.274  0.00  0.00    +0.000 A 
ATOM     22  C   UNL     1       7.235   7.425  16.999  0.00  0.00    +0.000 A 
ENDBRANCH  14  16
ENDBRANCH  13  14
ENDBRANCH  11  13
TORSDOF 3
ENDMDL
MODEL 4
REMARK VINA RESULT:      -6.7      3.559      7.765
REMARK  Name = 
REMARK  5 active torsions:
REMARK  status: ('A' for Active; 'I' for Inactive)
REMARK    1  A    between atoms: C_1  and  C_2
REMARK    2  A    between atoms: N_11  and  C_12
REMARK    3  A    between atoms: N_11  and  C_13
REMARK    4  A    between atoms: C_13  and  C_14
REMARK    5  A    between atoms: C_14  and  C_16
REMARK                            x       y       z     vdW  Elec       q    Type
REMARK                         _______ _______ _______ _____ _____    ______ ____
ROOT
ATOM      1  C   UNL     1       2.786   4.081  20.486  0.00  0.00    +0.000 C 
ATOM      2  C   UNL     1       3.607   4.724  19.368  0.00  0.00    +0.000 C 
ATOM      3  C   UNL     1       4.007   3.678  18.309  0.00  0.00    +0.000 C 
ATOM      4  C   UNL     1       4.695   4.280  17.108  0.00  0.00    +0.000 A 
ATOM      5  C   UNL     1       5.357   3.432  16.210  0.00  0.00    +0.000 A 
ATOM      6  C   UNL     1       5.991   3.955  15.085  0.00  0.00    +0.000 A 
ATOM      7  C   UNL     1       5.971   5.326  14.848  0.00  0.00    +0.000 A 
ATOM      8  C   UNL     1       5.299   6.178  15.725  0.00  0.00    +0.000 A 
ATOM      9  C   UNL     1       4.636   5.662  16.848  0.00  0.00    +0.000 A 
ATOM     10  C   UNL     1       3.920   6.607  17.781  0.00  0.00    +0.000 C 
ATOM     11  N   UNL     1       2.872   5.925  18.693  0.00  0.00    +0.000 N 
ATOM     12  C   UNL     1       1.679   5.494  17.831  0.00  0.00    +0.000 C 
ENDROOT
BRANCH  11  13
ATOM     13  C   UNL     1       2.329   6.971  19.725  0.00  0.00    +0.000 C 
BRANCH  13  14
ATOM     14  C   UNL     1       1.849   8.314  19.187  0.00  0.00    +0.000 C 
ATOM     15  O   UNL     1       2.129   8.710  18.059  0.00  0.00    +0.000 OA
BRANCH  14  16
ATOM     16  C   UNL     1       1.004   9.170  20.074  0.00  0.00    +0.000 A 
ATOM     17  C   UNL     1       0.870   8.929  21.447  0.00  0.00    +0.000 A 
ATOM     18  C   UNL     1       0.075   9.772  22.232  0.00  0.00    +0.000 A 
ATOM     19  C   UNL     1      -0.584  10.852  21.649  0.00  0.00    +0.000 A 
ATOM     20  I   UNL     1      -1.748  12.105  22.826  0.00  0.00    +0.000 I 
ATOM     21  C   UNL     1      -0.462  11.095  20.284  0.00  0.00    +0.000 A 
ATOM     22  C   UNL     1       0.330  10.256  19.497  0.00  0.00    +0.000 A 
ENDBRANCH  14  16
ENDBRANCH  13  14
ENDBRANCH  11  13
TORSDOF 3
ENDMDL
MODEL 5
REMARK VINA RESULT:      -6.7      3.576      7.838
REMARK  Name = 
REMARK  5 active torsions:
REMARK  status: ('A' for Active; 'I' for Inactive)
REMARK    1  A    between atoms: C_1  and  C_2
REMARK    2  A    between atoms: N_11  and  C_12
REMARK    3  A    between atoms: N_11  and  C_13
REMARK    4  A    between atoms: C_13  and  C_14
REMARK    5  A    between atoms: C_14  and  C_16
REMARK                            x       y       z     vdW  Elec       q    Type
REMARK                         _______ _______ _______ _____ _____    ______ ____
ROOT
ATOM      1  C   UNL     1       2.855   3.909  20.495  0.00  0.00    +0.000 C 
ATOM      2  C   UNL     1       3.648   4.571  19.368  0.00  0.00    +0.000 C 
ATOM      3  C   UNL     1       4.078   3.531  18.315  0.00  0.00    +0.000 C 
ATOM      4  C   UNL     1       4.738   4.148  17.106  0.00  0.00    +0.000 A 
ATOM      5  C   UNL     1       5.425   3.316  16.210  0.00  0.00    +0.000 A 
ATOM      6  C   UNL     1       6.034   3.853  15.078  0.00  0.00    +0.000 A 
ATOM      7  C   UNL     1       5.965   5.220  14.831  0.00  0.00    +0.000 A 
ATOM      8  C   UNL     1       5.269   6.055  15.705  0.00  0.00    +0.000 A 
ATOM      9  C   UNL     1       4.630   5.525  16.836  0.00  0.00    +0.000 A 
ATOM     10  C   UNL     1       3.886   6.452  17.766  0.00  0.00    +0.000 C 
ATOM     11  N   UNL     1       2.868   5.741  18.688  0.00  0.00    +0.000 N 
ATOM     12  C   UNL     1       1.686   5.262  17.836  0.00  0.00    +0.000 C 
ENDROOT
BRANCH  11  13
ATOM     13  C   UNL     1       2.295   6.775  19.715  0.00  0.00    +0.000 C 
BRANCH  13  14
ATOM     14  C   UNL     1       1.972   8.175  19.207  0.00  0.00    +0.000 C 
ATOM     15  O   UNL     1       2.386   8.597  18.130  0.00  0.00    +0.000 OA
BRANCH  14  16
ATOM     16  C   UNL     1       1.115   9.057  20.055  0.00  0.00    +0.000 A 
ATOM     17  C   UNL     1       0.346  10.099  19.521  0.00  0.00    +0.000 A 
ATOM     18  C   UNL     1      -0.449  10.885  20.361  0.00  0.00    +0.000 A 
ATOM     19  C   UNL     1      -0.477  10.635  21.732  0.00  0.00    +0.000 A 
ATOM     20  I   UNL     1      -1.673  11.798  22.968  0.00  0.00    +0.000 I 
ATOM     21  C   UNL     1       0.289   9.606  22.273  0.00  0.00    +0.000 A 
ATOM     22  C   UNL     1       1.084   8.819  21.437  0.00  0.00    +0.000 A 
ENDBRANCH  14  16
ENDBRANCH  13  14
ENDBRANCH  11  13
TORSDOF 3
ENDMDL
MODEL 6
REMARK VINA RESULT:      -6.6      4.492      8.608
REMARK  Name = 
REMARK  5 active torsions:
REMARK  status: ('A' for Active; 'I' for Inactive)
REMARK    1  A    between atoms: C_1  and  C_2
REMARK    2  A    between atoms: N_11  and  C_12
REMARK    3  A    between atoms: N_11  and  C_13
REMARK    4  A    between atoms: C_13  and  C_14
REMARK    5  A    between atoms: C_14  and  C_16
REMARK                            x       y       z     vdW  Elec       q    Type
REMARK                         _______ _______ _______ _____ _____    ______ ____
ROOT
ATOM      1  C   UNL     1       7.296   5.611  19.679  0.00  0.00    +0.000 C 
ATOM      2  C   UNL     1       6.576   5.589  18.331  0.00  0.00    +0.000 C 
ATOM      3  C   UNL     1       7.396   4.812  17.283  0.00  0.00    +0.000 C 
ATOM      4  C   UNL     1       6.668   4.632  15.973  0.00  0.00    +0.000 A 
ATOM      5  C   UNL     1       7.388   4.198  14.851  0.00  0.00    +0.000 A 
ATOM      6  C   UNL     1       6.744   4.010  13.631  0.00  0.00    +0.000 A 
ATOM      7  C   UNL     1       5.379   4.255  13.518  0.00  0.00    +0.000 A 
ATOM      8  C   UNL     1       4.648   4.668  14.632  0.00  0.00    +0.000 A 
ATOM      9  C   UNL     1       5.280   4.837  15.873  0.00  0.00    +0.000 A 
ATOM     10  C   UNL     1       4.464   5.289  17.060  0.00  0.00    +0.000 C 
ATOM     11  N   UNL     1       5.130   5.008  18.429  0.00  0.00    +0.000 N 
ATOM     12  C   UNL     1       5.104   3.496  18.684  0.00  0.00    +0.000 C 
ENDROOT
BRANCH  11  13
ATOM     13  C   UNL     1       4.276   5.672  19.561  0.00  0.00    +0.000 C 
BRANCH  13  14
ATOM     14  C   UNL     1       2.783   5.848  19.313  0.00  0.00    +0.000 C 
ATOM     15  O   UNL     1       2.020   4.894  19.183  0.00  0.00    +0.000 OA
BRANCH  14  16
ATOM     16  C   UNL     1       2.237   7.237  19.232  0.00  0.00    +0.000 A 
ATOM     17  C   UNL     1       2.279   7.993  18.053  0.00  0.00    +0.000 A 
ATOM     18  C   UNL     1       1.740   9.284  18.030  0.00  0.00    +0.000 A 
ATOM     19  C   UNL     1       1.162   9.820  19.179  0.00  0.00    +0.000 A 
ATOM     20  I   UNL     1       0.351  11.731  19.129  0.00  0.00    +0.000 I 
ATOM     21  C   UNL     1       1.122   9.078  20.357  0.00  0.00    +0.000 A 
ATOM     22  C   UNL     1       1.658   7.789  20.383  0.00  0.00    +0.000 A 
ENDBRANCH  14  16
ENDBRANCH  13  14
ENDBRANCH  11  13
TORSDOF 3
ENDMDL
MODEL 7
REMARK VINA RESULT:      -6.5      6.814      8.641
REMARK  Name = 
REMARK  5 active torsions:
REMARK  status: ('A' for Active; 'I' for Inactive)
REMARK    1  A    between atoms: C_1  and  C_2
REMARK    2  A    between atoms: N_11  and  C_12
REMARK    3  A    between atoms: N_11  and  C_13
REMARK    4  A    between atoms: C_13  and  C_14
REMARK    5  A    between atoms: C_14  and  C_16
REMARK                            x       y       z     vdW  Elec       q    Type
REMARK                         _______ _______ _______ _____ _____    ______ ____
ROOT
ATOM      1  C   UNL     1       5.264   4.124  15.660  0.00  0.00    +0.000 C 
ATOM      2  C   UNL     1       4.280   4.456  16.782  0.00  0.00    +0.000 C 
ATOM      3  C   UNL     1       3.848   3.179  17.529  0.00  0.00    +0.000 C 
ATOM      4  C   UNL     1       2.992   3.459  18.740  0.00  0.00    +0.000 A 
ATOM      5  C   UNL     1       2.302   2.398  19.343  0.00  0.00    +0.000 A 
ATOM      6  C   UNL     1       1.513   2.622  20.470  0.00  0.00    +0.000 A 
ATOM      7  C   UNL     1       1.405   3.903  21.001  0.00  0.00    +0.000 A 
ATOM      8  C   UNL     1       2.101   4.963  20.421  0.00  0.00    +0.000 A 
ATOM      9  C   UNL     1       2.918   4.748  19.302  0.00  0.00    +0.000 A 
ATOM     10  C   UNL     1       3.658   5.914  18.692  0.00  0.00    +0.000 C 
ATOM     11  N   UNL     1       4.846   5.508  17.788  0.00  0.00    +0.000 N 
ATOM     12  C   UNL     1       5.968   4.952  18.674  0.00  0.00    +0.000 C 
ENDROOT
BRANCH  11  13
ATOM     13  C   UNL     1       5.417   6.785  17.085  0.00  0.00    +0.000 C 
BRANCH  13  14
ATOM     14  C   UNL     1       6.929   6.895  16.932  0.00  0.00    +0.000 C 
ATOM     15  O   UNL     1       7.579   6.122  16.232  0.00  0.00    +0.000 OA
BRANCH  14  16
ATOM     16  C   UNL     1       7.637   7.990  17.662  0.00  0.00    +0.000 A 
ATOM     17  C   UNL     1       8.473   7.744  18.759  0.00  0.00    +0.000 A 
ATOM     18  C   UNL     1       9.122   8.807  19.397  0.00  0.00    +0.000 A 
ATOM     19  C   UNL     1       8.938  10.111  18.943  0.00  0.00    +0.000 A 
ATOM     20  I   UNL     1       9.918  11.679  19.888  0.00  0.00    +0.000 I 
ATOM     21  C   UNL     1       8.103  10.366  17.858  0.00  0.00    +0.000 A 
ATOM     22  C   UNL     1       7.454   9.307  17.219  0.00  0.00    +0.000 A 
ENDBRANCH  14  16
ENDBRANCH  13  14
ENDBRANCH  11  13
TORSDOF 3
ENDMDL
MODEL 8
REMARK VINA RESULT:      -6.5      6.650      8.536
REMARK  Name = 
REMARK  5 active torsions:
REMARK  status: ('A' for Active; 'I' for Inactive)
REMARK    1  A    between atoms: C_1  and  C_2
REMARK    2  A    between atoms: N_11  and  C_12
REMARK    3  A    between atoms: N_11  and  C_13
REMARK    4  A    between atoms: C_13  and  C_14
REMARK    5  A    between atoms: C_14  and  C_16
REMARK                            x       y       z     vdW  Elec       q    Type
REMARK                         _______ _______ _______ _____ _____    ______ ____
ROOT
ATOM      1  C   UNL     1       4.312   7.070  16.799  0.00  0.00    +0.000 C 
ATOM      2  C   UNL     1       4.195   6.069  17.948  0.00  0.00    +0.000 C 
ATOM      3  C   UNL     1       2.720   5.713  18.219  0.00  0.00    +0.000 C 
ATOM      4  C   UNL     1       2.551   4.619  19.245  0.00  0.00    +0.000 A 
ATOM      5  C   UNL     1       1.280   4.392  19.791  0.00  0.00    +0.000 A 
ATOM      6  C   UNL     1       1.089   3.381  20.730  0.00  0.00    +0.000 A 
ATOM      7  C   UNL     1       2.161   2.592  21.134  0.00  0.00    +0.000 A 
ATOM      8  C   UNL     1       3.426   2.797  20.584  0.00  0.00    +0.000 A 
ATOM      9  C   UNL     1       3.629   3.794  19.619  0.00  0.00    +0.000 A 
ATOM     10  C   UNL     1       5.009   3.995  19.043  0.00  0.00    +0.000 C 
ATOM     11  N   UNL     1       5.030   4.772  17.705  0.00  0.00    +0.000 N 
ATOM     12  C   UNL     1       4.444   3.875  16.608  0.00  0.00    +0.000 C 
ENDROOT
BRANCH  11  13
ATOM     13  C   UNL     1       6.516   5.064  17.304  0.00  0.00    +0.000 C 
BRANCH  13  14
ATOM     14  C   UNL     1       7.439   5.637  18.373  0.00  0.00    +0.000 C 
ATOM     15  O   UNL     1       7.891   4.953  19.288  0.00  0.00    +0.000 OA
BRANCH  14  16
ATOM     16  C   UNL     1       7.805   7.083  18.292  0.00  0.00    +0.000 A 
ATOM     17  C   UNL     1       7.304   7.932  17.296  0.00  0.00    +0.000 A 
ATOM     18  C   UNL     1       7.670   9.282  17.276  0.00  0.00    +0.000 A 
ATOM     19  C   UNL     1       8.534   9.785  18.246  0.00  0.00    +0.000 A 
ATOM     20  I   UNL     1       9.058  11.794  18.217  0.00  0.00    +0.000 I 
ATOM     21  C   UNL     1       9.043   8.948  19.236  0.00  0.00    +0.000 A 
ATOM     22  C   UNL     1       8.680   7.599  19.259  0.00  0.00    +0.000 A 
ENDBRANCH  14  16
ENDBRANCH  13  14
ENDBRANCH  11  13
TORSDOF 3
ENDMDL
MODEL 9
REMARK VINA RESULT:      -6.4      5.021      8.890
REMARK  Name = 
REMARK  5 active torsions:
REMARK  status: ('A' for Active; 'I' for Inactive)
REMARK    1  A    between atoms: C_1  and  C_2
REMARK    2  A    between atoms: N_11  and  C_12
REMARK    3  A    between atoms: N_11  and  C_13
REMARK    4  A    between atoms: C_13  and  C_14
REMARK    5  A    between atoms: C_14  and  C_16
REMARK                            x       y       z     vdW  Elec       q    Type
REMARK                         _______ _______ _______ _____ _____    ______ ____
ROOT
ATOM      1  C   UNL     1       6.919   7.358  17.686  0.00  0.00    +0.000 C 
ATOM      2  C   UNL     1       6.328   6.456  16.602  0.00  0.00    +0.000 C 
ATOM      3  C   UNL     1       7.344   6.226  15.465  0.00  0.00    +0.000 C 
ATOM      4  C   UNL     1       6.870   5.227  14.438  0.00  0.00    +0.000 A 
ATOM      5  C   UNL     1       7.555   5.130  13.219  0.00  0.00    +0.000 A 
ATOM      6  C   UNL     1       7.150   4.209  12.255  0.00  0.00    +0.000 A 
ATOM      7  C   UNL     1       6.059   3.380  12.498  0.00  0.00    +0.000 A 
ATOM      8  C   UNL     1       5.381   3.455  13.714  0.00  0.00    +0.000 A 
ATOM      9  C   UNL     1       5.793   4.360  14.703  0.00  0.00    +0.000 A 
ATOM     10  C   UNL     1       5.038   4.420  16.009  0.00  0.00    +0.000 C 
ATOM     11  N   UNL     1       5.822   5.090  17.163  0.00  0.00    +0.000 N 
ATOM     12  C   UNL     1       6.960   4.155  17.590  0.00  0.00    +0.000 C 
ENDROOT
BRANCH  11  13
ATOM     13  C   UNL     1       4.878   5.248  18.402  0.00  0.00    +0.000 C 
BRANCH  13  14
ATOM     14  C   UNL     1       3.386   5.421  18.140  0.00  0.00    +0.000 C 
ATOM     15  O   UNL     1       2.691   4.524  17.672  0.00  0.00    +0.000 OA
BRANCH  14  16
ATOM     16  C   UNL     1       2.757   6.735  18.472  0.00  0.00    +0.000 A 
ATOM     17  C   UNL     1       2.643   7.773  17.538  0.00  0.00    +0.000 A 
ATOM     18  C   UNL     1       2.031   8.978  17.900  0.00  0.00    +0.000 A 
ATOM     19  C   UNL     1       1.536   9.149  19.191  0.00  0.00    +0.000 A 
ATOM     20  I   UNL     1       0.616  10.935  19.713  0.00  0.00    +0.000 I 
ATOM     21  C   UNL     1       1.650   8.126  20.128  0.00  0.00    +0.000 A 
ATOM     22  C   UNL     1       2.260   6.921  19.770  0.00  0.00    +0.000 A 
ENDBRANCH  14  16
ENDBRANCH  13  14
ENDBRANCH  11  13
TORSDOF 3
ENDMDL
