MODEL 1
REMARK VINA RESULT:      -9.7      0.000      0.000
REMARK  Name = 
REMARK  7 active torsions:
REMARK  status: ('A' for Active; 'I' for Inactive)
REMARK    1  A    between atoms: C_1  and  O_2
REMARK    2  A    between atoms: O_2  and  C_3
REMARK    3  A    between atoms: C_7  and  C_8
REMARK    4  A    between atoms: C_13  and  C_14
REMARK    5  A    between atoms: C_15  and  C_16
REMARK    6  A    between atoms: N_18  and  C_19
REMARK    7  A    between atoms: C_22  and  C_23
REMARK                            x       y       z     vdW  Elec       q    Type
REMARK                         _______ _______ _______ _____ _____    ______ ____
ROOT
ATOM      1  C   UNL     1       4.814   4.025  19.298  0.00  0.00    +0.000 C 
ATOM      2  N   UNL     1       5.251   2.651  19.475  0.00  0.00    +0.000 N 
ATOM      3  C   UNL     1       4.780   1.895  20.503  0.00  0.00    +0.000 C 
ATOM      4  O   UNL     1       5.390   0.925  20.932  0.00  0.00    +0.000 OA
ATOM      5  N   UNL     1       3.557   2.264  20.974  0.00  0.00    +0.000 N 
ATOM      6  C   UNL     1       2.780   3.293  20.472  0.00  0.00    +0.000 C 
ATOM      7  C   UNL     1       1.390   3.354  21.058  0.00  0.00    +0.000 C 
ATOM      8  C   UNL     1       3.324   4.139  19.557  0.00  0.00    +0.000 C 
ATOM      9  H   UNL     1       6.203   2.413  19.218  0.00  0.00    +0.000 HD
ATOM     10  H   UNL     1       3.189   1.660  21.704  0.00  0.00    +0.000 HD
ENDROOT
BRANCH   1  15
ATOM     11  C   UNL     1       6.815   6.063  16.730  0.00  0.00    +0.000 A 
ATOM     12  C   UNL     1       6.421   5.431  15.548  0.00  0.00    +0.000 A 
ATOM     13  C   UNL     1       5.509   4.379  15.573  0.00  0.00    +0.000 A 
ATOM     14  C   UNL     1       5.000   3.935  16.790  0.00  0.00    +0.000 A 
ATOM     15  C   UNL     1       5.392   4.542  17.995  0.00  0.00    +0.000 A 
ATOM     16  C   UNL     1       6.287   5.632  17.950  0.00  0.00    +0.000 A 
BRANCH  11  18
ATOM     17  C   UNL     1       7.798   8.069  17.559  0.00  0.00    +0.000 C 
ATOM     18  O   UNL     1       7.716   7.074  16.548  0.00  0.00    +0.000 OA
ENDBRANCH  11  18
ENDBRANCH   1  15
BRANCH   8  19
ATOM     19  C   UNL     1       2.514   5.339  19.149  0.00  0.00    +0.000 C 
ATOM     20  O   UNL     1       1.771   5.243  18.175  0.00  0.00    +0.000 OA
ATOM     21  N   UNL     1       2.677   6.501  19.873  0.00  0.00    +0.000 N 
ATOM     22  H   UNL     1       3.380   6.537  20.594  0.00  0.00    +0.000 HD
BRANCH  21  23
ATOM     23  C   UNL     1       2.013   7.734  19.637  0.00  0.00    +0.000 A 
ATOM     24  C   UNL     1       1.232   8.384  20.592  0.00  0.00    +0.000 A 
ATOM     25  C   UNL     1       0.560   9.572  20.291  0.00  0.00    +0.000 A 
ATOM     26  C   UNL     1       0.665  10.146  19.025  0.00  0.00    +0.000 A 
ATOM     27  C   UNL     1      -0.079  11.408  18.706  0.00  0.00    +0.000 C 
ATOM     28  C   UNL     1       1.471   9.522  18.069  0.00  0.00    +0.000 A 
ATOM     29  C   UNL     1       2.148   8.328  18.375  0.00  0.00    +0.000 A 
ENDBRANCH  21  23
ENDBRANCH   8  19
TORSDOF 4
ENDMDL
MODEL 2
REMARK VINA RESULT:      -9.3      1.019      2.009
REMARK  Name = 
REMARK  7 active torsions:
REMARK  status: ('A' for Active; 'I' for Inactive)
REMARK    1  A    between atoms: C_1  and  O_2
REMARK    2  A    between atoms: O_2  and  C_3
REMARK    3  A    between atoms: C_7  and  C_8
REMARK    4  A    between atoms: C_13  and  C_14
REMARK    5  A    between atoms: C_15  and  C_16
REMARK    6  A    between atoms: N_18  and  C_19
REMARK    7  A    between atoms: C_22  and  C_23
REMARK                            x       y       z     vdW  Elec       q    Type
REMARK                         _______ _______ _______ _____ _____    ______ ____
ROOT
ATOM      1  C   UNL     1       4.849   4.047  19.239  0.00  0.00    +0.000 C 
ATOM      2  N   UNL     1       5.263   2.673  19.463  0.00  0.00    +0.000 N 
ATOM      3  C   UNL     1       4.765   1.956  20.506  0.00  0.00    +0.000 C 
ATOM      4  O   UNL     1       5.354   0.990  20.972  0.00  0.00    +0.000 OA
ATOM      5  N   UNL     1       3.541   2.356  20.947  0.00  0.00    +0.000 N 
ATOM      6  C   UNL     1       2.787   3.380  20.403  0.00  0.00    +0.000 C 
ATOM      7  C   UNL     1       1.390   3.479  20.966  0.00  0.00    +0.000 C 
ATOM      8  C   UNL     1       3.357   4.191  19.471  0.00  0.00    +0.000 C 
ATOM      9  H   UNL     1       6.214   2.414  19.227  0.00  0.00    +0.000 HD
ATOM     10  H   UNL     1       3.153   1.779  21.688  0.00  0.00    +0.000 HD
ENDROOT
BRANCH   1  15
ATOM     11  C   UNL     1       5.607   4.482  15.498  0.00  0.00    +0.000 A 
ATOM     12  C   UNL     1       6.616   5.446  15.559  0.00  0.00    +0.000 A 
ATOM     13  C   UNL     1       7.062   5.934  16.784  0.00  0.00    +0.000 A 
ATOM     14  C   UNL     1       6.483   5.474  17.963  0.00  0.00    +0.000 A 
ATOM     15  C   UNL     1       5.454   4.517  17.930  0.00  0.00    +0.000 A 
ATOM     16  C   UNL     1       5.040   4.004  16.683  0.00  0.00    +0.000 A 
BRANCH  11  18
ATOM     17  C   UNL     1       6.335   3.895  13.306  0.00  0.00    +0.000 C 
ATOM     18  O   UNL     1       5.274   4.103  14.229  0.00  0.00    +0.000 OA
ENDBRANCH  11  18
ENDBRANCH   1  15
BRANCH   8  19
ATOM     19  C   UNL     1       2.571   5.390  19.016  0.00  0.00    +0.000 C 
ATOM     20  O   UNL     1       1.854   5.280  18.024  0.00  0.00    +0.000 OA
ATOM     21  N   UNL     1       2.726   6.565  19.720  0.00  0.00    +0.000 N 
ATOM     22  H   UNL     1       3.410   6.610  20.459  0.00  0.00    +0.000 HD
BRANCH  21  23
ATOM     23  C   UNL     1       2.082   7.799  19.440  0.00  0.00    +0.000 A 
ATOM     24  C   UNL     1       2.156   8.445  18.206  0.00  0.00    +0.000 A 
ATOM     25  C   UNL     1       1.543   9.683  17.999  0.00  0.00    +0.000 A 
ATOM     26  C   UNL     1       0.826  10.301  19.022  0.00  0.00    +0.000 A 
ATOM     27  C   UNL     1       0.191  11.641  18.797  0.00  0.00    +0.000 C 
ATOM     28  C   UNL     1       0.717   9.649  20.254  0.00  0.00    +0.000 A 
ATOM     29  C   UNL     1       1.333   8.402  20.460  0.00  0.00    +0.000 A 
ENDBRANCH  21  23
ENDBRANCH   8  19
TORSDOF 4
ENDMDL
MODEL 3
REMARK VINA RESULT:      -8.9      0.437      1.022
REMARK  Name = 
REMARK  7 active torsions:
REMARK  status: ('A' for Active; 'I' for Inactive)
REMARK    1  A    between atoms: C_1  and  O_2
REMARK    2  A    between atoms: O_2  and  C_3
REMARK    3  A    between atoms: C_7  and  C_8
REMARK    4  A    between atoms: C_13  and  C_14
REMARK    5  A    between atoms: C_15  and  C_16
REMARK    6  A    between atoms: N_18  and  C_19
REMARK    7  A    between atoms: C_22  and  C_23
REMARK                            x       y       z     vdW  Elec       q    Type
REMARK                         _______ _______ _______ _____ _____    ______ ____
ROOT
ATOM      1  C   UNL     1       4.833   4.234  19.322  0.00  0.00    +0.000 C 
ATOM      2  N   UNL     1       5.225   2.848  19.509  0.00  0.00    +0.000 N 
ATOM      3  C   UNL     1       4.634   2.079  20.462  0.00  0.00    +0.000 C 
ATOM      4  O   UNL     1       5.179   1.087  20.928  0.00  0.00    +0.000 OA
ATOM      5  N   UNL     1       3.374   2.460  20.809  0.00  0.00    +0.000 N 
ATOM      6  C   UNL     1       2.673   3.516  20.255  0.00  0.00    +0.000 C 
ATOM      7  C   UNL     1       1.230   3.591  20.692  0.00  0.00    +0.000 C 
ATOM      8  C   UNL     1       3.326   4.373  19.424  0.00  0.00    +0.000 C 
ATOM      9  H   UNL     1       6.194   2.598  19.348  0.00  0.00    +0.000 HD
ATOM     10  H   UNL     1       2.921   1.846  21.481  0.00  0.00    +0.000 HD
ENDROOT
BRANCH   1  15
ATOM     11  C   UNL     1       6.908   6.455  16.972  0.00  0.00    +0.000 A 
ATOM     12  C   UNL     1       6.872   5.687  15.807  0.00  0.00    +0.000 A 
ATOM     13  C   UNL     1       6.173   4.483  15.769  0.00  0.00    +0.000 A 
ATOM     14  C   UNL     1       5.521   4.026  16.910  0.00  0.00    +0.000 A 
ATOM     15  C   UNL     1       5.555   4.771  18.102  0.00  0.00    +0.000 A 
ATOM     16  C   UNL     1       6.235   6.008  18.113  0.00  0.00    +0.000 A 
BRANCH  11  18
ATOM     17  C   UNL     1       7.902   8.334  18.050  0.00  0.00    +0.000 C 
ATOM     18  O   UNL     1       7.633   7.607  16.859  0.00  0.00    +0.000 OA
ENDBRANCH  11  18
ENDBRANCH   1  15
BRANCH   8  19
ATOM     19  C   UNL     1       2.585   5.598  18.964  0.00  0.00    +0.000 C 
ATOM     20  O   UNL     1       1.959   5.543  17.908  0.00  0.00    +0.000 OA
ATOM     21  N   UNL     1       2.678   6.734  19.739  0.00  0.00    +0.000 N 
ATOM     22  H   UNL     1       3.292   6.737  20.537  0.00  0.00    +0.000 HD
BRANCH  21  23
ATOM     23  C   UNL     1       2.062   7.984  19.467  0.00  0.00    +0.000 A 
ATOM     24  C   UNL     1       1.902   8.502  18.182  0.00  0.00    +0.000 A 
ATOM     25  C   UNL     1       1.333   9.761  17.974  0.00  0.00    +0.000 A 
ATOM     26  C   UNL     1       0.895  10.530  19.052  0.00  0.00    +0.000 A 
ATOM     27  C   UNL     1       0.307  11.889  18.819  0.00  0.00    +0.000 C 
ATOM     28  C   UNL     1       1.020  10.008  20.343  0.00  0.00    +0.000 A 
ATOM     29  C   UNL     1       1.591   8.740  20.550  0.00  0.00    +0.000 A 
ENDBRANCH  21  23
ENDBRANCH   8  19
TORSDOF 4
ENDMDL
MODEL 4
REMARK VINA RESULT:      -8.0      1.949      4.588
REMARK  Name = 
REMARK  7 active torsions:
REMARK  status: ('A' for Active; 'I' for Inactive)
REMARK    1  A    between atoms: C_1  and  O_2
REMARK    2  A    between atoms: O_2  and  C_3
REMARK    3  A    between atoms: C_7  and  C_8
REMARK    4  A    between atoms: C_13  and  C_14
REMARK    5  A    between atoms: C_15  and  C_16
REMARK    6  A    between atoms: N_18  and  C_19
REMARK    7  A    between atoms: C_22  and  C_23
REMARK                            x       y       z     vdW  Elec       q    Type
REMARK                         _______ _______ _______ _____ _____    ______ ____
ROOT
ATOM      1  C   UNL     1       5.138   4.687  17.553  0.00  0.00    +0.000 C 
ATOM      2  N   UNL     1       6.366   4.062  18.013  0.00  0.00    +0.000 N 
ATOM      3  C   UNL     1       7.579   4.586  17.691  0.00  0.00    +0.000 C 
ATOM      4  O   UNL     1       8.600   3.913  17.691  0.00  0.00    +0.000 OA
ATOM      5  N   UNL     1       7.577   5.922  17.429  0.00  0.00    +0.000 N 
ATOM      6  C   UNL     1       6.473   6.753  17.500  0.00  0.00    +0.000 C 
ATOM      7  C   UNL     1       6.797   8.219  17.347  0.00  0.00    +0.000 C 
ATOM      8  C   UNL     1       5.242   6.196  17.664  0.00  0.00    +0.000 C 
ATOM      9  H   UNL     1       6.386   3.052  18.103  0.00  0.00    +0.000 HD
ATOM     10  H   UNL     1       8.496   6.315  17.244  0.00  0.00    +0.000 HD
ENDROOT
BRANCH   1  15
ATOM     11  C   UNL     1       2.851   2.974  20.121  0.00  0.00    +0.000 A 
ATOM     12  C   UNL     1       1.767   2.642  19.306  0.00  0.00    +0.000 A 
ATOM     13  C   UNL     1       1.778   2.943  17.947  0.00  0.00    +0.000 A 
ATOM     14  C   UNL     1       2.872   3.604  17.395  0.00  0.00    +0.000 A 
ATOM     15  C   UNL     1       3.969   3.966  18.195  0.00  0.00    +0.000 A 
ATOM     16  C   UNL     1       3.959   3.618  19.563  0.00  0.00    +0.000 A 
BRANCH  11  18
ATOM     17  C   UNL     1       1.368   2.514  21.928  0.00  0.00    +0.000 C 
ATOM     18  O   UNL     1       2.695   2.619  21.431  0.00  0.00    +0.000 OA
ENDBRANCH  11  18
ENDBRANCH   1  15
BRANCH   8  19
ATOM     19  C   UNL     1       4.048   7.106  17.578  0.00  0.00    +0.000 C 
ATOM     20  O   UNL     1       3.760   7.595  16.488  0.00  0.00    +0.000 OA
ATOM     21  N   UNL     1       3.358   7.373  18.741  0.00  0.00    +0.000 N 
ATOM     22  H   UNL     1       3.712   7.020  19.616  0.00  0.00    +0.000 HD
BRANCH  21  23
ATOM     23  C   UNL     1       2.218   8.211  18.863  0.00  0.00    +0.000 A 
ATOM     24  C   UNL     1       1.662   8.916  17.797  0.00  0.00    +0.000 A 
ATOM     25  C   UNL     1       0.568   9.766  17.982  0.00  0.00    +0.000 A 
ATOM     26  C   UNL     1      -0.006   9.920  19.244  0.00  0.00    +0.000 A 
ATOM     27  C   UNL     1      -1.165  10.852  19.436  0.00  0.00    +0.000 C 
ATOM     28  C   UNL     1       0.522   9.193  20.315  0.00  0.00    +0.000 A 
ATOM     29  C   UNL     1       1.621   8.337  20.125  0.00  0.00    +0.000 A 
ENDBRANCH  21  23
ENDBRANCH   8  19
TORSDOF 4
ENDMDL
MODEL 5
REMARK VINA RESULT:      -7.9      0.958      1.443
REMARK  Name = 
REMARK  7 active torsions:
REMARK  status: ('A' for Active; 'I' for Inactive)
REMARK    1  A    between atoms: C_1  and  O_2
REMARK    2  A    between atoms: O_2  and  C_3
REMARK    3  A    between atoms: C_7  and  C_8
REMARK    4  A    between atoms: C_13  and  C_14
REMARK    5  A    between atoms: C_15  and  C_16
REMARK    6  A    between atoms: N_18  and  C_19
REMARK    7  A    between atoms: C_22  and  C_23
REMARK                            x       y       z     vdW  Elec       q    Type
REMARK                         _______ _______ _______ _____ _____    ______ ____
ROOT
ATOM      1  C   UNL     1       4.713   3.734  19.187  0.00  0.00    +0.000 C 
ATOM      2  N   UNL     1       5.159   2.377  19.451  0.00  0.00    +0.000 N 
ATOM      3  C   UNL     1       4.879   1.769  20.634  0.00  0.00    +0.000 C 
ATOM      4  O   UNL     1       5.547   0.837  21.062  0.00  0.00    +0.000 OA
ATOM      5  N   UNL     1       3.771   2.235  21.273  0.00  0.00    +0.000 N 
ATOM      6  C   UNL     1       2.927   3.223  20.798  0.00  0.00    +0.000 C 
ATOM      7  C   UNL     1       1.673   3.404  21.619  0.00  0.00    +0.000 C 
ATOM      8  C   UNL     1       3.300   3.932  19.700  0.00  0.00    +0.000 C 
ATOM      9  H   UNL     1       6.042   2.076  19.054  0.00  0.00    +0.000 HD
ATOM     10  H   UNL     1       3.540   1.737  22.128  0.00  0.00    +0.000 HD
ENDROOT
BRANCH   1  15
ATOM     11  C   UNL     1       6.523   4.975  16.033  0.00  0.00    +0.000 A 
ATOM     12  C   UNL     1       5.578   4.646  15.058  0.00  0.00    +0.000 A 
ATOM     13  C   UNL     1       4.368   4.055  15.410  0.00  0.00    +0.000 A 
ATOM     14  C   UNL     1       4.103   3.766  16.746  0.00  0.00    +0.000 A 
ATOM     15  C   UNL     1       5.043   4.070  17.745  0.00  0.00    +0.000 A 
ATOM     16  C   UNL     1       6.248   4.704  17.377  0.00  0.00    +0.000 A 
BRANCH  11  18
ATOM     17  C   UNL     1       7.885   5.452  14.137  0.00  0.00    +0.000 C 
ATOM     18  O   UNL     1       7.661   5.545  15.537  0.00  0.00    +0.000 OA
ENDBRANCH  11  18
ENDBRANCH   1  15
BRANCH   8  19
ATOM     19  C   UNL     1       2.443   5.103  19.302  0.00  0.00    +0.000 C 
ATOM     20  O   UNL     1       1.462   4.897  18.591  0.00  0.00    +0.000 OA
ATOM     21  N   UNL     1       2.827   6.355  19.729  0.00  0.00    +0.000 N 
ATOM     22  H   UNL     1       3.699   6.461  20.223  0.00  0.00    +0.000 HD
BRANCH  21  23
ATOM     23  C   UNL     1       2.157   7.576  19.450  0.00  0.00    +0.000 A 
ATOM     24  C   UNL     1       2.195   8.210  18.209  0.00  0.00    +0.000 A 
ATOM     25  C   UNL     1       1.558   9.436  18.001  0.00  0.00    +0.000 A 
ATOM     26  C   UNL     1       0.853  10.054  19.033  0.00  0.00    +0.000 A 
ATOM     27  C   UNL     1       0.193  11.381  18.807  0.00  0.00    +0.000 C 
ATOM     28  C   UNL     1       0.780   9.413  20.274  0.00  0.00    +0.000 A 
ATOM     29  C   UNL     1       1.420   8.178  20.479  0.00  0.00    +0.000 A 
ENDBRANCH  21  23
ENDBRANCH   8  19
TORSDOF 4
ENDMDL
MODEL 6
REMARK VINA RESULT:      -7.7      1.358      1.426
REMARK  Name = 
REMARK  7 active torsions:
REMARK  status: ('A' for Active; 'I' for Inactive)
REMARK    1  A    between atoms: C_1  and  O_2
REMARK    2  A    between atoms: O_2  and  C_3
REMARK    3  A    between atoms: C_7  and  C_8
REMARK    4  A    between atoms: C_13  and  C_14
REMARK    5  A    between atoms: C_15  and  C_16
REMARK    6  A    between atoms: N_18  and  C_19
REMARK    7  A    between atoms: C_22  and  C_23
REMARK                            x       y       z     vdW  Elec       q    Type
REMARK                         _______ _______ _______ _____ _____    ______ ____
ROOT
ATOM      1  C   UNL     1       4.433   4.064  18.985  0.00  0.00    +0.000 C 
ATOM      2  N   UNL     1       4.454   2.770  18.327  0.00  0.00    +0.000 N 
ATOM      3  C   UNL     1       3.656   1.756  18.755  0.00  0.00    +0.000 C 
ATOM      4  O   UNL     1       3.915   0.581  18.528  0.00  0.00    +0.000 OA
ATOM      5  N   UNL     1       2.523   2.149  19.400  0.00  0.00    +0.000 N 
ATOM      6  C   UNL     1       2.131   3.459  19.608  0.00  0.00    +0.000 C 
ATOM      7  C   UNL     1       0.741   3.600  20.178  0.00  0.00    +0.000 C 
ATOM      8  C   UNL     1       3.008   4.459  19.321  0.00  0.00    +0.000 C 
ATOM      9  H   UNL     1       5.333   2.441  17.942  0.00  0.00    +0.000 HD
ATOM     10  H   UNL     1       1.906   1.386  19.666  0.00  0.00    +0.000 HD
ENDROOT
BRANCH   1  15
ATOM     11  C   UNL     1       7.155   6.595  18.015  0.00  0.00    +0.000 A 
ATOM     12  C   UNL     1       6.884   6.742  16.652  0.00  0.00    +0.000 A 
ATOM     13  C   UNL     1       5.829   6.056  16.058  0.00  0.00    +0.000 A 
ATOM     14  C   UNL     1       5.047   5.195  16.822  0.00  0.00    +0.000 A 
ATOM     15  C   UNL     1       5.308   5.014  18.191  0.00  0.00    +0.000 A 
ATOM     16  C   UNL     1       6.356   5.747  18.787  0.00  0.00    +0.000 A 
BRANCH  11  18
ATOM     17  C   UNL     1       8.272   8.699  18.083  0.00  0.00    +0.000 C 
ATOM     18  O   UNL     1       8.221   7.328  18.454  0.00  0.00    +0.000 OA
ENDBRANCH  11  18
ENDBRANCH   1  15
BRANCH   8  19
ATOM     19  C   UNL     1       2.617   5.860  19.706  0.00  0.00    +0.000 C 
ATOM     20  O   UNL     1       2.531   6.139  20.899  0.00  0.00    +0.000 OA
ATOM     21  N   UNL     1       2.340   6.752  18.692  0.00  0.00    +0.000 N 
ATOM     22  H   UNL     1       2.331   6.425  17.738  0.00  0.00    +0.000 HD
BRANCH  21  23
ATOM     23  C   UNL     1       1.947   8.106  18.853  0.00  0.00    +0.000 A 
ATOM     24  C   UNL     1       1.250   8.580  19.964  0.00  0.00    +0.000 A 
ATOM     25  C   UNL     1       0.844   9.914  20.051  0.00  0.00    +0.000 A 
ATOM     26  C   UNL     1       1.141  10.814  19.028  0.00  0.00    +0.000 A 
ATOM     27  C   UNL     1       0.680  12.238  19.119  0.00  0.00    +0.000 C 
ATOM     28  C   UNL     1       1.868  10.360  17.924  0.00  0.00    +0.000 A 
ATOM     29  C   UNL     1       2.277   9.017  17.840  0.00  0.00    +0.000 A 
ENDBRANCH  21  23
ENDBRANCH   8  19
TORSDOF 4
ENDMDL
MODEL 7
REMARK VINA RESULT:      -7.7      1.377      1.942
REMARK  Name = 
REMARK  7 active torsions:
REMARK  status: ('A' for Active; 'I' for Inactive)
REMARK    1  A    between atoms: C_1  and  O_2
REMARK    2  A    between atoms: O_2  and  C_3
REMARK    3  A    between atoms: C_7  and  C_8
REMARK    4  A    between atoms: C_13  and  C_14
REMARK    5  A    between atoms: C_15  and  C_16
REMARK    6  A    between atoms: N_18  and  C_19
REMARK    7  A    between atoms: C_22  and  C_23
REMARK                            x       y       z     vdW  Elec       q    Type
REMARK                         _______ _______ _______ _____ _____    ______ ____
ROOT
ATOM      1  C   UNL     1       4.571   3.835  19.147  0.00  0.00    +0.000 C 
ATOM      2  N   UNL     1       4.593   2.540  18.488  0.00  0.00    +0.000 N 
ATOM      3  C   UNL     1       3.715   1.563  18.840  0.00  0.00    +0.000 C 
ATOM      4  O   UNL     1       3.941   0.379  18.632  0.00  0.00    +0.000 OA
ATOM      5  N   UNL     1       2.548   2.007  19.382  0.00  0.00    +0.000 N 
ATOM      6  C   UNL     1       2.198   3.334  19.559  0.00  0.00    +0.000 C 
ATOM      7  C   UNL     1       0.770   3.537  20.003  0.00  0.00    +0.000 C 
ATOM      8  C   UNL     1       3.140   4.293  19.355  0.00  0.00    +0.000 C 
ATOM      9  H   UNL     1       5.487   2.173  18.182  0.00  0.00    +0.000 HD
ATOM     10  H   UNL     1       1.876   1.273  19.590  0.00  0.00    +0.000 HD
ENDROOT
BRANCH   1  15
ATOM     11  C   UNL     1       6.544   5.682  16.417  0.00  0.00    +0.000 A 
ATOM     12  C   UNL     1       7.395   6.458  17.207  0.00  0.00    +0.000 A 
ATOM     13  C   UNL     1       7.351   6.375  18.596  0.00  0.00    +0.000 A 
ATOM     14  C   UNL     1       6.435   5.525  19.208  0.00  0.00    +0.000 A 
ATOM     15  C   UNL     1       5.555   4.745  18.438  0.00  0.00    +0.000 A 
ATOM     16  C   UNL     1       5.639   4.812  17.031  0.00  0.00    +0.000 A 
BRANCH  11  18
ATOM     17  C   UNL     1       6.556   4.740  14.227  0.00  0.00    +0.000 C 
ATOM     18  O   UNL     1       6.700   5.874  15.073  0.00  0.00    +0.000 OA
ENDBRANCH  11  18
ENDBRANCH   1  15
BRANCH   8  19
ATOM     19  C   UNL     1       2.780   5.710  19.709  0.00  0.00    +0.000 C 
ATOM     20  O   UNL     1       2.780   6.038  20.893  0.00  0.00    +0.000 OA
ATOM     21  N   UNL     1       2.432   6.561  18.681  0.00  0.00    +0.000 N 
ATOM     22  H   UNL     1       2.354   6.196  17.745  0.00  0.00    +0.000 HD
BRANCH  21  23
ATOM     23  C   UNL     1       2.054   7.923  18.814  0.00  0.00    +0.000 A 
ATOM     24  C   UNL     1       1.392   8.434  19.931  0.00  0.00    +0.000 A 
ATOM     25  C   UNL     1       0.998   9.773  19.989  0.00  0.00    +0.000 A 
ATOM     26  C   UNL     1       1.271  10.640  18.932  0.00  0.00    +0.000 A 
ATOM     27  C   UNL     1       0.823  12.070  18.995  0.00  0.00    +0.000 C 
ATOM     28  C   UNL     1       1.962  10.149  17.821  0.00  0.00    +0.000 A 
ATOM     29  C   UNL     1       2.359   8.801  17.765  0.00  0.00    +0.000 A 
ENDBRANCH  21  23
ENDBRANCH   8  19
TORSDOF 4
ENDMDL
MODEL 8
REMARK VINA RESULT:      -7.6      2.074      6.094
REMARK  Name = 
REMARK  7 active torsions:
REMARK  status: ('A' for Active; 'I' for Inactive)
REMARK    1  A    between atoms: C_1  and  O_2
REMARK    2  A    between atoms: O_2  and  C_3
REMARK    3  A    between atoms: C_7  and  C_8
REMARK    4  A    between atoms: C_13  and  C_14
REMARK    5  A    between atoms: C_15  and  C_16
REMARK    6  A    between atoms: N_18  and  C_19
REMARK    7  A    between atoms: C_22  and  C_23
REMARK                            x       y       z     vdW  Elec       q    Type
REMARK                         _______ _______ _______ _____ _____    ______ ____
ROOT
ATOM      1  C   UNL     1       2.306   4.482  19.867  0.00  0.00    +0.000 C 
ATOM      2  N   UNL     1       1.660   4.145  21.123  0.00  0.00    +0.000 N 
ATOM      3  C   UNL     1       1.764   2.895  21.647  0.00  0.00    +0.000 C 
ATOM      4  O   UNL     1       0.944   2.450  22.440  0.00  0.00    +0.000 OA
ATOM      5  N   UNL     1       2.875   2.203  21.271  0.00  0.00    +0.000 N 
ATOM      6  C   UNL     1       3.879   2.684  20.450  0.00  0.00    +0.000 C 
ATOM      7  C   UNL     1       5.081   1.775  20.356  0.00  0.00    +0.000 C 
ATOM      8  C   UNL     1       3.691   3.867  19.806  0.00  0.00    +0.000 C 
ATOM      9  H   UNL     1       0.777   4.591  21.344  0.00  0.00    +0.000 HD
ATOM     10  H   UNL     1       2.971   1.292  21.711  0.00  0.00    +0.000 HD
ENDROOT
BRANCH   1  15
ATOM     11  C   UNL     1       1.577   8.218  20.391  0.00  0.00    +0.000 A 
ATOM     12  C   UNL     1       1.853   8.707  19.112  0.00  0.00    +0.000 A 
ATOM     13  C   UNL     1       2.246   7.848  18.090  0.00  0.00    +0.000 A 
ATOM     14  C   UNL     1       2.389   6.487  18.348  0.00  0.00    +0.000 A 
ATOM     15  C   UNL     1       2.135   5.970  19.630  0.00  0.00    +0.000 A 
ATOM     16  C   UNL     1       1.700   6.849  20.644  0.00  0.00    +0.000 A 
BRANCH  11  18
ATOM     17  C   UNL     1      -0.106   9.101  21.829  0.00  0.00    +0.000 C 
ATOM     18  O   UNL     1       1.206   9.179  21.288  0.00  0.00    +0.000 OA
ENDBRANCH  11  18
ENDBRANCH   1  15
BRANCH   8  19
ATOM     19  C   UNL     1       4.728   4.286  18.800  0.00  0.00    +0.000 C 
ATOM     20  O   UNL     1       5.647   5.011  19.172  0.00  0.00    +0.000 OA
ATOM     21  N   UNL     1       4.570   3.860  17.499  0.00  0.00    +0.000 N 
ATOM     22  H   UNL     1       3.736   3.353  17.244  0.00  0.00    +0.000 HD
BRANCH  21  23
ATOM     23  C   UNL     1       5.432   4.157  16.411  0.00  0.00    +0.000 A 
ATOM     24  C   UNL     1       6.674   4.774  16.558  0.00  0.00    +0.000 A 
ATOM     25  C   UNL     1       7.463   5.089  15.448  0.00  0.00    +0.000 A 
ATOM     26  C   UNL     1       7.030   4.781  14.159  0.00  0.00    +0.000 A 
ATOM     27  C   UNL     1       7.873   5.144  12.973  0.00  0.00    +0.000 C 
ATOM     28  C   UNL     1       5.801   4.134  14.000  0.00  0.00    +0.000 A 
ATOM     29  C   UNL     1       5.011   3.816  15.118  0.00  0.00    +0.000 A 
ENDBRANCH  21  23
ENDBRANCH   8  19
TORSDOF 4
ENDMDL
MODEL 9
REMARK VINA RESULT:      -7.5      1.096      1.099
REMARK  Name = 
REMARK  7 active torsions:
REMARK  status: ('A' for Active; 'I' for Inactive)
REMARK    1  A    between atoms: C_1  and  O_2
REMARK    2  A    between atoms: O_2  and  C_3
REMARK    3  A    between atoms: C_7  and  C_8
REMARK    4  A    between atoms: C_13  and  C_14
REMARK    5  A    between atoms: C_15  and  C_16
REMARK    6  A    between atoms: N_18  and  C_19
REMARK    7  A    between atoms: C_22  and  C_23
REMARK                            x       y       z     vdW  Elec       q    Type
REMARK                         _______ _______ _______ _____ _____    ______ ____
ROOT
ATOM      1  C   UNL     1       4.194   3.806  18.332  0.00  0.00    +0.000 C 
ATOM      2  N   UNL     1       4.450   2.385  18.180  0.00  0.00    +0.000 N 
ATOM      3  C   UNL     1       3.776   1.470  18.927  0.00  0.00    +0.000 C 
ATOM      4  O   UNL     1       4.217   0.349  19.139  0.00  0.00    +0.000 OA
ATOM      5  N   UNL     1       2.553   1.877  19.367  0.00  0.00    +0.000 N 
ATOM      6  C   UNL     1       1.963   3.096  19.086  0.00  0.00    +0.000 C 
ATOM      7  C   UNL     1       0.528   3.202  19.542  0.00  0.00    +0.000 C 
ATOM      8  C   UNL     1       2.706   4.059  18.478  0.00  0.00    +0.000 C 
ATOM      9  H   UNL     1       5.393   2.088  17.954  0.00  0.00    +0.000 HD
ATOM     10  H   UNL     1       2.034   1.167  19.877  0.00  0.00    +0.000 HD
ENDROOT
BRANCH   1  15
ATOM     11  C   UNL     1       6.483   6.329  16.555  0.00  0.00    +0.000 A 
ATOM     12  C   UNL     1       6.411   5.851  15.245  0.00  0.00    +0.000 A 
ATOM     13  C   UNL     1       5.621   4.747  14.931  0.00  0.00    +0.000 A 
ATOM     14  C   UNL     1       4.912   4.097  15.938  0.00  0.00    +0.000 A 
ATOM     15  C   UNL     1       4.981   4.547  17.267  0.00  0.00    +0.000 A 
ATOM     16  C   UNL     1       5.754   5.689  17.562  0.00  0.00    +0.000 A 
BRANCH  11  18
ATOM     17  C   UNL     1       7.887   7.616  17.987  0.00  0.00    +0.000 C 
ATOM     18  O   UNL     1       7.299   7.414  16.709  0.00  0.00    +0.000 OA
ENDBRANCH  11  18
ENDBRANCH   1  15
BRANCH   8  19
ATOM     19  C   UNL     1       2.091   5.424  18.329  0.00  0.00    +0.000 C 
ATOM     20  O   UNL     1       1.251   5.597  17.449  0.00  0.00    +0.000 OA
ATOM     21  N   UNL     1       2.530   6.422  19.172  0.00  0.00    +0.000 N 
ATOM     22  H   UNL     1       3.294   6.234  19.801  0.00  0.00    +0.000 HD
BRANCH  21  23
ATOM     23  C   UNL     1       2.080   7.769  19.179  0.00  0.00    +0.000 A 
ATOM     24  C   UNL     1       1.410   8.352  20.254  0.00  0.00    +0.000 A 
ATOM     25  C   UNL     1       0.945   9.669  20.189  0.00  0.00    +0.000 A 
ATOM     26  C   UNL     1       1.152  10.440  19.046  0.00  0.00    +0.000 A 
ATOM     27  C   UNL     1       0.628  11.843  18.979  0.00  0.00    +0.000 C 
ATOM     28  C   UNL     1       1.851   9.878  17.974  0.00  0.00    +0.000 A 
ATOM     29  C   UNL     1       2.320   8.554  18.042  0.00  0.00    +0.000 A 
ENDBRANCH  21  23
ENDBRANCH   8  19
TORSDOF 4
ENDMDL
