MODEL 1
REMARK VINA RESULT:      -8.0      0.000      0.000
REMARK  Name = 
REMARK  5 active torsions:
REMARK  status: ('A' for Active; 'I' for Inactive)
REMARK    1  A    between atoms: C_2  and  C_18
REMARK    2  A    between atoms: N_3  and  C_4
REMARK    3  A    between atoms: C_4  and  C_5
REMARK    4  A    between atoms: C_5  and  N_6
REMARK    5  A    between atoms: C_9  and  C_10
REMARK                            x       y       z     vdW  Elec       q    Type
REMARK                         _______ _______ _______ _____ _____    ______ ____
ROOT
ATOM      1  C   UNL     1       1.266   2.881  20.042  0.00  0.00    +0.000 C 
ENDROOT
BRANCH   1   4
ATOM      2  O   UNL     1       2.406   5.078  21.445  0.00  0.00    +0.000 OA
ATOM      3  C   UNL     1       1.888   5.250  20.350  0.00  0.00    +0.000 C 
ATOM      4  N   UNL     1       1.305   4.260  19.592  0.00  0.00    +0.000 N 
ATOM      5  H   UNL     1       0.820   4.538  18.744  0.00  0.00    +0.000 HD
BRANCH   3   6
ATOM      6  C   UNL     1       1.873   6.643  19.722  0.00  0.00    +0.000 A 
ATOM      7  C   UNL     1       2.364   6.731  18.330  0.00  0.00    +0.000 A 
ATOM      8  C   UNL     1       2.411   7.946  17.779  0.00  0.00    +0.000 A 
ATOM      9  C   UNL     1       1.971   9.126  18.550  0.00  0.00    +0.000 A 
ATOM     10  O   UNL     1       2.038  10.250  18.067  0.00  0.00    +0.000 OA
ATOM     11  N   UNL     1       1.486   8.873  19.812  0.00  0.00    +0.000 N 
ATOM     12  N   UNL     1       1.438   7.646  20.427  0.00  0.00    +0.000 NA
ATOM     13  H   UNL     1       1.185   9.675  20.358  0.00  0.00    +0.000 HD
ENDBRANCH   3   6
ENDBRANCH   1   4
BRANCH   1  14
ATOM     14  C   UNL     1       2.230   1.971  19.267  0.00  0.00    +0.000 C 
BRANCH  14  15
ATOM     15  N   UNL     1       3.378   2.714  18.763  0.00  0.00    +0.000 N 
ATOM     16  C   UNL     1       4.457   2.955  19.573  0.00  0.00    +0.000 A 
ATOM     17  N   UNL     1       5.467   3.694  19.262  0.00  0.00    +0.000 NA
ATOM     18  C   UNL     1       5.457   4.301  18.029  0.00  0.00    +0.000 A 
ATOM     19  C   UNL     1       4.470   4.124  17.139  0.00  0.00    +0.000 A 
ATOM     20  C   UNL     1       3.315   3.288  17.512  0.00  0.00    +0.000 A 
ATOM     21  O   UNL     1       2.367   3.174  16.740  0.00  0.00    +0.000 OA
BRANCH  18  22
ATOM     22  C   UNL     1       6.616   5.233  17.731  0.00  0.00    +0.000 C 
ATOM     23  C   UNL     1       6.163   6.600  17.211  0.00  0.00    +0.000 C 
ATOM     24  C   UNL     1       7.377   7.496  17.407  0.00  0.00    +0.000 C 
ATOM     25  C   UNL     1       8.125   6.930  18.612  0.00  0.00    +0.000 C 
ATOM     26  C   UNL     1       7.474   5.588  18.948  0.00  0.00    +0.000 C 
ENDBRANCH  18  22
ENDBRANCH  14  15
ENDBRANCH   1  14
TORSDOF 5
ENDMDL
MODEL 2
REMARK VINA RESULT:      -7.8      2.512      5.533
REMARK  Name = 
REMARK  5 active torsions:
REMARK  status: ('A' for Active; 'I' for Inactive)
REMARK    1  A    between atoms: C_2  and  C_18
REMARK    2  A    between atoms: N_3  and  C_4
REMARK    3  A    between atoms: C_4  and  C_5
REMARK    4  A    between atoms: C_5  and  N_6
REMARK    5  A    between atoms: C_9  and  C_10
REMARK                            x       y       z     vdW  Elec       q    Type
REMARK                         _______ _______ _______ _____ _____    ______ ____
ROOT
ATOM      1  C   UNL     1       3.758   2.134  18.995  0.00  0.00    +0.000 C 
ENDROOT
BRANCH   1   4
ATOM      2  O   UNL     1       5.681   4.217  19.222  0.00  0.00    +0.000 OA
ATOM      3  C   UNL     1       5.390   3.768  18.123  0.00  0.00    +0.000 C 
ATOM      4  N   UNL     1       4.471   2.767  17.901  0.00  0.00    +0.000 N 
ATOM      5  H   UNL     1       4.239   2.544  16.938  0.00  0.00    +0.000 HD
BRANCH   3   6
ATOM      6  C   UNL     1       6.076   4.310  16.869  0.00  0.00    +0.000 A 
ATOM      7  C   UNL     1       5.740   3.627  15.601  0.00  0.00    +0.000 A 
ATOM      8  C   UNL     1       6.368   4.047  14.501  0.00  0.00    +0.000 A 
ATOM      9  C   UNL     1       7.339   5.157  14.581  0.00  0.00    +0.000 A 
ATOM     10  O   UNL     1       7.945   5.531  13.584  0.00  0.00    +0.000 OA
ATOM     11  N   UNL     1       7.500   5.726  15.822  0.00  0.00    +0.000 N 
ATOM     12  N   UNL     1       6.892   5.315  16.984  0.00  0.00    +0.000 NA
ATOM     13  H   UNL     1       8.169   6.487  15.896  0.00  0.00    +0.000 HD
ENDBRANCH   3   6
ENDBRANCH   1   4
BRANCH   1  14
ATOM     14  C   UNL     1       2.271   2.515  19.040  0.00  0.00    +0.000 C 
BRANCH  14  15
ATOM     15  N   UNL     1       2.092   3.953  19.193  0.00  0.00    +0.000 N 
ATOM     16  C   UNL     1       2.089   4.771  18.093  0.00  0.00    +0.000 A 
ATOM     17  N   UNL     1       2.052   6.060  18.128  0.00  0.00    +0.000 NA
ATOM     18  C   UNL     1       2.029   6.664  19.364  0.00  0.00    +0.000 A 
ATOM     19  C   UNL     1       2.006   5.971  20.511  0.00  0.00    +0.000 A 
ATOM     20  C   UNL     1       2.062   4.500  20.457  0.00  0.00    +0.000 A 
ATOM     21  O   UNL     1       2.118   3.851  21.498  0.00  0.00    +0.000 OA
BRANCH  18  22
ATOM     22  C   UNL     1       2.075   8.180  19.369  0.00  0.00    +0.000 C 
ATOM     23  C   UNL     1       1.767   8.789  17.999  0.00  0.00    +0.000 C 
ATOM     24  C   UNL     1       1.419  10.239  18.304  0.00  0.00    +0.000 C 
ATOM     25  C   UNL     1       0.820  10.239  19.708  0.00  0.00    +0.000 C 
ATOM     26  C   UNL     1       1.044   8.843  20.287  0.00  0.00    +0.000 C 
ENDBRANCH  18  22
ENDBRANCH  14  15
ENDBRANCH   1  14
TORSDOF 5
ENDMDL
MODEL 3
REMARK VINA RESULT:      -7.8      0.783      1.005
REMARK  Name = 
REMARK  5 active torsions:
REMARK  status: ('A' for Active; 'I' for Inactive)
REMARK    1  A    between atoms: C_2  and  C_18
REMARK    2  A    between atoms: N_3  and  C_4
REMARK    3  A    between atoms: C_4  and  C_5
REMARK    4  A    between atoms: C_5  and  N_6
REMARK    5  A    between atoms: C_9  and  C_10
REMARK                            x       y       z     vdW  Elec       q    Type
REMARK                         _______ _______ _______ _____ _____    ______ ____
ROOT
ATOM      1  C   UNL     1       1.210   2.892  19.992  0.00  0.00    +0.000 C 
ENDROOT
BRANCH   1   4
ATOM      2  O   UNL     1       2.358   5.045  21.455  0.00  0.00    +0.000 OA
ATOM      3  C   UNL     1       1.878   5.242  20.347  0.00  0.00    +0.000 C 
ATOM      4  N   UNL     1       1.295   4.275  19.560  0.00  0.00    +0.000 N 
ATOM      5  H   UNL     1       0.843   4.575  18.702  0.00  0.00    +0.000 HD
BRANCH   3   6
ATOM      6  C   UNL     1       1.915   6.643  19.736  0.00  0.00    +0.000 A 
ATOM      7  C   UNL     1       1.390   7.733  20.586  0.00  0.00    +0.000 A 
ATOM      8  C   UNL     1       1.362   8.957  20.054  0.00  0.00    +0.000 A 
ATOM      9  C   UNL     1       1.854   9.178  18.680  0.00  0.00    +0.000 A 
ATOM     10  O   UNL     1       1.805  10.290  18.169  0.00  0.00    +0.000 OA
ATOM     11  N   UNL     1       2.365   8.074  18.039  0.00  0.00    +0.000 N 
ATOM     12  N   UNL     1       2.395   6.793  18.538  0.00  0.00    +0.000 NA
ATOM     13  H   UNL     1       2.701   8.207  17.090  0.00  0.00    +0.000 HD
ENDBRANCH   3   6
ENDBRANCH   1   4
BRANCH   1  14
ATOM     14  C   UNL     1       2.193   1.973  19.252  0.00  0.00    +0.000 C 
BRANCH  14  15
ATOM     15  N   UNL     1       3.342   2.715  18.747  0.00  0.00    +0.000 N 
ATOM     16  C   UNL     1       4.423   2.950  19.556  0.00  0.00    +0.000 A 
ATOM     17  N   UNL     1       5.434   3.688  19.245  0.00  0.00    +0.000 NA
ATOM     18  C   UNL     1       5.423   4.298  18.012  0.00  0.00    +0.000 A 
ATOM     19  C   UNL     1       4.434   4.125  17.124  0.00  0.00    +0.000 A 
ATOM     20  C   UNL     1       3.278   3.291  17.498  0.00  0.00    +0.000 A 
ATOM     21  O   UNL     1       2.328   3.181  16.728  0.00  0.00    +0.000 OA
BRANCH  18  22
ATOM     22  C   UNL     1       6.584   5.227  17.714  0.00  0.00    +0.000 C 
ATOM     23  C   UNL     1       6.133   6.597  17.202  0.00  0.00    +0.000 C 
ATOM     24  C   UNL     1       7.351   7.489  17.397  0.00  0.00    +0.000 C 
ATOM     25  C   UNL     1       8.101   6.915  18.597  0.00  0.00    +0.000 C 
ATOM     26  C   UNL     1       7.448   5.575  18.929  0.00  0.00    +0.000 C 
ENDBRANCH  18  22
ENDBRANCH  14  15
ENDBRANCH   1  14
TORSDOF 5
ENDMDL
MODEL 4
REMARK VINA RESULT:      -7.7      4.920      7.435
REMARK  Name = 
REMARK  5 active torsions:
REMARK  status: ('A' for Active; 'I' for Inactive)
REMARK    1  A    between atoms: C_2  and  C_18
REMARK    2  A    between atoms: N_3  and  C_4
REMARK    3  A    between atoms: C_4  and  C_5
REMARK    4  A    between atoms: C_5  and  N_6
REMARK    5  A    between atoms: C_9  and  C_10
REMARK                            x       y       z     vdW  Elec       q    Type
REMARK                         _______ _______ _______ _____ _____    ______ ____
ROOT
ATOM      1  C   UNL     1       7.925   7.966  18.304  0.00  0.00    +0.000 C 
ENDROOT
BRANCH   1   4
ATOM      2  O   UNL     1       9.152   9.926  19.961  0.00  0.00    +0.000 OA
ATOM      3  C   UNL     1       9.046  10.118  18.758  0.00  0.00    +0.000 C 
ATOM      4  N   UNL     1       8.467   9.241  17.870  0.00  0.00    +0.000 N 
ATOM      5  H   UNL     1       8.347   9.550  16.910  0.00  0.00    +0.000 HD
BRANCH   3   6
ATOM      6  C   UNL     1       9.595  11.403  18.138  0.00  0.00    +0.000 A 
ATOM      7  C   UNL     1      11.068  11.498  18.042  0.00  0.00    +0.000 A 
ATOM      8  C   UNL     1      11.572  12.633  17.554  0.00  0.00    +0.000 A 
ATOM      9  C   UNL     1      10.670  13.719  17.125  0.00  0.00    +0.000 A 
ATOM     10  O   UNL     1      11.120  14.778  16.704  0.00  0.00    +0.000 OA
ATOM     11  N   UNL     1       9.323  13.457  17.223  0.00  0.00    +0.000 N 
ATOM     12  N   UNL     1       8.759  12.315  17.737  0.00  0.00    +0.000 NA
ATOM     13  H   UNL     1       8.689  14.197  16.939  0.00  0.00    +0.000 HD
ENDBRANCH   3   6
ENDBRANCH   1   4
BRANCH   1  14
ATOM     14  C   UNL     1       7.545   7.047  17.134  0.00  0.00    +0.000 C 
BRANCH  14  15
ATOM     15  N   UNL     1       6.301   6.336  17.396  0.00  0.00    +0.000 N 
ATOM     16  C   UNL     1       5.094   6.955  17.196  0.00  0.00    +0.000 A 
ATOM     17  N   UNL     1       3.945   6.456  17.502  0.00  0.00    +0.000 NA
ATOM     18  C   UNL     1       3.926   5.213  18.090  0.00  0.00    +0.000 A 
ATOM     19  C   UNL     1       5.038   4.498  18.316  0.00  0.00    +0.000 A 
ATOM     20  C   UNL     1       6.345   5.086  17.973  0.00  0.00    +0.000 A 
ATOM     21  O   UNL     1       7.378   4.478  18.241  0.00  0.00    +0.000 OA
BRANCH  18  22
ATOM     22  C   UNL     1       2.567   4.694  18.518  0.00  0.00    +0.000 C 
ATOM     23  C   UNL     1       2.540   3.174  18.701  0.00  0.00    +0.000 C 
ATOM     24  C   UNL     1       1.294   2.921  19.536  0.00  0.00    +0.000 C 
ATOM     25  C   UNL     1       1.100   4.171  20.390  0.00  0.00    +0.000 C 
ATOM     26  C   UNL     1       2.085   5.219  19.873  0.00  0.00    +0.000 C 
ENDBRANCH  18  22
ENDBRANCH  14  15
ENDBRANCH   1  14
TORSDOF 5
ENDMDL
MODEL 5
REMARK VINA RESULT:      -7.6      3.042      6.268
REMARK  Name = 
REMARK  5 active torsions:
REMARK  status: ('A' for Active; 'I' for Inactive)
REMARK    1  A    between atoms: C_2  and  C_18
REMARK    2  A    between atoms: N_3  and  C_4
REMARK    3  A    between atoms: C_4  and  C_5
REMARK    4  A    between atoms: C_5  and  N_6
REMARK    5  A    between atoms: C_9  and  C_10
REMARK                            x       y       z     vdW  Elec       q    Type
REMARK                         _______ _______ _______ _____ _____    ______ ____
ROOT
ATOM      1  C   UNL     1       4.606   3.284  18.972  0.00  0.00    +0.000 C 
ENDROOT
BRANCH   1   4
ATOM      2  O   UNL     1       6.306   5.423  18.179  0.00  0.00    +0.000 OA
ATOM      3  C   UNL     1       5.935   4.596  17.358  0.00  0.00    +0.000 C 
ATOM      4  N   UNL     1       5.111   3.529  17.634  0.00  0.00    +0.000 N 
ATOM      5  H   UNL     1       4.791   2.965  16.852  0.00  0.00    +0.000 HD
BRANCH   3   6
ATOM      6  C   UNL     1       6.404   4.696  15.906  0.00  0.00    +0.000 A 
ATOM      7  C   UNL     1       5.670   3.863  14.930  0.00  0.00    +0.000 A 
ATOM      8  C   UNL     1       6.096   3.893  13.665  0.00  0.00    +0.000 A 
ATOM      9  C   UNL     1       7.244   4.743  13.291  0.00  0.00    +0.000 A 
ATOM     10  O   UNL     1       7.664   4.756  12.140  0.00  0.00    +0.000 OA
ATOM     11  N   UNL     1       7.784   5.504  14.301  0.00  0.00    +0.000 N 
ATOM     12  N   UNL     1       7.393   5.490  15.619  0.00  0.00    +0.000 NA
ATOM     13  H   UNL     1       8.578   6.089  14.062  0.00  0.00    +0.000 HD
ENDBRANCH   3   6
ENDBRANCH   1   4
BRANCH   1  14
ATOM     14  C   UNL     1       3.072   3.260  19.039  0.00  0.00    +0.000 C 
BRANCH  14  15
ATOM     15  N   UNL     1       2.534   4.557  19.427  0.00  0.00    +0.000 N 
ATOM     16  C   UNL     1       2.570   5.611  18.551  0.00  0.00    +0.000 A 
ATOM     17  N   UNL     1       2.226   6.822  18.833  0.00  0.00    +0.000 NA
ATOM     18  C   UNL     1       1.802   7.081  20.116  0.00  0.00    +0.000 A 
ATOM     19  C   UNL     1       1.700   6.130  21.055  0.00  0.00    +0.000 A 
ATOM     20  C   UNL     1       2.110   4.754  20.722  0.00  0.00    +0.000 A 
ATOM     21  O   UNL     1       2.095   3.884  21.590  0.00  0.00    +0.000 OA
BRANCH  18  22
ATOM     22  C   UNL     1       1.489   8.530  20.438  0.00  0.00    +0.000 C 
ATOM     23  C   UNL     1       1.163   9.359  19.193  0.00  0.00    +0.000 C 
ATOM     24  C   UNL     1       0.460  10.593  19.739  0.00  0.00    +0.000 C 
ATOM     25  C   UNL     1      -0.239  10.144  21.020  0.00  0.00    +0.000 C 
ATOM     26  C   UNL     1       0.258   8.731  21.325  0.00  0.00    +0.000 C 
ENDBRANCH  18  22
ENDBRANCH  14  15
ENDBRANCH   1  14
TORSDOF 5
ENDMDL
MODEL 6
REMARK VINA RESULT:      -7.6      4.967      7.443
REMARK  Name = 
REMARK  5 active torsions:
REMARK  status: ('A' for Active; 'I' for Inactive)
REMARK    1  A    between atoms: C_2  and  C_18
REMARK    2  A    between atoms: N_3  and  C_4
REMARK    3  A    between atoms: C_4  and  C_5
REMARK    4  A    between atoms: C_5  and  N_6
REMARK    5  A    between atoms: C_9  and  C_10
REMARK                            x       y       z     vdW  Elec       q    Type
REMARK                         _______ _______ _______ _____ _____    ______ ____
ROOT
ATOM      1  C   UNL     1       8.152   8.101  18.339  0.00  0.00    +0.000 C 
ENDROOT
BRANCH   1   4
ATOM      2  O   UNL     1       9.199  10.154  20.007  0.00  0.00    +0.000 OA
ATOM      3  C   UNL     1       9.156  10.310  18.794  0.00  0.00    +0.000 C 
ATOM      4  N   UNL     1       8.666   9.385  17.900  0.00  0.00    +0.000 N 
ATOM      5  H   UNL     1       8.590   9.663  16.927  0.00  0.00    +0.000 HD
BRANCH   3   6
ATOM      6  C   UNL     1       9.688  11.599  18.170  0.00  0.00    +0.000 A 
ATOM      7  C   UNL     1      11.145  11.646  17.923  0.00  0.00    +0.000 A 
ATOM      8  C   UNL     1      11.640  12.782  17.428  0.00  0.00    +0.000 A 
ATOM      9  C   UNL     1      10.741  13.917  17.139  0.00  0.00    +0.000 A 
ATOM     10  O   UNL     1      11.187  14.977  16.714  0.00  0.00    +0.000 OA
ATOM     11  N   UNL     1       9.403  13.699  17.369  0.00  0.00    +0.000 N 
ATOM     12  N   UNL     1       8.851  12.556  17.895  0.00  0.00    +0.000 NA
ATOM     13  H   UNL     1       8.772  14.472  17.182  0.00  0.00    +0.000 HD
ENDBRANCH   3   6
ENDBRANCH   1   4
BRANCH   1  14
ATOM     14  C   UNL     1       7.544   7.276  17.195  0.00  0.00    +0.000 C 
BRANCH  14  15
ATOM     15  N   UNL     1       6.353   6.557  17.630  0.00  0.00    +0.000 N 
ATOM     16  C   UNL     1       6.334   5.920  18.843  0.00  0.00    +0.000 A 
ATOM     17  N   UNL     1       5.378   5.167  19.270  0.00  0.00    +0.000 NA
ATOM     18  C   UNL     1       4.299   4.974  18.439  0.00  0.00    +0.000 A 
ATOM     19  C   UNL     1       4.191   5.562  17.239  0.00  0.00    +0.000 A 
ATOM     20  C   UNL     1       5.297   6.409  16.759  0.00  0.00    +0.000 A 
ATOM     21  O   UNL     1       5.250   6.896  15.632  0.00  0.00    +0.000 OA
BRANCH  18  22
ATOM     22  C   UNL     1       3.234   4.014  18.934  0.00  0.00    +0.000 C 
ATOM     23  C   UNL     1       1.898   4.180  18.206  0.00  0.00    +0.000 C 
ATOM     24  C   UNL     1       1.149   2.889  18.502  0.00  0.00    +0.000 C 
ATOM     25  C   UNL     1       2.219   1.815  18.680  0.00  0.00    +0.000 C 
ATOM     26  C   UNL     1       3.566   2.535  18.724  0.00  0.00    +0.000 C 
ENDBRANCH  18  22
ENDBRANCH  14  15
ENDBRANCH   1  14
TORSDOF 5
ENDMDL
MODEL 7
REMARK VINA RESULT:      -7.6      2.489      5.480
REMARK  Name = 
REMARK  5 active torsions:
REMARK  status: ('A' for Active; 'I' for Inactive)
REMARK    1  A    between atoms: C_2  and  C_18
REMARK    2  A    between atoms: N_3  and  C_4
REMARK    3  A    between atoms: C_4  and  C_5
REMARK    4  A    between atoms: C_5  and  N_6
REMARK    5  A    between atoms: C_9  and  C_10
REMARK                            x       y       z     vdW  Elec       q    Type
REMARK                         _______ _______ _______ _____ _____    ______ ____
ROOT
ATOM      1  C   UNL     1       3.951   2.292  19.282  0.00  0.00    +0.000 C 
ENDROOT
BRANCH   1   4
ATOM      2  O   UNL     1       5.943   4.322  19.269  0.00  0.00    +0.000 OA
ATOM      3  C   UNL     1       5.538   3.854  18.215  0.00  0.00    +0.000 C 
ATOM      4  N   UNL     1       4.576   2.875  18.109  0.00  0.00    +0.000 N 
ATOM      5  H   UNL     1       4.248   2.634  17.178  0.00  0.00    +0.000 HD
BRANCH   3   6
ATOM      6  C   UNL     1       6.118   4.342  16.888  0.00  0.00    +0.000 A 
ATOM      7  C   UNL     1       5.550   3.727  15.668  0.00  0.00    +0.000 A 
ATOM      8  C   UNL     1       6.079   4.098  14.500  0.00  0.00    +0.000 A 
ATOM      9  C   UNL     1       7.171   5.090  14.464  0.00  0.00    +0.000 A 
ATOM     10  O   UNL     1       7.685   5.416  13.400  0.00  0.00    +0.000 OA
ATOM     11  N   UNL     1       7.550   5.613  15.678  0.00  0.00    +0.000 N 
ATOM     12  N   UNL     1       7.050   5.248  16.905  0.00  0.00    +0.000 NA
ATOM     13  H   UNL     1       8.305   6.292  15.671  0.00  0.00    +0.000 HD
ENDBRANCH   3   6
ENDBRANCH   1   4
BRANCH   1  14
ATOM     14  C   UNL     1       2.543   2.844  19.547  0.00  0.00    +0.000 C 
BRANCH  14  15
ATOM     15  N   UNL     1       2.489   4.287  19.349  0.00  0.00    +0.000 N 
ATOM     16  C   UNL     1       2.720   5.139  20.398  0.00  0.00    +0.000 A 
ATOM     17  N   UNL     1       2.586   6.421  20.355  0.00  0.00    +0.000 NA
ATOM     18  C   UNL     1       2.165   6.978  19.171  0.00  0.00    +0.000 A 
ATOM     19  C   UNL     1       1.930   6.253  18.068  0.00  0.00    +0.000 A 
ATOM     20  C   UNL     1       2.073   4.788  18.135  0.00  0.00    +0.000 A 
ATOM     21  O   UNL     1       1.790   4.100  17.158  0.00  0.00    +0.000 OA
BRANCH  18  22
ATOM     22  C   UNL     1       1.934   8.477  19.181  0.00  0.00    +0.000 C 
ATOM     23  C   UNL     1       1.204   8.976  17.931  0.00  0.00    +0.000 C 
ATOM     24  C   UNL     1       0.681  10.349  18.325  0.00  0.00    +0.000 C 
ATOM     25  C   UNL     1       0.441  10.289  19.832  0.00  0.00    +0.000 C 
ATOM     26  C   UNL     1       1.047   8.976  20.325  0.00  0.00    +0.000 C 
ENDBRANCH  18  22
ENDBRANCH  14  15
ENDBRANCH   1  14
TORSDOF 5
ENDMDL
MODEL 8
REMARK VINA RESULT:      -7.4      3.263      7.565
REMARK  Name = 
REMARK  5 active torsions:
REMARK  status: ('A' for Active; 'I' for Inactive)
REMARK    1  A    between atoms: C_2  and  C_18
REMARK    2  A    between atoms: N_3  and  C_4
REMARK    3  A    between atoms: C_4  and  C_5
REMARK    4  A    between atoms: C_5  and  N_6
REMARK    5  A    between atoms: C_9  and  C_10
REMARK                            x       y       z     vdW  Elec       q    Type
REMARK                         _______ _______ _______ _____ _____    ______ ____
ROOT
ATOM      1  C   UNL     1       1.757   6.947  20.575  0.00  0.00    +0.000 C 
ENDROOT
BRANCH   1   4
ATOM      2  O   UNL     1       2.800   4.327  20.207  0.00  0.00    +0.000 OA
ATOM      3  C   UNL     1       3.376   5.290  19.722  0.00  0.00    +0.000 C 
ATOM      4  N   UNL     1       2.961   6.597  19.844  0.00  0.00    +0.000 N 
ATOM      5  H   UNL     1       3.572   7.323  19.482  0.00  0.00    +0.000 HD
BRANCH   3   6
ATOM      6  C   UNL     1       4.646   5.086  18.896  0.00  0.00    +0.000 A 
ATOM      7  C   UNL     1       4.774   5.928  17.687  0.00  0.00    +0.000 A 
ATOM      8  C   UNL     1       5.848   5.730  16.921  0.00  0.00    +0.000 A 
ATOM      9  C   UNL     1       6.851   4.716  17.302  0.00  0.00    +0.000 A 
ATOM     10  O   UNL     1       7.827   4.503  16.591  0.00  0.00    +0.000 OA
ATOM     11  N   UNL     1       6.620   4.055  18.484  0.00  0.00    +0.000 N 
ATOM     12  N   UNL     1       5.520   4.210  19.294  0.00  0.00    +0.000 NA
ATOM     13  H   UNL     1       7.297   3.349  18.757  0.00  0.00    +0.000 HD
ENDBRANCH   3   6
ENDBRANCH   1   4
BRANCH   1  14
ATOM     14  C   UNL     1       1.707   8.430  20.972  0.00  0.00    +0.000 C 
BRANCH  14  15
ATOM     15  N   UNL     1       0.878   9.200  20.054  0.00  0.00    +0.000 N 
ATOM     16  C   UNL     1      -0.337   9.688  20.462  0.00  0.00    +0.000 A 
ATOM     17  N   UNL     1      -1.192  10.280  19.699  0.00  0.00    +0.000 NA
ATOM     18  C   UNL     1      -0.869  10.423  18.370  0.00  0.00    +0.000 A 
ATOM     19  C   UNL     1       0.299  10.010  17.857  0.00  0.00    +0.000 A 
ATOM     20  C   UNL     1       1.260   9.322  18.737  0.00  0.00    +0.000 A 
ATOM     21  O   UNL     1       2.302   8.869  18.269  0.00  0.00    +0.000 OA
BRANCH  18  22
ATOM     22  C   UNL     1      -1.932  11.045  17.485  0.00  0.00    +0.000 C 
ATOM     23  C   UNL     1      -2.398  10.108  16.368  0.00  0.00    +0.000 C 
ATOM     24  C   UNL     1      -3.721  10.704  15.908  0.00  0.00    +0.000 C 
ATOM     25  C   UNL     1      -4.316  11.397  17.131  0.00  0.00    +0.000 C 
ATOM     26  C   UNL     1      -3.233  11.400  18.209  0.00  0.00    +0.000 C 
ENDBRANCH  18  22
ENDBRANCH  14  15
ENDBRANCH   1  14
TORSDOF 5
ENDMDL
MODEL 9
REMARK VINA RESULT:      -7.4      5.157      7.638
REMARK  Name = 
REMARK  5 active torsions:
REMARK  status: ('A' for Active; 'I' for Inactive)
REMARK    1  A    between atoms: C_2  and  C_18
REMARK    2  A    between atoms: N_3  and  C_4
REMARK    3  A    between atoms: C_4  and  C_5
REMARK    4  A    between atoms: C_5  and  N_6
REMARK    5  A    between atoms: C_9  and  C_10
REMARK                            x       y       z     vdW  Elec       q    Type
REMARK                         _______ _______ _______ _____ _____    ______ ____
ROOT
ATOM      1  C   UNL     1       7.365   8.636  18.046  0.00  0.00    +0.000 C 
ENDROOT
BRANCH   1   4
ATOM      2  O   UNL     1       9.282   9.967  19.673  0.00  0.00    +0.000 OA
ATOM      3  C   UNL     1       9.031  10.387  18.552  0.00  0.00    +0.000 C 
ATOM      4  N   UNL     1       8.120   9.823  17.688  0.00  0.00    +0.000 N 
ATOM      5  H   UNL     1       7.924  10.315  16.822  0.00  0.00    +0.000 HD
BRANCH   3   6
ATOM      6  C   UNL     1       9.765  11.614  18.014  0.00  0.00    +0.000 A 
ATOM      7  C   UNL     1      11.242  11.553  18.051  0.00  0.00    +0.000 A 
ATOM      8  C   UNL     1      11.905  12.635  17.636  0.00  0.00    +0.000 A 
ATOM      9  C   UNL     1      11.163  13.817  17.154  0.00  0.00    +0.000 A 
ATOM     10  O   UNL     1      11.758  14.828  16.799  0.00  0.00    +0.000 OA
ATOM     11  N   UNL     1       9.793  13.698  17.127  0.00  0.00    +0.000 N 
ATOM     12  N   UNL     1       9.068  12.615  17.562  0.00  0.00    +0.000 NA
ATOM     13  H   UNL     1       9.268  14.505  16.804  0.00  0.00    +0.000 HD
ENDBRANCH   3   6
ENDBRANCH   1   4
BRANCH   1  14
ATOM     14  C   UNL     1       7.856   7.374  17.323  0.00  0.00    +0.000 C 
BRANCH  14  15
ATOM     15  N   UNL     1       6.802   6.371  17.226  0.00  0.00    +0.000 N 
ATOM     16  C   UNL     1       5.616   6.672  16.608  0.00  0.00    +0.000 A 
ATOM     17  N   UNL     1       4.584   5.899  16.569  0.00  0.00    +0.000 NA
ATOM     18  C   UNL     1       4.673   4.684  17.207  0.00  0.00    +0.000 A 
ATOM     19  C   UNL     1       5.787   4.267  17.826  0.00  0.00    +0.000 A 
ATOM     20  C   UNL     1       6.953   5.166  17.875  0.00  0.00    +0.000 A 
ATOM     21  O   UNL     1       7.957   4.833  18.501  0.00  0.00    +0.000 OA
BRANCH  18  22
ATOM     22  C   UNL     1       3.414   3.838  17.216  0.00  0.00    +0.000 C 
ATOM     23  C   UNL     1       3.566   2.553  18.035  0.00  0.00    +0.000 C 
ATOM     24  C   UNL     1       2.136   2.103  18.294  0.00  0.00    +0.000 C 
ATOM     25  C   UNL     1       1.295   3.377  18.326  0.00  0.00    +0.000 C 
ATOM     26  C   UNL     1       2.198   4.516  17.853  0.00  0.00    +0.000 C 
ENDBRANCH  18  22
ENDBRANCH  14  15
ENDBRANCH   1  14
TORSDOF 5
ENDMDL
