MODEL 1
REMARK VINA RESULT:      -8.8      0.000      0.000
REMARK  Name = 
REMARK  5 active torsions:
REMARK  status: ('A' for Active; 'I' for Inactive)
REMARK    1  A    between atoms: C_2  and  C_3
REMARK    2  A    between atoms: C_3  and  O_4
REMARK    3  A    between atoms: O_4  and  C_5
REMARK    4  A    between atoms: N_18  and  C_19
REMARK    5  A    between atoms: C_19  and  C_20
REMARK                            x       y       z     vdW  Elec       q    Type
REMARK                         _______ _______ _______ _____ _____    ______ ____
ROOT
ATOM      1  O   UNL     1       8.421   7.124  19.181  0.00  0.00    +0.000 OA
ATOM      2  C   UNL     1       7.839   7.391  18.125  0.00  0.00    +0.000 C 
ATOM      3  N   UNL     1       6.919   6.515  17.554  0.00  0.00    +0.000 N 
ATOM      4  C   UNL     1       6.167   6.768  16.323  0.00  0.00    +0.000 C 
ATOM      5  C   UNL     1       5.677   5.472  15.626  0.00  0.00    +0.000 C 
ATOM      6  N   UNL     1       5.068   4.453  16.509  0.00  0.00    +0.000 NA
ATOM      7  C   UNL     1       6.011   4.197  17.619  0.00  0.00    +0.000 C 
ATOM      8  C   UNL     1       6.400   5.449  18.415  0.00  0.00    +0.000 C 
ENDROOT
BRANCH   2   9
ATOM      9  C   UNL     1       8.096   8.734  17.445  0.00  0.00    +0.000 C 
BRANCH   9  10
ATOM     10  O   UNL     1       7.794   9.812  18.317  0.00  0.00    +0.000 OA
BRANCH  10  11
ATOM     11  C   UNL     1       8.852  10.584  18.717  0.00  0.00    +0.000 A 
ATOM     12  C   UNL     1       9.550  10.455  19.919  0.00  0.00    +0.000 A 
ATOM     13  C   UNL     1      10.591  11.337  20.227  0.00  0.00    +0.000 A 
ATOM     14  C   UNL     1      10.953  12.361  19.341  0.00  0.00    +0.000 A 
ATOM     15  C   UNL     1      11.984  13.265  19.647  0.00  0.00    +0.000 A 
ATOM     16  C   UNL     1      12.329  14.280  18.753  0.00  0.00    +0.000 A 
ATOM     17  C   UNL     1      11.656  14.401  17.544  0.00  0.00    +0.000 A 
ATOM     18  C   UNL     1      10.632  13.503  17.222  0.00  0.00    +0.000 A 
ATOM     19  C   UNL     1      10.263  12.485  18.114  0.00  0.00    +0.000 A 
ATOM     20  C   UNL     1       9.221  11.590  17.819  0.00  0.00    +0.000 A 
ENDBRANCH  10  11
ENDBRANCH   9  10
ENDBRANCH   2   9
BRANCH   6  21
ATOM     21  C   UNL     1       3.719   4.862  16.953  0.00  0.00    +0.000 C 
BRANCH  21  22
ATOM     22  C   UNL     1       3.042   3.763  17.726  0.00  0.00    +0.000 A 
ATOM     23  C   UNL     1       2.760   2.487  17.272  0.00  0.00    +0.000 A 
ATOM     24  N   UNL     1       2.237   1.763  18.308  0.00  0.00    +0.000 N 
ATOM     25  C   UNL     1       2.162   2.538  19.441  0.00  0.00    +0.000 A 
ATOM     26  C   UNL     1       1.752   2.201  20.738  0.00  0.00    +0.000 A 
ATOM     27  C   UNL     1       1.762   3.210  21.705  0.00  0.00    +0.000 A 
ATOM     28  C   UNL     1       2.140   4.509  21.378  0.00  0.00    +0.000 A 
ATOM     29  C   UNL     1       2.557   4.826  20.079  0.00  0.00    +0.000 A 
ATOM     30  C   UNL     1       2.596   3.818  19.091  0.00  0.00    +0.000 A 
ATOM     31  H   UNL     1       1.963   0.792  18.261  0.00  0.00    +0.000 HD
ENDBRANCH  21  22
ENDBRANCH   6  21
TORSDOF 5
ENDMDL
MODEL 2
REMARK VINA RESULT:      -8.4      5.511      8.662
REMARK  Name = 
REMARK  5 active torsions:
REMARK  status: ('A' for Active; 'I' for Inactive)
REMARK    1  A    between atoms: C_2  and  C_3
REMARK    2  A    between atoms: C_3  and  O_4
REMARK    3  A    between atoms: O_4  and  C_5
REMARK    4  A    between atoms: N_18  and  C_19
REMARK    5  A    between atoms: C_19  and  C_20
REMARK                            x       y       z     vdW  Elec       q    Type
REMARK                         _______ _______ _______ _____ _____    ______ ____
ROOT
ATOM      1  O   UNL     1       1.067   4.778  20.892  0.00  0.00    +0.000 OA
ATOM      2  C   UNL     1       1.966   5.508  20.465  0.00  0.00    +0.000 C 
ATOM      3  N   UNL     1       2.960   5.026  19.617  0.00  0.00    +0.000 N 
ATOM      4  C   UNL     1       4.043   5.830  19.044  0.00  0.00    +0.000 C 
ATOM      5  C   UNL     1       5.280   4.990  18.633  0.00  0.00    +0.000 C 
ATOM      6  N   UNL     1       4.995   3.741  17.891  0.00  0.00    +0.000 NA
ATOM      7  C   UNL     1       4.001   2.972  18.669  0.00  0.00    +0.000 C 
ATOM      8  C   UNL     1       2.705   3.738  18.967  0.00  0.00    +0.000 C 
ENDROOT
BRANCH   2   9
ATOM      9  C   UNL     1       1.970   6.990  20.835  0.00  0.00    +0.000 C 
BRANCH   9  10
ATOM     10  O   UNL     1       1.721   7.800  19.698  0.00  0.00    +0.000 OA
BRANCH  10  11
ATOM     11  C   UNL     1       0.981   8.933  19.909  0.00  0.00    +0.000 A 
ATOM     12  C   UNL     1       0.744   9.940  18.973  0.00  0.00    +0.000 A 
ATOM     13  C   UNL     1       0.000  11.071  19.329  0.00  0.00    +0.000 A 
ATOM     14  C   UNL     1      -0.519  11.214  20.623  0.00  0.00    +0.000 A 
ATOM     15  C   UNL     1      -1.249  12.353  20.998  0.00  0.00    +0.000 A 
ATOM     16  C   UNL     1      -1.757  12.479  22.293  0.00  0.00    +0.000 A 
ATOM     17  C   UNL     1      -1.546  11.470  23.224  0.00  0.00    +0.000 A 
ATOM     18  C   UNL     1      -0.826  10.326  22.862  0.00  0.00    +0.000 A 
ATOM     19  C   UNL     1      -0.297  10.188  21.569  0.00  0.00    +0.000 A 
ATOM     20  C   UNL     1       0.449   9.058  21.196  0.00  0.00    +0.000 A 
ENDBRANCH  10  11
ENDBRANCH   9  10
ENDBRANCH   2   9
BRANCH   6  21
ATOM     21  C   UNL     1       4.580   4.023  16.502  0.00  0.00    +0.000 C 
BRANCH  21  22
ATOM     22  C   UNL     1       5.714   4.596  15.697  0.00  0.00    +0.000 A 
ATOM     23  C   UNL     1       6.711   5.439  16.159  0.00  0.00    +0.000 A 
ATOM     24  N   UNL     1       7.606   5.648  15.146  0.00  0.00    +0.000 N 
ATOM     25  C   UNL     1       7.218   4.964  14.019  0.00  0.00    +0.000 A 
ATOM     26  C   UNL     1       7.855   4.840  12.776  0.00  0.00    +0.000 A 
ATOM     27  C   UNL     1       7.215   4.085  11.790  0.00  0.00    +0.000 A 
ATOM     28  C   UNL     1       5.975   3.501  12.031  0.00  0.00    +0.000 A 
ATOM     29  C   UNL     1       5.357   3.626  13.282  0.00  0.00    +0.000 A 
ATOM     30  C   UNL     1       6.000   4.349  14.310  0.00  0.00    +0.000 A 
ATOM     31  H   UNL     1       8.445   6.206  15.215  0.00  0.00    +0.000 HD
ENDBRANCH  21  22
ENDBRANCH   6  21
TORSDOF 5
ENDMDL
MODEL 3
REMARK VINA RESULT:      -8.3      1.209      1.605
REMARK  Name = 
REMARK  5 active torsions:
REMARK  status: ('A' for Active; 'I' for Inactive)
REMARK    1  A    between atoms: C_2  and  C_3
REMARK    2  A    between atoms: C_3  and  O_4
REMARK    3  A    between atoms: O_4  and  C_5
REMARK    4  A    between atoms: N_18  and  C_19
REMARK    5  A    between atoms: C_19  and  C_20
REMARK                            x       y       z     vdW  Elec       q    Type
REMARK                         _______ _______ _______ _____ _____    ______ ____
ROOT
ATOM      1  O   UNL     1       8.625   6.900  19.168  0.00  0.00    +0.000 OA
ATOM      2  C   UNL     1       7.927   7.423  18.295  0.00  0.00    +0.000 C 
ATOM      3  N   UNL     1       6.874   6.739  17.691  0.00  0.00    +0.000 N 
ATOM      4  C   UNL     1       5.982   7.295  16.671  0.00  0.00    +0.000 C 
ATOM      5  C   UNL     1       5.307   6.212  15.790  0.00  0.00    +0.000 C 
ATOM      6  N   UNL     1       4.749   5.047  16.511  0.00  0.00    +0.000 NA
ATOM      7  C   UNL     1       5.812   4.507  17.386  0.00  0.00    +0.000 C 
ATOM      8  C   UNL     1       6.399   5.529  18.368  0.00  0.00    +0.000 C 
ENDROOT
BRANCH   2   9
ATOM      9  C   UNL     1       8.188   8.873  17.893  0.00  0.00    +0.000 C 
BRANCH   9  10
ATOM     10  O   UNL     1       9.138   9.477  18.756  0.00  0.00    +0.000 OA
BRANCH  10  11
ATOM     11  C   UNL     1       9.471  10.777  18.478  0.00  0.00    +0.000 A 
ATOM     12  C   UNL     1      10.767  11.285  18.383  0.00  0.00    +0.000 A 
ATOM     13  C   UNL     1      10.972  12.647  18.132  0.00  0.00    +0.000 A 
ATOM     14  C   UNL     1       9.888  13.520  17.970  0.00  0.00    +0.000 A 
ATOM     15  C   UNL     1      10.081  14.892  17.737  0.00  0.00    +0.000 A 
ATOM     16  C   UNL     1       8.989  15.748  17.580  0.00  0.00    +0.000 A 
ATOM     17  C   UNL     1       7.696  15.245  17.649  0.00  0.00    +0.000 A 
ATOM     18  C   UNL     1       7.489  13.880  17.874  0.00  0.00    +0.000 A 
ATOM     19  C   UNL     1       8.574  13.007  18.046  0.00  0.00    +0.000 A 
ATOM     20  C   UNL     1       8.385  11.638  18.297  0.00  0.00    +0.000 A 
ENDBRANCH  10  11
ENDBRANCH   9  10
ENDBRANCH   2   9
BRANCH   6  21
ATOM     21  C   UNL     1       3.508   5.402  17.230  0.00  0.00    +0.000 C 
BRANCH  21  22
ATOM     22  C   UNL     1       2.850   4.184  17.818  0.00  0.00    +0.000 A 
ATOM     23  C   UNL     1       2.494   3.030  17.143  0.00  0.00    +0.000 A 
ATOM     24  N   UNL     1       2.020   2.123  18.052  0.00  0.00    +0.000 N 
ATOM     25  C   UNL     1       2.051   2.658  19.318  0.00  0.00    +0.000 A 
ATOM     26  C   UNL     1       1.721   2.076  20.550  0.00  0.00    +0.000 A 
ATOM     27  C   UNL     1       1.831   2.871  21.694  0.00  0.00    +0.000 A 
ATOM     28  C   UNL     1       2.229   4.201  21.603  0.00  0.00    +0.000 A 
ATOM     29  C   UNL     1       2.565   4.764  20.365  0.00  0.00    +0.000 A 
ATOM     30  C   UNL     1       2.501   3.973  19.197  0.00  0.00    +0.000 A 
ATOM     31  H   UNL     1       1.711   1.187  17.834  0.00  0.00    +0.000 HD
ENDBRANCH  21  22
ENDBRANCH   6  21
TORSDOF 5
ENDMDL
MODEL 4
REMARK VINA RESULT:      -8.2      7.714     11.210
REMARK  Name = 
REMARK  5 active torsions:
REMARK  status: ('A' for Active; 'I' for Inactive)
REMARK    1  A    between atoms: C_2  and  C_3
REMARK    2  A    between atoms: C_3  and  O_4
REMARK    3  A    between atoms: O_4  and  C_5
REMARK    4  A    between atoms: N_18  and  C_19
REMARK    5  A    between atoms: C_19  and  C_20
REMARK                            x       y       z     vdW  Elec       q    Type
REMARK                         _______ _______ _______ _____ _____    ______ ____
ROOT
ATOM      1  O   UNL     1       2.563  11.195  17.581  0.00  0.00    +0.000 OA
ATOM      2  C   UNL     1       1.846  10.457  18.264  0.00  0.00    +0.000 C 
ATOM      3  N   UNL     1       1.187  10.921  19.399  0.00  0.00    +0.000 N 
ATOM      4  C   UNL     1       0.299  10.120  20.245  0.00  0.00    +0.000 C 
ATOM      5  C   UNL     1       0.165  10.671  21.689  0.00  0.00    +0.000 C 
ATOM      6  N   UNL     1      -0.040  12.132  21.808  0.00  0.00    +0.000 NA
ATOM      7  C   UNL     1       1.021  12.801  21.024  0.00  0.00    +0.000 C 
ATOM      8  C   UNL     1       1.080  12.375  19.552  0.00  0.00    +0.000 C 
ENDROOT
BRANCH   2   9
ATOM      9  C   UNL     1       1.636   9.007  17.832  0.00  0.00    +0.000 C 
BRANCH   9  10
ATOM     10  O   UNL     1       2.724   8.191  18.238  0.00  0.00    +0.000 OA
BRANCH  10  11
ATOM     11  C   UNL     1       2.401   6.993  18.817  0.00  0.00    +0.000 A 
ATOM     12  C   UNL     1       2.030   6.802  20.148  0.00  0.00    +0.000 A 
ATOM     13  C   UNL     1       1.763   5.514  20.627  0.00  0.00    +0.000 A 
ATOM     14  C   UNL     1       1.862   4.398  19.785  0.00  0.00    +0.000 A 
ATOM     15  C   UNL     1       1.617   3.099  20.260  0.00  0.00    +0.000 A 
ATOM     16  C   UNL     1       1.722   1.999  19.406  0.00  0.00    +0.000 A 
ATOM     17  C   UNL     1       2.068   2.182  18.074  0.00  0.00    +0.000 A 
ATOM     18  C   UNL     1       2.308   3.471  17.586  0.00  0.00    +0.000 A 
ATOM     19  C   UNL     1       2.220   4.587  18.432  0.00  0.00    +0.000 A 
ATOM     20  C   UNL     1       2.482   5.886  17.966  0.00  0.00    +0.000 A 
ENDBRANCH  10  11
ENDBRANCH   9  10
ENDBRANCH   2   9
BRANCH   6  21
ATOM     21  C   UNL     1      -1.410  12.517  21.410  0.00  0.00    +0.000 C 
BRANCH  21  22
ATOM     22  C   UNL     1      -2.212  12.982  22.594  0.00  0.00    +0.000 A 
ATOM     23  C   UNL     1      -3.361  12.396  23.096  0.00  0.00    +0.000 A 
ATOM     24  N   UNL     1      -3.724  13.057  24.237  0.00  0.00    +0.000 N 
ATOM     25  C   UNL     1      -2.839  14.076  24.499  0.00  0.00    +0.000 A 
ATOM     26  C   UNL     1      -2.783  14.965  25.581  0.00  0.00    +0.000 A 
ATOM     27  C   UNL     1      -1.769  15.926  25.580  0.00  0.00    +0.000 A 
ATOM     28  C   UNL     1      -0.866  16.010  24.525  0.00  0.00    +0.000 A 
ATOM     29  C   UNL     1      -0.929  15.106  23.457  0.00  0.00    +0.000 A 
ATOM     30  C   UNL     1      -1.918  14.099  23.451  0.00  0.00    +0.000 A 
ATOM     31  H   UNL     1      -4.515  12.823  24.820  0.00  0.00    +0.000 HD
ENDBRANCH  21  22
ENDBRANCH   6  21
TORSDOF 5
ENDMDL
MODEL 5
REMARK VINA RESULT:      -8.1      7.548     11.909
REMARK  Name = 
REMARK  5 active torsions:
REMARK  status: ('A' for Active; 'I' for Inactive)
REMARK    1  A    between atoms: C_2  and  C_3
REMARK    2  A    between atoms: C_3  and  O_4
REMARK    3  A    between atoms: O_4  and  C_5
REMARK    4  A    between atoms: N_18  and  C_19
REMARK    5  A    between atoms: C_19  and  C_20
REMARK                            x       y       z     vdW  Elec       q    Type
REMARK                         _______ _______ _______ _____ _____    ______ ____
ROOT
ATOM      1  O   UNL     1      -0.167   9.121  21.147  0.00  0.00    +0.000 OA
ATOM      2  C   UNL     1       0.385   9.750  20.239  0.00  0.00    +0.000 C 
ATOM      3  N   UNL     1       0.136  11.104  20.030  0.00  0.00    +0.000 N 
ATOM      4  C   UNL     1       0.770  11.928  18.997  0.00  0.00    +0.000 C 
ATOM      5  C   UNL     1      -0.061  13.181  18.616  0.00  0.00    +0.000 C 
ATOM      6  N   UNL     1      -0.622  13.953  19.747  0.00  0.00    +0.000 NA
ATOM      7  C   UNL     1      -1.356  13.009  20.617  0.00  0.00    +0.000 C 
ATOM      8  C   UNL     1      -0.512  11.833  21.123  0.00  0.00    +0.000 C 
ENDROOT
BRANCH   2   9
ATOM      9  C   UNL     1       1.404   9.043  19.348  0.00  0.00    +0.000 C 
BRANCH   9  10
ATOM     10  O   UNL     1       2.106   8.044  20.070  0.00  0.00    +0.000 OA
BRANCH  10  11
ATOM     11  C   UNL     1       2.411   6.899  19.383  0.00  0.00    +0.000 A 
ATOM     12  C   UNL     1       3.284   6.805  18.298  0.00  0.00    +0.000 A 
ATOM     13  C   UNL     1       3.479   5.576  17.656  0.00  0.00    +0.000 A 
ATOM     14  C   UNL     1       2.806   4.424  18.086  0.00  0.00    +0.000 A 
ATOM     15  C   UNL     1       2.978   3.190  17.437  0.00  0.00    +0.000 A 
ATOM     16  C   UNL     1       2.298   2.054  17.880  0.00  0.00    +0.000 A 
ATOM     17  C   UNL     1       1.446   2.134  18.973  0.00  0.00    +0.000 A 
ATOM     18  C   UNL     1       1.270   3.355  19.633  0.00  0.00    +0.000 A 
ATOM     19  C   UNL     1       1.936   4.510  19.195  0.00  0.00    +0.000 A 
ATOM     20  C   UNL     1       1.752   5.750  19.831  0.00  0.00    +0.000 A 
ENDBRANCH  10  11
ENDBRANCH   9  10
ENDBRANCH   2   9
BRANCH   6  21
ATOM     21  C   UNL     1       0.427  14.720  20.449  0.00  0.00    +0.000 C 
BRANCH  21  22
ATOM     22  C   UNL     1       1.157  15.637  19.506  0.00  0.00    +0.000 A 
ATOM     23  C   UNL     1       2.511  15.619  19.218  0.00  0.00    +0.000 A 
ATOM     24  N   UNL     1       2.759  16.541  18.238  0.00  0.00    +0.000 N 
ATOM     25  C   UNL     1       1.594  17.174  17.874  0.00  0.00    +0.000 A 
ATOM     26  C   UNL     1       1.364  18.135  16.880  0.00  0.00    +0.000 A 
ATOM     27  C   UNL     1       0.063  18.626  16.740  0.00  0.00    +0.000 A 
ATOM     28  C   UNL     1      -0.958  18.192  17.580  0.00  0.00    +0.000 A 
ATOM     29  C   UNL     1      -0.713  17.222  18.561  0.00  0.00    +0.000 A 
ATOM     30  C   UNL     1       0.583  16.679  18.699  0.00  0.00    +0.000 A 
ATOM     31  H   UNL     1       3.661  16.720  17.821  0.00  0.00    +0.000 HD
ENDBRANCH  21  22
ENDBRANCH   6  21
TORSDOF 5
ENDMDL
MODEL 6
REMARK VINA RESULT:      -8.1      0.659      1.327
REMARK  Name = 
REMARK  5 active torsions:
REMARK  status: ('A' for Active; 'I' for Inactive)
REMARK    1  A    between atoms: C_2  and  C_3
REMARK    2  A    between atoms: C_3  and  O_4
REMARK    3  A    between atoms: O_4  and  C_5
REMARK    4  A    between atoms: N_18  and  C_19
REMARK    5  A    between atoms: C_19  and  C_20
REMARK                            x       y       z     vdW  Elec       q    Type
REMARK                         _______ _______ _______ _____ _____    ______ ____
ROOT
ATOM      1  O   UNL     1       8.242   6.267  19.399  0.00  0.00    +0.000 OA
ATOM      2  C   UNL     1       7.762   6.680  18.339  0.00  0.00    +0.000 C 
ATOM      3  N   UNL     1       6.851   5.926  17.605  0.00  0.00    +0.000 N 
ATOM      4  C   UNL     1       6.214   6.355  16.356  0.00  0.00    +0.000 C 
ATOM      5  C   UNL     1       5.722   5.173  15.482  0.00  0.00    +0.000 C 
ATOM      6  N   UNL     1       4.994   4.100  16.195  0.00  0.00    +0.000 NA
ATOM      7  C   UNL     1       5.830   3.671  17.337  0.00  0.00    +0.000 C 
ATOM      8  C   UNL     1       6.212   4.804  18.298  0.00  0.00    +0.000 C 
ENDROOT
BRANCH   2   9
ATOM      9  C   UNL     1       8.138   8.074  17.838  0.00  0.00    +0.000 C 
BRANCH   9  10
ATOM     10  O   UNL     1       8.252   8.989  18.915  0.00  0.00    +0.000 OA
BRANCH  10  11
ATOM     11  C   UNL     1       8.691  10.248  18.599  0.00  0.00    +0.000 A 
ATOM     12  C   UNL     1       8.049  11.147  17.747  0.00  0.00    +0.000 A 
ATOM     13  C   UNL     1       8.626  12.392  17.473  0.00  0.00    +0.000 A 
ATOM     14  C   UNL     1       9.851  12.760  18.047  0.00  0.00    +0.000 A 
ATOM     15  C   UNL     1      10.449  13.999  17.765  0.00  0.00    +0.000 A 
ATOM     16  C   UNL     1      11.671  14.347  18.345  0.00  0.00    +0.000 A 
ATOM     17  C   UNL     1      12.304  13.468  19.213  0.00  0.00    +0.000 A 
ATOM     18  C   UNL     1      11.717  12.233  19.508  0.00  0.00    +0.000 A 
ATOM     19  C   UNL     1      10.496  11.861  18.925  0.00  0.00    +0.000 A 
ATOM     20  C   UNL     1       9.903  10.615  19.191  0.00  0.00    +0.000 A 
ENDBRANCH  10  11
ENDBRANCH   9  10
ENDBRANCH   2   9
BRANCH   6  21
ATOM     21  C   UNL     1       3.635   4.534  16.578  0.00  0.00    +0.000 C 
BRANCH  21  22
ATOM     22  C   UNL     1       3.003   3.566  17.541  0.00  0.00    +0.000 A 
ATOM     23  C   UNL     1       2.685   2.242  17.292  0.00  0.00    +0.000 A 
ATOM     24  N   UNL     1       2.226   1.680  18.452  0.00  0.00    +0.000 N 
ATOM     25  C   UNL     1       2.230   2.609  19.465  0.00  0.00    +0.000 A 
ATOM     26  C   UNL     1       1.903   2.465  20.821  0.00  0.00    +0.000 A 
ATOM     27  C   UNL     1       1.980   3.600  21.632  0.00  0.00    +0.000 A 
ATOM     28  C   UNL     1       2.343   4.834  21.100  0.00  0.00    +0.000 A 
ATOM     29  C   UNL     1       2.677   4.958  19.745  0.00  0.00    +0.000 A 
ATOM     30  C   UNL     1       2.647   3.819  18.910  0.00  0.00    +0.000 A 
ATOM     31  H   UNL     1       1.945   0.716  18.561  0.00  0.00    +0.000 HD
ENDBRANCH  21  22
ENDBRANCH   6  21
TORSDOF 5
ENDMDL
MODEL 7
REMARK VINA RESULT:      -8.1      1.146      1.151
REMARK  Name = 
REMARK  5 active torsions:
REMARK  status: ('A' for Active; 'I' for Inactive)
REMARK    1  A    between atoms: C_2  and  C_3
REMARK    2  A    between atoms: C_3  and  O_4
REMARK    3  A    between atoms: O_4  and  C_5
REMARK    4  A    between atoms: N_18  and  C_19
REMARK    5  A    between atoms: C_19  and  C_20
REMARK                            x       y       z     vdW  Elec       q    Type
REMARK                         _______ _______ _______ _____ _____    ______ ____
ROOT
ATOM      1  O   UNL     1       8.610   7.293  19.009  0.00  0.00    +0.000 OA
ATOM      2  C   UNL     1       7.834   7.729  18.154  0.00  0.00    +0.000 C 
ATOM      3  N   UNL     1       6.814   6.944  17.622  0.00  0.00    +0.000 N 
ATOM      4  C   UNL     1       5.835   7.393  16.628  0.00  0.00    +0.000 C 
ATOM      5  C   UNL     1       5.210   6.231  15.814  0.00  0.00    +0.000 C 
ATOM      6  N   UNL     1       4.780   5.051  16.596  0.00  0.00    +0.000 NA
ATOM      7  C   UNL     1       5.921   4.627  17.436  0.00  0.00    +0.000 C 
ATOM      8  C   UNL     1       6.468   5.724  18.357  0.00  0.00    +0.000 C 
ENDROOT
BRANCH   2   9
ATOM      9  C   UNL     1       7.960   9.180  17.696  0.00  0.00    +0.000 C 
BRANCH   9  10
ATOM     10  O   UNL     1       9.287   9.654  17.864  0.00  0.00    +0.000 OA
BRANCH  10  11
ATOM     11  C   UNL     1       9.453  10.701  18.731  0.00  0.00    +0.000 A 
ATOM     12  C   UNL     1       9.452  10.616  20.124  0.00  0.00    +0.000 A 
ATOM     13  C   UNL     1       9.592  11.772  20.900  0.00  0.00    +0.000 A 
ATOM     14  C   UNL     1       9.736  13.030  20.298  0.00  0.00    +0.000 A 
ATOM     15  C   UNL     1       9.857  14.200  21.066  0.00  0.00    +0.000 A 
ATOM     16  C   UNL     1       9.997  15.444  20.449  0.00  0.00    +0.000 A 
ATOM     17  C   UNL     1      10.022  15.535  19.063  0.00  0.00    +0.000 A 
ATOM     18  C   UNL     1       9.910  14.377  18.286  0.00  0.00    +0.000 A 
ATOM     19  C   UNL     1       9.755  13.120  18.889  0.00  0.00    +0.000 A 
ATOM     20  C   UNL     1       9.616  11.949  18.124  0.00  0.00    +0.000 A 
ENDBRANCH  10  11
ENDBRANCH   9  10
ENDBRANCH   2   9
BRANCH   6  21
ATOM     21  C   UNL     1       3.548   5.331  17.361  0.00  0.00    +0.000 C 
BRANCH  21  22
ATOM     22  C   UNL     1       2.926   4.064  17.880  0.00  0.00    +0.000 A 
ATOM     23  C   UNL     1       2.682   2.908  17.160  0.00  0.00    +0.000 A 
ATOM     24  N   UNL     1       2.206   1.954  18.017  0.00  0.00    +0.000 N 
ATOM     25  C   UNL     1       2.124   2.459  19.293  0.00  0.00    +0.000 A 
ATOM     26  C   UNL     1       1.751   1.829  20.489  0.00  0.00    +0.000 A 
ATOM     27  C   UNL     1       1.741   2.601  21.653  0.00  0.00    +0.000 A 
ATOM     28  C   UNL     1       2.065   3.954  21.616  0.00  0.00    +0.000 A 
ATOM     29  C   UNL     1       2.446   4.564  20.414  0.00  0.00    +0.000 A 
ATOM     30  C   UNL     1       2.504   3.800  19.229  0.00  0.00    +0.000 A 
ATOM     31  H   UNL     1       1.967   1.007  17.761  0.00  0.00    +0.000 HD
ENDBRANCH  21  22
ENDBRANCH   6  21
TORSDOF 5
ENDMDL
MODEL 8
REMARK VINA RESULT:      -8.0      7.755     10.909
REMARK  Name = 
REMARK  5 active torsions:
REMARK  status: ('A' for Active; 'I' for Inactive)
REMARK    1  A    between atoms: C_2  and  C_3
REMARK    2  A    between atoms: C_3  and  O_4
REMARK    3  A    between atoms: O_4  and  C_5
REMARK    4  A    between atoms: N_18  and  C_19
REMARK    5  A    between atoms: C_19  and  C_20
REMARK                            x       y       z     vdW  Elec       q    Type
REMARK                         _______ _______ _______ _____ _____    ______ ____
ROOT
ATOM      1  O   UNL     1       2.714  11.284  17.835  0.00  0.00    +0.000 OA
ATOM      2  C   UNL     1       1.771  10.635  18.297  0.00  0.00    +0.000 C 
ATOM      3  N   UNL     1       0.812  11.221  19.121  0.00  0.00    +0.000 N 
ATOM      4  C   UNL     1      -0.350  10.529  19.685  0.00  0.00    +0.000 C 
ATOM      5  C   UNL     1      -0.906  11.208  20.965  0.00  0.00    +0.000 C 
ATOM      6  N   UNL     1      -1.046  12.680  20.908  0.00  0.00    +0.000 NA
ATOM      7  C   UNL     1       0.251  13.238  20.468  0.00  0.00    +0.000 C 
ATOM      8  C   UNL     1       0.754  12.685  19.129  0.00  0.00    +0.000 C 
ENDROOT
BRANCH   2   9
ATOM      9  C   UNL     1       1.619   9.162  17.923  0.00  0.00    +0.000 C 
BRANCH   9  10
ATOM     10  O   UNL     1       2.147   8.322  18.936  0.00  0.00    +0.000 OA
BRANCH  10  11
ATOM     11  C   UNL     1       2.636   7.110  18.527  0.00  0.00    +0.000 A 
ATOM     12  C   UNL     1       3.703   6.914  17.648  0.00  0.00    +0.000 A 
ATOM     13  C   UNL     1       4.079   5.618  17.277  0.00  0.00    +0.000 A 
ATOM     14  C   UNL     1       3.398   4.499  17.777  0.00  0.00    +0.000 A 
ATOM     15  C   UNL     1       3.755   3.195  17.396  0.00  0.00    +0.000 A 
ATOM     16  C   UNL     1       3.064   2.092  17.903  0.00  0.00    +0.000 A 
ATOM     17  C   UNL     1       2.016   2.278  18.796  0.00  0.00    +0.000 A 
ATOM     18  C   UNL     1       1.655   3.571  19.189  0.00  0.00    +0.000 A 
ATOM     19  C   UNL     1       2.330   4.691  18.681  0.00  0.00    +0.000 A 
ATOM     20  C   UNL     1       1.966   5.998  19.045  0.00  0.00    +0.000 A 
ENDBRANCH  10  11
ENDBRANCH   9  10
ENDBRANCH   2   9
BRANCH   6  21
ATOM     21  C   UNL     1      -2.187  13.080  20.060  0.00  0.00    +0.000 C 
BRANCH  21  22
ATOM     22  C   UNL     1      -3.499  12.757  20.721  0.00  0.00    +0.000 A 
ATOM     23  C   UNL     1      -3.779  12.821  22.075  0.00  0.00    +0.000 A 
ATOM     24  N   UNL     1      -5.108  12.552  22.258  0.00  0.00    +0.000 N 
ATOM     25  C   UNL     1      -5.714  12.306  21.049  0.00  0.00    +0.000 A 
ATOM     26  C   UNL     1      -7.059  12.048  20.751  0.00  0.00    +0.000 A 
ATOM     27  C   UNL     1      -7.395  11.812  19.416  0.00  0.00    +0.000 A 
ATOM     28  C   UNL     1      -6.419  11.807  18.424  0.00  0.00    +0.000 A 
ATOM     29  C   UNL     1      -5.081  12.077  18.737  0.00  0.00    +0.000 A 
ATOM     30  C   UNL     1      -4.718  12.359  20.072  0.00  0.00    +0.000 A 
ATOM     31  H   UNL     1      -5.587  12.555  23.147  0.00  0.00    +0.000 HD
ENDBRANCH  21  22
ENDBRANCH   6  21
TORSDOF 5
ENDMDL
MODEL 9
REMARK VINA RESULT:      -8.0      7.044     11.549
REMARK  Name = 
REMARK  5 active torsions:
REMARK  status: ('A' for Active; 'I' for Inactive)
REMARK    1  A    between atoms: C_2  and  C_3
REMARK    2  A    between atoms: C_3  and  O_4
REMARK    3  A    between atoms: O_4  and  C_5
REMARK    4  A    between atoms: N_18  and  C_19
REMARK    5  A    between atoms: C_19  and  C_20
REMARK                            x       y       z     vdW  Elec       q    Type
REMARK                         _______ _______ _______ _____ _____    ______ ____
ROOT
ATOM      1  O   UNL     1       0.551  10.080  23.084  0.00  0.00    +0.000 OA
ATOM      2  C   UNL     1       0.311   9.796  21.907  0.00  0.00    +0.000 C 
ATOM      3  N   UNL     1      -0.098  10.760  20.989  0.00  0.00    +0.000 N 
ATOM      4  C   UNL     1      -0.375  10.511  19.572  0.00  0.00    +0.000 C 
ATOM      5  C   UNL     1      -1.322  11.562  18.937  0.00  0.00    +0.000 C 
ATOM      6  N   UNL     1      -1.026  12.976  19.257  0.00  0.00    +0.000 NA
ATOM      7  C   UNL     1      -0.926  13.094  20.728  0.00  0.00    +0.000 C 
ATOM      8  C   UNL     1       0.111  12.161  21.365  0.00  0.00    +0.000 C 
ENDROOT
BRANCH   2   9
ATOM      9  C   UNL     1       0.510   8.360  21.426  0.00  0.00    +0.000 C 
BRANCH   9  10
ATOM     10  O   UNL     1       1.821   8.168  20.921  0.00  0.00    +0.000 OA
BRANCH  10  11
ATOM     11  C   UNL     1       1.998   7.101  20.081  0.00  0.00    +0.000 A 
ATOM     12  C   UNL     1       2.500   7.159  18.780  0.00  0.00    +0.000 A 
ATOM     13  C   UNL     1       2.594   5.995  18.009  0.00  0.00    +0.000 A 
ATOM     14  C   UNL     1       2.190   4.756  18.524  0.00  0.00    +0.000 A 
ATOM     15  C   UNL     1       2.261   3.584  17.753  0.00  0.00    +0.000 A 
ATOM     16  C   UNL     1       1.852   2.358  18.283  0.00  0.00    +0.000 A 
ATOM     17  C   UNL     1       1.374   2.288  19.584  0.00  0.00    +0.000 A 
ATOM     18  C   UNL     1       1.304   3.446  20.366  0.00  0.00    +0.000 A 
ATOM     19  C   UNL     1       1.699   4.688  19.847  0.00  0.00    +0.000 A 
ATOM     20  C   UNL     1       1.612   5.865  20.609  0.00  0.00    +0.000 A 
ENDBRANCH  10  11
ENDBRANCH   9  10
ENDBRANCH   2   9
BRANCH   6  21
ATOM     21  C   UNL     1       0.172  13.452  18.536  0.00  0.00    +0.000 C 
BRANCH  21  22
ATOM     22  C   UNL     1       0.495  14.877  18.894  0.00  0.00    +0.000 A 
ATOM     23  C   UNL     1      -0.341  15.972  18.764  0.00  0.00    +0.000 A 
ATOM     24  N   UNL     1       0.287  17.065  19.295  0.00  0.00    +0.000 N 
ATOM     25  C   UNL     1       1.528  16.716  19.771  0.00  0.00    +0.000 A 
ATOM     26  C   UNL     1       2.485  17.488  20.443  0.00  0.00    +0.000 A 
ATOM     27  C   UNL     1       3.685  16.869  20.801  0.00  0.00    +0.000 A 
ATOM     28  C   UNL     1       3.927  15.538  20.474  0.00  0.00    +0.000 A 
ATOM     29  C   UNL     1       2.955  14.777  19.812  0.00  0.00    +0.000 A 
ATOM     30  C   UNL     1       1.717  15.365  19.474  0.00  0.00    +0.000 A 
ATOM     31  H   UNL     1      -0.107  17.993  19.352  0.00  0.00    +0.000 HD
ENDBRANCH  21  22
ENDBRANCH   6  21
TORSDOF 5
ENDMDL
