MODEL 1
REMARK VINA RESULT:      -8.0      0.000      0.000
REMARK  Name = 
REMARK  12 active torsions:
REMARK  status: ('A' for Active; 'I' for Inactive)
REMARK    1  A    between atoms: C_1  and  O_2
REMARK    2  A    between atoms: O_2  and  C_3
REMARK    3  A    between atoms: C_6  and  C_7
REMARK    4  A    between atoms: C_7  and  C_8
REMARK    5  A    between atoms: C_8  and  N_9
REMARK    6  A    between atoms: C_10  and  C_12
REMARK    7  A    between atoms: C_12  and  O_13
REMARK    8  A    between atoms: O_13  and  C_14
REMARK    9  A    between atoms: C_16  and  C_17
REMARK   10  A    between atoms: C_24  and  C_25
REMARK   11  A    between atoms: C_28  and  O_29
REMARK   12  A    between atoms: O_29  and  C_30
REMARK                            x       y       z     vdW  Elec       q    Type
REMARK                         _______ _______ _______ _____ _____    ______ ____
ROOT
ATOM      1  N   UNL     1       0.844   9.884  20.276  0.00  0.00    +0.000 N 
ATOM      2  C   UNL     1       0.387   8.939  21.168  0.00  0.00    +0.000 C 
ATOM      3  O   UNL     1      -0.522   9.158  21.967  0.00  0.00    +0.000 OA
ATOM      4  H   UNL     1       1.607   9.655  19.650  0.00  0.00    +0.000 HD
ENDROOT
BRANCH   1   5
ATOM      5  C   UNL     1       0.359  11.253  20.311  0.00  0.00    +0.000 C 
BRANCH   5   6
ATOM      6  C   UNL     1      -0.063  11.758  18.929  0.00  0.00    +0.000 C 
BRANCH   6  10
ATOM      7  C   UNL     1      -4.327  11.624  18.235  0.00  0.00    +0.000 A 
ATOM      8  C   UNL     1      -3.804  12.218  19.394  0.00  0.00    +0.000 A 
ATOM      9  C   UNL     1      -2.431  12.238  19.643  0.00  0.00    +0.000 A 
ATOM     10  C   UNL     1      -1.550  11.628  18.752  0.00  0.00    +0.000 A 
ATOM     11  C   UNL     1      -2.076  10.955  17.642  0.00  0.00    +0.000 A 
ATOM     12  C   UNL     1      -3.451  10.939  17.364  0.00  0.00    +0.000 A 
BRANCH   7  14
ATOM     13  C   UNL     1      -6.476  10.696  18.556  0.00  0.00    +0.000 C 
ATOM     14  O   UNL     1      -5.659  11.692  17.942  0.00  0.00    +0.000 OA
ENDBRANCH   7  14
BRANCH  12  15
ATOM     15  O   UNL     1      -3.741  10.247  16.222  0.00  0.00    +0.000 OA
ATOM     16  C   UNL     1      -3.058  10.558  15.025  0.00  0.00    +0.000 C 
ENDBRANCH  12  15
ENDBRANCH   6  10
ENDBRANCH   5   6
ENDBRANCH   1   5
BRANCH   2  17
ATOM     17  C   UNL     1       1.174   7.625  21.191  0.00  0.00    +0.000 C 
BRANCH  17  18
ATOM     18  O   UNL     1       2.046   7.350  20.095  0.00  0.00    +0.000 OA
BRANCH  18  19
ATOM     19  C   UNL     1       2.305   6.003  19.888  0.00  0.00    +0.000 A 
ATOM     20  C   UNL     1       1.765   5.014  20.753  0.00  0.00    +0.000 A 
ATOM     21  C   UNL     1       2.063   3.654  20.635  0.00  0.00    +0.000 A 
ATOM     22  C   UNL     1       1.522   2.651  21.608  0.00  0.00    +0.000 C 
ATOM     23  C   UNL     1       2.910   3.258  19.620  0.00  0.00    +0.000 A 
ATOM     24  C   UNL     1       3.425   4.215  18.741  0.00  0.00    +0.000 A 
ATOM     25  O   UNL     1       4.338   3.675  17.818  0.00  0.00    +0.000 OA
ATOM     26  C   UNL     1       5.162   4.545  17.159  0.00  0.00    +0.000 A 
ATOM     27  O   UNL     1       6.286   4.245  16.779  0.00  0.00    +0.000 OA
ATOM     28  C   UNL     1       4.605   5.873  16.900  0.00  0.00    +0.000 A 
ATOM     29  C   UNL     1       3.705   6.433  17.726  0.00  0.00    +0.000 A 
ATOM     30  C   UNL     1       3.345   7.873  17.512  0.00  0.00    +0.000 C 
ATOM     31  C   UNL     1       3.128   5.595  18.812  0.00  0.00    +0.000 A 
ENDBRANCH  18  19
ENDBRANCH  17  18
ENDBRANCH   2  17
TORSDOF 8
ENDMDL
MODEL 2
REMARK VINA RESULT:      -8.0      5.362      9.316
REMARK  Name = 
REMARK  12 active torsions:
REMARK  status: ('A' for Active; 'I' for Inactive)
REMARK    1  A    between atoms: C_1  and  O_2
REMARK    2  A    between atoms: O_2  and  C_3
REMARK    3  A    between atoms: C_6  and  C_7
REMARK    4  A    between atoms: C_7  and  C_8
REMARK    5  A    between atoms: C_8  and  N_9
REMARK    6  A    between atoms: C_10  and  C_12
REMARK    7  A    between atoms: C_12  and  O_13
REMARK    8  A    between atoms: O_13  and  C_14
REMARK    9  A    between atoms: C_16  and  C_17
REMARK   10  A    between atoms: C_24  and  C_25
REMARK   11  A    between atoms: C_28  and  O_29
REMARK   12  A    between atoms: O_29  and  C_30
REMARK                            x       y       z     vdW  Elec       q    Type
REMARK                         _______ _______ _______ _____ _____    ______ ____
ROOT
ATOM      1  N   UNL     1       6.812   7.396  17.675  0.00  0.00    +0.000 N 
ATOM      2  C   UNL     1       6.696   6.530  16.609  0.00  0.00    +0.000 C 
ATOM      3  O   UNL     1       7.666   6.122  15.971  0.00  0.00    +0.000 OA
ATOM      4  H   UNL     1       5.978   7.713  18.154  0.00  0.00    +0.000 HD
ENDROOT
BRANCH   1   5
ATOM      5  C   UNL     1       8.090   7.983  18.036  0.00  0.00    +0.000 C 
BRANCH   5   6
ATOM      6  C   UNL     1       8.333   9.325  17.340  0.00  0.00    +0.000 C 
BRANCH   6  10
ATOM      7  C   UNL     1      10.039  12.191  20.088  0.00  0.00    +0.000 A 
ATOM      8  C   UNL     1       9.616  10.930  20.534  0.00  0.00    +0.000 A 
ATOM      9  C   UNL     1       9.034  10.009  19.661  0.00  0.00    +0.000 A 
ATOM     10  C   UNL     1       8.828  10.347  18.325  0.00  0.00    +0.000 A 
ATOM     11  C   UNL     1       9.164  11.638  17.899  0.00  0.00    +0.000 A 
ATOM     12  C   UNL     1       9.767  12.571  18.756  0.00  0.00    +0.000 A 
BRANCH   7  14
ATOM     13  C   UNL     1       9.871  13.960  21.646  0.00  0.00    +0.000 C 
ATOM     14  O   UNL     1      10.698  13.052  20.919  0.00  0.00    +0.000 OA
ENDBRANCH   7  14
BRANCH  12  15
ATOM     15  O   UNL     1      10.032  13.756  18.128  0.00  0.00    +0.000 OA
ATOM     16  C   UNL     1       9.059  14.780  18.130  0.00  0.00    +0.000 C 
ENDBRANCH  12  15
ENDBRANCH   6  10
ENDBRANCH   5   6
ENDBRANCH   1   5
BRANCH   2  17
ATOM     17  C   UNL     1       5.263   6.205  16.180  0.00  0.00    +0.000 C 
BRANCH  17  18
ATOM     18  O   UNL     1       4.550   5.220  16.929  0.00  0.00    +0.000 OA
BRANCH  18  19
ATOM     19  C   UNL     1       3.624   5.734  17.824  0.00  0.00    +0.000 A 
ATOM     20  C   UNL     1       3.224   7.095  17.759  0.00  0.00    +0.000 A 
ATOM     21  C   UNL     1       2.358   7.680  18.687  0.00  0.00    +0.000 A 
ATOM     22  C   UNL     1       2.012   9.136  18.619  0.00  0.00    +0.000 C 
ATOM     23  C   UNL     1       1.861   6.889  19.703  0.00  0.00    +0.000 A 
ATOM     24  C   UNL     1       2.220   5.540  19.762  0.00  0.00    +0.000 A 
ATOM     25  O   UNL     1       1.707   4.887  20.897  0.00  0.00    +0.000 OA
ATOM     26  C   UNL     1       2.272   3.693  21.250  0.00  0.00    +0.000 A 
ATOM     27  O   UNL     1       2.333   3.296  22.406  0.00  0.00    +0.000 OA
ATOM     28  C   UNL     1       2.781   2.881  20.144  0.00  0.00    +0.000 A 
ATOM     29  C   UNL     1       3.256   3.441  19.019  0.00  0.00    +0.000 A 
ATOM     30  C   UNL     1       3.953   2.560  18.026  0.00  0.00    +0.000 C 
ATOM     31  C   UNL     1       3.072   4.906  18.830  0.00  0.00    +0.000 A 
ENDBRANCH  18  19
ENDBRANCH  17  18
ENDBRANCH   2  17
TORSDOF 8
ENDMDL
MODEL 3
REMARK VINA RESULT:      -7.9      2.033      9.177
REMARK  Name = 
REMARK  12 active torsions:
REMARK  status: ('A' for Active; 'I' for Inactive)
REMARK    1  A    between atoms: C_1  and  O_2
REMARK    2  A    between atoms: O_2  and  C_3
REMARK    3  A    between atoms: C_6  and  C_7
REMARK    4  A    between atoms: C_7  and  C_8
REMARK    5  A    between atoms: C_8  and  N_9
REMARK    6  A    between atoms: C_10  and  C_12
REMARK    7  A    between atoms: C_12  and  O_13
REMARK    8  A    between atoms: O_13  and  C_14
REMARK    9  A    between atoms: C_16  and  C_17
REMARK   10  A    between atoms: C_24  and  C_25
REMARK   11  A    between atoms: C_28  and  O_29
REMARK   12  A    between atoms: O_29  and  C_30
REMARK                            x       y       z     vdW  Elec       q    Type
REMARK                         _______ _______ _______ _____ _____    ______ ____
ROOT
ATOM      1  N   UNL     1       1.589   8.162  21.351  0.00  0.00    +0.000 N 
ATOM      2  C   UNL     1       0.337   8.444  21.853  0.00  0.00    +0.000 C 
ATOM      3  O   UNL     1      -0.689   7.916  21.425  0.00  0.00    +0.000 OA
ATOM      4  H   UNL     1       2.399   8.639  21.730  0.00  0.00    +0.000 HD
ENDROOT
BRANCH   1   5
ATOM      5  C   UNL     1       1.763   7.309  20.189  0.00  0.00    +0.000 C 
BRANCH   5   6
ATOM      6  C   UNL     1       1.942   5.837  20.567  0.00  0.00    +0.000 C 
BRANCH   6  10
ATOM      7  C   UNL     1       4.366   4.056  17.464  0.00  0.00    +0.000 A 
ATOM      8  C   UNL     1       2.969   4.099  17.349  0.00  0.00    +0.000 A 
ATOM      9  C   UNL     1       2.174   4.643  18.361  0.00  0.00    +0.000 A 
ATOM     10  C   UNL     1       2.763   5.123  19.529  0.00  0.00    +0.000 A 
ATOM     11  C   UNL     1       4.149   4.996  19.684  0.00  0.00    +0.000 A 
ATOM     12  C   UNL     1       4.966   4.470  18.673  0.00  0.00    +0.000 A 
BRANCH   7  14
ATOM     13  C   UNL     1       5.502   4.600  15.465  0.00  0.00    +0.000 C 
ATOM     14  O   UNL     1       5.148   3.615  16.434  0.00  0.00    +0.000 OA
ENDBRANCH   7  14
BRANCH  12  15
ATOM     15  O   UNL     1       6.287   4.462  19.025  0.00  0.00    +0.000 OA
ATOM     16  C   UNL     1       7.075   5.613  18.805  0.00  0.00    +0.000 C 
ENDBRANCH  12  15
ENDBRANCH   6  10
ENDBRANCH   5   6
ENDBRANCH   1   5
BRANCH   2  17
ATOM     17  C   UNL     1       0.286   9.560  22.900  0.00  0.00    +0.000 C 
BRANCH  17  18
ATOM     18  O   UNL     1       0.362  10.909  22.441  0.00  0.00    +0.000 OA
BRANCH  18  19
ATOM     19  C   UNL     1      -0.866  11.507  22.200  0.00  0.00    +0.000 A 
ATOM     20  C   UNL     1      -1.733  11.852  23.271  0.00  0.00    +0.000 A 
ATOM     21  C   UNL     1      -3.012  12.379  23.076  0.00  0.00    +0.000 A 
ATOM     22  C   UNL     1      -3.920  12.670  24.232  0.00  0.00    +0.000 C 
ATOM     23  C   UNL     1      -3.441  12.586  21.780  0.00  0.00    +0.000 A 
ATOM     24  C   UNL     1      -2.588  12.282  20.716  0.00  0.00    +0.000 A 
ATOM     25  O   UNL     1      -3.194  12.463  19.460  0.00  0.00    +0.000 OA
ATOM     26  C   UNL     1      -2.601  11.869  18.380  0.00  0.00    +0.000 A 
ATOM     27  O   UNL     1      -3.227  11.485  17.401  0.00  0.00    +0.000 OA
ATOM     28  C   UNL     1      -1.145  11.745  18.445  0.00  0.00    +0.000 A 
ATOM     29  C   UNL     1      -0.501  11.601  19.616  0.00  0.00    +0.000 A 
ATOM     30  C   UNL     1       0.960  11.265  19.587  0.00  0.00    +0.000 C 
ATOM     31  C   UNL     1      -1.280  11.770  20.873  0.00  0.00    +0.000 A 
ENDBRANCH  18  19
ENDBRANCH  17  18
ENDBRANCH   2  17
TORSDOF 8
ENDMDL
MODEL 4
REMARK VINA RESULT:      -7.8      4.949      9.129
REMARK  Name = 
REMARK  12 active torsions:
REMARK  status: ('A' for Active; 'I' for Inactive)
REMARK    1  A    between atoms: C_1  and  O_2
REMARK    2  A    between atoms: O_2  and  C_3
REMARK    3  A    between atoms: C_6  and  C_7
REMARK    4  A    between atoms: C_7  and  C_8
REMARK    5  A    between atoms: C_8  and  N_9
REMARK    6  A    between atoms: C_10  and  C_12
REMARK    7  A    between atoms: C_12  and  O_13
REMARK    8  A    between atoms: O_13  and  C_14
REMARK    9  A    between atoms: C_16  and  C_17
REMARK   10  A    between atoms: C_24  and  C_25
REMARK   11  A    between atoms: C_28  and  O_29
REMARK   12  A    between atoms: O_29  and  C_30
REMARK                            x       y       z     vdW  Elec       q    Type
REMARK                         _______ _______ _______ _____ _____    ______ ____
ROOT
ATOM      1  N   UNL     1       7.276   6.055  18.378  0.00  0.00    +0.000 N 
ATOM      2  C   UNL     1       7.057   5.247  17.283  0.00  0.00    +0.000 C 
ATOM      3  O   UNL     1       7.681   5.366  16.229  0.00  0.00    +0.000 OA
ATOM      4  H   UNL     1       6.722   5.924  19.215  0.00  0.00    +0.000 HD
ENDROOT
BRANCH   1   5
ATOM      5  C   UNL     1       8.180   7.190  18.311  0.00  0.00    +0.000 C 
BRANCH   5   6
ATOM      6  C   UNL     1       7.528   8.418  17.672  0.00  0.00    +0.000 C 
BRANCH   6  10
ATOM      7  C   UNL     1       9.681  12.001  18.770  0.00  0.00    +0.000 A 
ATOM      8  C   UNL     1       9.921  10.787  19.430  0.00  0.00    +0.000 A 
ATOM      9  C   UNL     1       9.208   9.631  19.105  0.00  0.00    +0.000 A 
ATOM     10  C   UNL     1       8.209   9.676  18.134  0.00  0.00    +0.000 A 
ATOM     11  C   UNL     1       7.905  10.907  17.540  0.00  0.00    +0.000 A 
ATOM     12  C   UNL     1       8.622  12.075  17.839  0.00  0.00    +0.000 A 
BRANCH   7  14
ATOM     13  C   UNL     1      11.580  13.272  18.168  0.00  0.00    +0.000 C 
ATOM     14  O   UNL     1      10.446  13.106  19.017  0.00  0.00    +0.000 OA
ENDBRANCH   7  14
BRANCH  12  15
ATOM     15  O   UNL     1       8.174  13.154  17.128  0.00  0.00    +0.000 OA
ATOM     16  C   UNL     1       7.413  14.151  17.778  0.00  0.00    +0.000 C 
ENDBRANCH  12  15
ENDBRANCH   6  10
ENDBRANCH   5   6
ENDBRANCH   1   5
BRANCH   2  17
ATOM     17  C   UNL     1       5.889   4.266  17.415  0.00  0.00    +0.000 C 
BRANCH  17  18
ATOM     18  O   UNL     1       4.649   4.618  16.803  0.00  0.00    +0.000 OA
BRANCH  18  19
ATOM     19  C   UNL     1       3.761   5.280  17.637  0.00  0.00    +0.000 A 
ATOM     20  C   UNL     1       3.527   6.674  17.496  0.00  0.00    +0.000 A 
ATOM     21  C   UNL     1       2.707   7.401  18.362  0.00  0.00    +0.000 A 
ATOM     22  C   UNL     1       2.538   8.882  18.216  0.00  0.00    +0.000 C 
ATOM     23  C   UNL     1       2.085   6.724  19.392  0.00  0.00    +0.000 A 
ATOM     24  C   UNL     1       2.279   5.346  19.526  0.00  0.00    +0.000 A 
ATOM     25  O   UNL     1       1.655   4.814  20.668  0.00  0.00    +0.000 OA
ATOM     26  C   UNL     1       2.062   3.581  21.096  0.00  0.00    +0.000 A 
ATOM     27  O   UNL     1       2.037   3.237  22.270  0.00  0.00    +0.000 OA
ATOM     28  C   UNL     1       2.507   2.662  20.047  0.00  0.00    +0.000 A 
ATOM     29  C   UNL     1       3.083   3.107  18.918  0.00  0.00    +0.000 A 
ATOM     30  C   UNL     1       3.704   2.103  17.993  0.00  0.00    +0.000 C 
ATOM     31  C   UNL     1       3.081   4.573  18.657  0.00  0.00    +0.000 A 
ENDBRANCH  18  19
ENDBRANCH  17  18
ENDBRANCH   2  17
TORSDOF 8
ENDMDL
MODEL 5
REMARK VINA RESULT:      -7.8      3.050      4.740
REMARK  Name = 
REMARK  12 active torsions:
REMARK  status: ('A' for Active; 'I' for Inactive)
REMARK    1  A    between atoms: C_1  and  O_2
REMARK    2  A    between atoms: O_2  and  C_3
REMARK    3  A    between atoms: C_6  and  C_7
REMARK    4  A    between atoms: C_7  and  C_8
REMARK    5  A    between atoms: C_8  and  N_9
REMARK    6  A    between atoms: C_10  and  C_12
REMARK    7  A    between atoms: C_12  and  O_13
REMARK    8  A    between atoms: O_13  and  C_14
REMARK    9  A    between atoms: C_16  and  C_17
REMARK   10  A    between atoms: C_24  and  C_25
REMARK   11  A    between atoms: C_28  and  O_29
REMARK   12  A    between atoms: O_29  and  C_30
REMARK                            x       y       z     vdW  Elec       q    Type
REMARK                         _______ _______ _______ _____ _____    ______ ____
ROOT
ATOM      1  N   UNL     1       0.770   9.881  17.939  0.00  0.00    +0.000 N 
ATOM      2  C   UNL     1       1.481   9.009  18.735  0.00  0.00    +0.000 C 
ATOM      3  O   UNL     1       1.326   8.939  19.954  0.00  0.00    +0.000 OA
ATOM      4  H   UNL     1       0.950   9.909  16.943  0.00  0.00    +0.000 HD
ENDROOT
BRANCH   1   5
ATOM      5  C   UNL     1      -0.126  10.870  18.514  0.00  0.00    +0.000 C 
BRANCH   5   6
ATOM      6  C   UNL     1       0.599  12.164  18.892  0.00  0.00    +0.000 C 
BRANCH   6  10
ATOM      7  C   UNL     1      -0.910  13.461  22.729  0.00  0.00    +0.000 A 
ATOM      8  C   UNL     1      -0.483  14.393  21.771  0.00  0.00    +0.000 A 
ATOM      9  C   UNL     1       0.036  13.984  20.541  0.00  0.00    +0.000 A 
ATOM     10  C   UNL     1       0.174  12.626  20.258  0.00  0.00    +0.000 A 
ATOM     11  C   UNL     1      -0.165  11.695  21.249  0.00  0.00    +0.000 A 
ATOM     12  C   UNL     1      -0.705  12.086  22.483  0.00  0.00    +0.000 A 
BRANCH   7  14
ATOM     13  C   UNL     1      -2.016  15.195  23.892  0.00  0.00    +0.000 C 
ATOM     14  O   UNL     1      -1.508  13.862  23.890  0.00  0.00    +0.000 OA
ENDBRANCH   7  14
BRANCH  12  15
ATOM     15  O   UNL     1      -0.985  11.017  23.287  0.00  0.00    +0.000 OA
ATOM     16  C   UNL     1      -0.306   9.794  23.085  0.00  0.00    +0.000 C 
ENDBRANCH  12  15
ENDBRANCH   6  10
ENDBRANCH   5   6
ENDBRANCH   1   5
BRANCH   2  17
ATOM     17  C   UNL     1       2.577   8.215  18.021  0.00  0.00    +0.000 C 
BRANCH  17  18
ATOM     18  O   UNL     1       3.325   7.271  18.788  0.00  0.00    +0.000 OA
BRANCH  18  19
ATOM     19  C   UNL     1       3.566   6.066  18.145  0.00  0.00    +0.000 A 
ATOM     20  C   UNL     1       4.524   5.975  17.100  0.00  0.00    +0.000 A 
ATOM     21  C   UNL     1       4.743   4.806  16.368  0.00  0.00    +0.000 A 
ATOM     22  C   UNL     1       5.719   4.771  15.230  0.00  0.00    +0.000 C 
ATOM     23  C   UNL     1       4.003   3.687  16.690  0.00  0.00    +0.000 A 
ATOM     24  C   UNL     1       3.080   3.751  17.737  0.00  0.00    +0.000 A 
ATOM     25  O   UNL     1       2.341   2.563  17.888  0.00  0.00    +0.000 OA
ATOM     26  C   UNL     1       1.188   2.624  18.620  0.00  0.00    +0.000 A 
ATOM     27  O   UNL     1       0.224   1.899  18.411  0.00  0.00    +0.000 OA
ATOM     28  C   UNL     1       1.180   3.599  19.710  0.00  0.00    +0.000 A 
ATOM     29  C   UNL     1       1.887   4.739  19.642  0.00  0.00    +0.000 A 
ATOM     30  C   UNL     1       1.661   5.781  20.697  0.00  0.00    +0.000 C 
ATOM     31  C   UNL     1       2.846   4.907  18.516  0.00  0.00    +0.000 A 
ENDBRANCH  18  19
ENDBRANCH  17  18
ENDBRANCH   2  17
TORSDOF 8
ENDMDL
MODEL 6
REMARK VINA RESULT:      -7.7      2.197      3.924
REMARK  Name = 
REMARK  12 active torsions:
REMARK  status: ('A' for Active; 'I' for Inactive)
REMARK    1  A    between atoms: C_1  and  O_2
REMARK    2  A    between atoms: O_2  and  C_3
REMARK    3  A    between atoms: C_6  and  C_7
REMARK    4  A    between atoms: C_7  and  C_8
REMARK    5  A    between atoms: C_8  and  N_9
REMARK    6  A    between atoms: C_10  and  C_12
REMARK    7  A    between atoms: C_12  and  O_13
REMARK    8  A    between atoms: O_13  and  C_14
REMARK    9  A    between atoms: C_16  and  C_17
REMARK   10  A    between atoms: C_24  and  C_25
REMARK   11  A    between atoms: C_28  and  O_29
REMARK   12  A    between atoms: O_29  and  C_30
REMARK                            x       y       z     vdW  Elec       q    Type
REMARK                         _______ _______ _______ _____ _____    ______ ____
ROOT
ATOM      1  N   UNL     1       0.469   9.567  18.310  0.00  0.00    +0.000 N 
ATOM      2  C   UNL     1       1.803   9.752  18.019  0.00  0.00    +0.000 C 
ATOM      3  O   UNL     1       2.343  10.858  18.032  0.00  0.00    +0.000 OA
ATOM      4  H   UNL     1       0.073   8.636  18.268  0.00  0.00    +0.000 HD
ENDROOT
BRANCH   1   5
ATOM      5  C   UNL     1      -0.420  10.694  18.529  0.00  0.00    +0.000 C 
BRANCH   5   6
ATOM      6  C   UNL     1      -1.698  10.600  17.693  0.00  0.00    +0.000 C 
BRANCH   6  10
ATOM      7  C   UNL     1      -4.929  12.644  19.709  0.00  0.00    +0.000 A 
ATOM      8  C   UNL     1      -5.139  12.004  18.479  0.00  0.00    +0.000 A 
ATOM      9  C   UNL     1      -4.095  11.369  17.803  0.00  0.00    +0.000 A 
ATOM     10  C   UNL     1      -2.805  11.394  18.330  0.00  0.00    +0.000 A 
ATOM     11  C   UNL     1      -2.575  12.110  19.511  0.00  0.00    +0.000 A 
ATOM     12  C   UNL     1      -3.613  12.739  20.214  0.00  0.00    +0.000 A 
BRANCH   7  14
ATOM     13  C   UNL     1      -6.553  12.319  21.395  0.00  0.00    +0.000 C 
ATOM     14  O   UNL     1      -5.968  13.178  20.417  0.00  0.00    +0.000 OA
ENDBRANCH   7  14
BRANCH  12  15
ATOM     15  O   UNL     1      -3.170  13.357  21.350  0.00  0.00    +0.000 OA
ATOM     16  C   UNL     1      -2.614  12.585  22.394  0.00  0.00    +0.000 C 
ENDBRANCH  12  15
ENDBRANCH   6  10
ENDBRANCH   5   6
ENDBRANCH   1   5
BRANCH   2  17
ATOM     17  C   UNL     1       2.552   8.502  17.550  0.00  0.00    +0.000 C 
BRANCH  17  18
ATOM     18  O   UNL     1       3.031   7.598  18.545  0.00  0.00    +0.000 OA
BRANCH  18  19
ATOM     19  C   UNL     1       3.375   6.342  18.067  0.00  0.00    +0.000 A 
ATOM     20  C   UNL     1       4.364   6.190  17.060  0.00  0.00    +0.000 A 
ATOM     21  C   UNL     1       4.686   4.956  16.488  0.00  0.00    +0.000 A 
ATOM     22  C   UNL     1       5.692   4.849  15.382  0.00  0.00    +0.000 C 
ATOM     23  C   UNL     1       4.018   3.835  16.938  0.00  0.00    +0.000 A 
ATOM     24  C   UNL     1       3.064   3.963  17.951  0.00  0.00    +0.000 A 
ATOM     25  O   UNL     1       2.408   2.754  18.241  0.00  0.00    +0.000 OA
ATOM     26  C   UNL     1       1.234   2.822  18.938  0.00  0.00    +0.000 A 
ATOM     27  O   UNL     1       0.329   2.007  18.807  0.00  0.00    +0.000 OA
ATOM     28  C   UNL     1       1.127   3.924  19.894  0.00  0.00    +0.000 A 
ATOM     29  C   UNL     1       1.754   5.096  19.692  0.00  0.00    +0.000 A 
ATOM     30  C   UNL     1       1.425   6.243  20.599  0.00  0.00    +0.000 C 
ATOM     31  C   UNL     1       2.728   5.189  18.571  0.00  0.00    +0.000 A 
ENDBRANCH  18  19
ENDBRANCH  17  18
ENDBRANCH   2  17
TORSDOF 8
ENDMDL
MODEL 7
REMARK VINA RESULT:      -7.7      2.705      4.520
REMARK  Name = 
REMARK  12 active torsions:
REMARK  status: ('A' for Active; 'I' for Inactive)
REMARK    1  A    between atoms: C_1  and  O_2
REMARK    2  A    between atoms: O_2  and  C_3
REMARK    3  A    between atoms: C_6  and  C_7
REMARK    4  A    between atoms: C_7  and  C_8
REMARK    5  A    between atoms: C_8  and  N_9
REMARK    6  A    between atoms: C_10  and  C_12
REMARK    7  A    between atoms: C_12  and  O_13
REMARK    8  A    between atoms: O_13  and  C_14
REMARK    9  A    between atoms: C_16  and  C_17
REMARK   10  A    between atoms: C_24  and  C_25
REMARK   11  A    between atoms: C_28  and  O_29
REMARK   12  A    between atoms: O_29  and  C_30
REMARK                            x       y       z     vdW  Elec       q    Type
REMARK                         _______ _______ _______ _____ _____    ______ ____
ROOT
ATOM      1  N   UNL     1       1.116  10.606  18.968  0.00  0.00    +0.000 N 
ATOM      2  C   UNL     1       1.999  10.047  18.071  0.00  0.00    +0.000 C 
ATOM      3  O   UNL     1       2.700  10.719  17.315  0.00  0.00    +0.000 OA
ATOM      4  H   UNL     1       0.551  10.005  19.555  0.00  0.00    +0.000 HD
ENDROOT
BRANCH   1   5
ATOM      5  C   UNL     1       0.865  12.037  18.990  0.00  0.00    +0.000 C 
BRANCH   5   6
ATOM      6  C   UNL     1      -0.621  12.371  18.841  0.00  0.00    +0.000 C 
BRANCH   6  10
ATOM      7  C   UNL     1      -2.672  12.077  22.634  0.00  0.00    +0.000 A 
ATOM      8  C   UNL     1      -3.247  12.767  21.556  0.00  0.00    +0.000 A 
ATOM      9  C   UNL     1      -2.579  12.896  20.337  0.00  0.00    +0.000 A 
ATOM     10  C   UNL     1      -1.299  12.366  20.183  0.00  0.00    +0.000 A 
ATOM     11  C   UNL     1      -0.686  11.757  21.286  0.00  0.00    +0.000 A 
ATOM     12  C   UNL     1      -1.348  11.602  22.513  0.00  0.00    +0.000 A 
BRANCH   7  14
ATOM     13  C   UNL     1      -3.952  13.027  24.378  0.00  0.00    +0.000 C 
ATOM     14  O   UNL     1      -3.366  11.866  23.792  0.00  0.00    +0.000 OA
ENDBRANCH   7  14
BRANCH  12  15
ATOM     15  O   UNL     1      -0.575  10.960  23.440  0.00  0.00    +0.000 OA
ATOM     16  C   UNL     1      -0.193   9.618  23.222  0.00  0.00    +0.000 C 
ENDBRANCH  12  15
ENDBRANCH   6  10
ENDBRANCH   5   6
ENDBRANCH   1   5
BRANCH   2  17
ATOM     17  C   UNL     1       1.962   8.519  17.980  0.00  0.00    +0.000 C 
BRANCH  17  18
ATOM     18  O   UNL     1       2.900   7.781  18.762  0.00  0.00    +0.000 OA
BRANCH  18  19
ATOM     19  C   UNL     1       3.310   6.583  18.195  0.00  0.00    +0.000 A 
ATOM     20  C   UNL     1       4.286   6.561  17.163  0.00  0.00    +0.000 A 
ATOM     21  C   UNL     1       4.671   5.391  16.504  0.00  0.00    +0.000 A 
ATOM     22  C   UNL     1       5.657   5.420  15.376  0.00  0.00    +0.000 C 
ATOM     23  C   UNL     1       4.083   4.203  16.888  0.00  0.00    +0.000 A 
ATOM     24  C   UNL     1       3.145   4.203  17.924  0.00  0.00    +0.000 A 
ATOM     25  O   UNL     1       2.571   2.938  18.143  0.00  0.00    +0.000 OA
ATOM     26  C   UNL     1       1.410   2.885  18.863  0.00  0.00    +0.000 A 
ATOM     27  O   UNL     1       0.555   2.026  18.692  0.00  0.00    +0.000 OA
ATOM     28  C   UNL     1       1.256   3.913  19.892  0.00  0.00    +0.000 A 
ATOM     29  C   UNL     1       1.804   5.132  19.759  0.00  0.00    +0.000 A 
ATOM     30  C   UNL     1       1.425   6.194  20.748  0.00  0.00    +0.000 C 
ATOM     31  C   UNL     1       2.747   5.361  18.630  0.00  0.00    +0.000 A 
ENDBRANCH  18  19
ENDBRANCH  17  18
ENDBRANCH   2  17
TORSDOF 8
ENDMDL
MODEL 8
REMARK VINA RESULT:      -7.6      1.645      1.764
REMARK  Name = 
REMARK  12 active torsions:
REMARK  status: ('A' for Active; 'I' for Inactive)
REMARK    1  A    between atoms: C_1  and  O_2
REMARK    2  A    between atoms: O_2  and  C_3
REMARK    3  A    between atoms: C_6  and  C_7
REMARK    4  A    between atoms: C_7  and  C_8
REMARK    5  A    between atoms: C_8  and  N_9
REMARK    6  A    between atoms: C_10  and  C_12
REMARK    7  A    between atoms: C_12  and  O_13
REMARK    8  A    between atoms: O_13  and  C_14
REMARK    9  A    between atoms: C_16  and  C_17
REMARK   10  A    between atoms: C_24  and  C_25
REMARK   11  A    between atoms: C_28  and  O_29
REMARK   12  A    between atoms: O_29  and  C_30
REMARK                            x       y       z     vdW  Elec       q    Type
REMARK                         _______ _______ _______ _____ _____    ______ ____
ROOT
ATOM      1  N   UNL     1       0.542   9.904  19.063  0.00  0.00    +0.000 N 
ATOM      2  C   UNL     1       1.630   9.316  18.457  0.00  0.00    +0.000 C 
ATOM      3  O   UNL     1       2.171   9.784  17.455  0.00  0.00    +0.000 OA
ATOM      4  H   UNL     1       0.125   9.467  19.877  0.00  0.00    +0.000 HD
ENDROOT
BRANCH   1   5
ATOM      5  C   UNL     1      -0.119  11.057  18.477  0.00  0.00    +0.000 C 
BRANCH   5   6
ATOM      6  C   UNL     1      -0.833  11.916  19.524  0.00  0.00    +0.000 C 
BRANCH   6  10
ATOM      7  C   UNL     1      -5.055  12.203  18.644  0.00  0.00    +0.000 A 
ATOM      8  C   UNL     1      -4.544  12.643  19.875  0.00  0.00    +0.000 A 
ATOM      9  C   UNL     1      -3.187  12.525  20.182  0.00  0.00    +0.000 A 
ATOM     10  C   UNL     1      -2.315  11.927  19.273  0.00  0.00    +0.000 A 
ATOM     11  C   UNL     1      -2.839  11.404  18.084  0.00  0.00    +0.000 A 
ATOM     12  C   UNL     1      -4.195  11.529  17.749  0.00  0.00    +0.000 A 
BRANCH   7  14
ATOM     13  C   UNL     1      -7.320  11.694  19.083  0.00  0.00    +0.000 C 
ATOM     14  O   UNL     1      -6.362  12.409  18.305  0.00  0.00    +0.000 OA
ENDBRANCH   7  14
BRANCH  12  15
ATOM     15  O   UNL     1      -4.483  10.971  16.535  0.00  0.00    +0.000 OA
ATOM     16  C   UNL     1      -3.484  10.915  15.538  0.00  0.00    +0.000 C 
ENDBRANCH  12  15
ENDBRANCH   6  10
ENDBRANCH   5   6
ENDBRANCH   1   5
BRANCH   2  17
ATOM     17  C   UNL     1       2.052   7.963  19.035  0.00  0.00    +0.000 C 
BRANCH  17  18
ATOM     18  O   UNL     1       2.132   6.852  18.142  0.00  0.00    +0.000 OA
BRANCH  18  19
ATOM     19  C   UNL     1       2.688   5.707  18.694  0.00  0.00    +0.000 A 
ATOM     20  C   UNL     1       1.944   4.894  19.590  0.00  0.00    +0.000 A 
ATOM     21  C   UNL     1       2.485   3.779  20.236  0.00  0.00    +0.000 A 
ATOM     22  C   UNL     1       1.684   2.986  21.223  0.00  0.00    +0.000 C 
ATOM     23  C   UNL     1       3.799   3.449  19.974  0.00  0.00    +0.000 A 
ATOM     24  C   UNL     1       4.535   4.219  19.070  0.00  0.00    +0.000 A 
ATOM     25  O   UNL     1       5.879   3.815  18.974  0.00  0.00    +0.000 OA
ATOM     26  C   UNL     1       6.765   4.693  18.414  0.00  0.00    +0.000 A 
ATOM     27  O   UNL     1       7.948   4.740  18.725  0.00  0.00    +0.000 OA
ATOM     28  C   UNL     1       6.220   5.569  17.376  0.00  0.00    +0.000 A 
ATOM     29  C   UNL     1       4.937   5.968  17.393  0.00  0.00    +0.000 A 
ATOM     30  C   UNL     1       4.510   7.030  16.425  0.00  0.00    +0.000 C 
ATOM     31  C   UNL     1       4.017   5.339  18.380  0.00  0.00    +0.000 A 
ENDBRANCH  18  19
ENDBRANCH  17  18
ENDBRANCH   2  17
TORSDOF 8
ENDMDL
MODEL 9
REMARK VINA RESULT:      -7.6      2.252      9.771
REMARK  Name = 
REMARK  12 active torsions:
REMARK  status: ('A' for Active; 'I' for Inactive)
REMARK    1  A    between atoms: C_1  and  O_2
REMARK    2  A    between atoms: O_2  and  C_3
REMARK    3  A    between atoms: C_6  and  C_7
REMARK    4  A    between atoms: C_7  and  C_8
REMARK    5  A    between atoms: C_8  and  N_9
REMARK    6  A    between atoms: C_10  and  C_12
REMARK    7  A    between atoms: C_12  and  O_13
REMARK    8  A    between atoms: O_13  and  C_14
REMARK    9  A    between atoms: C_16  and  C_17
REMARK   10  A    between atoms: C_24  and  C_25
REMARK   11  A    between atoms: C_28  and  O_29
REMARK   12  A    between atoms: O_29  and  C_30
REMARK                            x       y       z     vdW  Elec       q    Type
REMARK                         _______ _______ _______ _____ _____    ______ ____
ROOT
ATOM      1  N   UNL     1       2.112   7.445  19.359  0.00  0.00    +0.000 N 
ATOM      2  C   UNL     1       2.381   8.295  18.308  0.00  0.00    +0.000 C 
ATOM      3  O   UNL     1       3.323   8.126  17.535  0.00  0.00    +0.000 OA
ATOM      4  H   UNL     1       1.333   7.642  19.975  0.00  0.00    +0.000 HD
ENDROOT
BRANCH   1   5
ATOM      5  C   UNL     1       3.009   6.353  19.696  0.00  0.00    +0.000 C 
BRANCH   5   6
ATOM      6  C   UNL     1       2.843   5.152  18.762  0.00  0.00    +0.000 C 
BRANCH   6  10
ATOM      7  C   UNL     1       6.395   4.741  16.334  0.00  0.00    +0.000 A 
ATOM      8  C   UNL     1       5.232   4.016  16.036  0.00  0.00    +0.000 A 
ATOM      9  C   UNL     1       4.089   4.117  16.833  0.00  0.00    +0.000 A 
ATOM     10  C   UNL     1       4.100   4.921  17.971  0.00  0.00    +0.000 A 
ATOM     11  C   UNL     1       5.289   5.573  18.321  0.00  0.00    +0.000 A 
ATOM     12  C   UNL     1       6.441   5.500  17.525  0.00  0.00    +0.000 A 
BRANCH   7  14
ATOM     13  C   UNL     1       7.181   4.772  14.106  0.00  0.00    +0.000 C 
ATOM     14  O   UNL     1       7.477   4.719  15.501  0.00  0.00    +0.000 OA
ENDBRANCH   7  14
BRANCH  12  15
ATOM     15  O   UNL     1       7.475   6.230  18.040  0.00  0.00    +0.000 OA
ATOM     16  C   UNL     1       7.631   7.582  17.661  0.00  0.00    +0.000 C 
ENDBRANCH  12  15
ENDBRANCH   6  10
ENDBRANCH   5   6
ENDBRANCH   1   5
BRANCH   2  17
ATOM     17  C   UNL     1       1.504   9.549  18.238  0.00  0.00    +0.000 C 
BRANCH  17  18
ATOM     18  O   UNL     1       0.529   9.739  19.263  0.00  0.00    +0.000 OA
BRANCH  18  19
ATOM     19  C   UNL     1      -0.678  10.261  18.821  0.00  0.00    +0.000 A 
ATOM     20  C   UNL     1      -1.189   9.932  17.537  0.00  0.00    +0.000 A 
ATOM     21  C   UNL     1      -2.356  10.495  17.015  0.00  0.00    +0.000 A 
ATOM     22  C   UNL     1      -2.826  10.169  15.630  0.00  0.00    +0.000 C 
ATOM     23  C   UNL     1      -3.048  11.400  17.794  0.00  0.00    +0.000 A 
ATOM     24  C   UNL     1      -2.576  11.710  19.072  0.00  0.00    +0.000 A 
ATOM     25  O   UNL     1      -3.334  12.709  19.708  0.00  0.00    +0.000 OA
ATOM     26  C   UNL     1      -2.774  13.341  20.784  0.00  0.00    +0.000 A 
ATOM     27  O   UNL     1      -3.025  14.501  21.084  0.00  0.00    +0.000 OA
ATOM     28  C   UNL     1      -1.865  12.529  21.592  0.00  0.00    +0.000 A 
ATOM     29  C   UNL     1      -1.134  11.539  21.052  0.00  0.00    +0.000 A 
ATOM     30  C   UNL     1      -0.073  10.897  21.895  0.00  0.00    +0.000 C 
ATOM     31  C   UNL     1      -1.414  11.145  19.644  0.00  0.00    +0.000 A 
ENDBRANCH  18  19
ENDBRANCH  17  18
ENDBRANCH   2  17
TORSDOF 8
ENDMDL
