MODEL 1
REMARK VINA RESULT:      -7.6      0.000      0.000
REMARK  Name = 
REMARK  4 active torsions:
REMARK  status: ('A' for Active; 'I' for Inactive)
REMARK    1  A    between atoms: C_1  and  C_2
REMARK    2  A    between atoms: C_4  and  C_5
REMARK    3  A    between atoms: C_5  and  N_6
REMARK    4  A    between atoms: N_11  and  N_12
REMARK                            x       y       z     vdW  Elec       q    Type
REMARK                         _______ _______ _______ _____ _____    ______ ____
ROOT
ATOM      1  N   UNL     1       5.856   5.430  17.189  0.00  0.00    +0.000 N 
ATOM      2  C   UNL     1       6.474   4.984  18.433  0.00  0.00    +0.000 C 
ATOM      3  C   UNL     1       7.913   4.715  17.980  0.00  0.00    +0.000 C 
ATOM      4  N   UNL     1       7.734   4.489  16.557  0.00  0.00    +0.000 N 
ATOM      5  C   UNL     1       6.600   5.105  16.065  0.00  0.00    +0.000 C 
ATOM      6  N   UNL     1       6.248   5.388  14.858  0.00  0.00    +0.000 NA
ATOM      7  H   UNL     1       8.557   4.497  15.956  0.00  0.00    +0.000 HD
ENDROOT
BRANCH   6   8
ATOM      8  N   UNL     1       7.061   5.007  13.859  0.00  0.00    +0.000 N 
ATOM      9  O   UNL     1       6.758   4.062  13.110  0.00  0.00    +0.000 OA
ATOM     10  O   UNL     1       8.143   5.606  13.756  0.00  0.00    +0.000 OA
ENDBRANCH   6   8
BRANCH   1  11
ATOM     11  C   UNL     1       4.533   6.014  17.187  0.00  0.00    +0.000 C 
BRANCH  11  15
ATOM     12  C   UNL     1       1.066   4.548  20.552  0.00  0.00    +0.000 C 
ATOM     13  C   UNL     1       1.811   4.330  19.271  0.00  0.00    +0.000 A 
ATOM     14  C   UNL     1       2.778   5.249  18.848  0.00  0.00    +0.000 A 
ATOM     15  C   UNL     1       3.485   5.043  17.658  0.00  0.00    +0.000 A 
ATOM     16  C   UNL     1       3.175   3.902  16.926  0.00  0.00    +0.000 A 
ATOM     17  N   UNL     1       2.246   2.994  17.291  0.00  0.00    +0.000 NA
ATOM     18  C   UNL     1       1.586   3.232  18.446  0.00  0.00    +0.000 A 
ATOM     19 CL   UNL     1       0.414   2.026  18.814  0.00  0.00    +0.000 Cl
ENDBRANCH  11  15
ENDBRANCH   1  11
TORSDOF 3
ENDMDL
MODEL 2
REMARK VINA RESULT:      -7.2      1.159      1.651
REMARK  Name = 
REMARK  4 active torsions:
REMARK  status: ('A' for Active; 'I' for Inactive)
REMARK    1  A    between atoms: C_1  and  C_2
REMARK    2  A    between atoms: C_4  and  C_5
REMARK    3  A    between atoms: C_5  and  N_6
REMARK    4  A    between atoms: N_11  and  N_12
REMARK                            x       y       z     vdW  Elec       q    Type
REMARK                         _______ _______ _______ _____ _____    ______ ____
ROOT
ATOM      1  N   UNL     1       5.998   5.714  17.394  0.00  0.00    +0.000 N 
ATOM      2  C   UNL     1       6.645   5.293  18.632  0.00  0.00    +0.000 C 
ATOM      3  C   UNL     1       8.031   4.876  18.127  0.00  0.00    +0.000 C 
ATOM      4  N   UNL     1       7.757   4.581  16.732  0.00  0.00    +0.000 N 
ATOM      5  C   UNL     1       6.652   5.260  16.258  0.00  0.00    +0.000 C 
ATOM      6  N   UNL     1       6.259   5.499  15.054  0.00  0.00    +0.000 NA
ATOM      7  H   UNL     1       8.544   4.484  16.092  0.00  0.00    +0.000 HD
ENDROOT
BRANCH   6   8
ATOM      8  N   UNL     1       6.984   4.992  14.042  0.00  0.00    +0.000 N 
ATOM      9  O   UNL     1       6.602   3.983  13.423  0.00  0.00    +0.000 OA
ATOM     10  O   UNL     1       8.068   5.542  13.796  0.00  0.00    +0.000 OA
ENDBRANCH   6   8
BRANCH   1  11
ATOM     11  C   UNL     1       4.729   6.406  17.419  0.00  0.00    +0.000 C 
BRANCH  11  15
ATOM     12  C   UNL     1       1.943   2.238  18.008  0.00  0.00    +0.000 C 
ATOM     13  C   UNL     1       2.327   3.619  18.441  0.00  0.00    +0.000 A 
ATOM     14  C   UNL     1       3.318   4.328  17.752  0.00  0.00    +0.000 A 
ATOM     15  C   UNL     1       3.671   5.623  18.147  0.00  0.00    +0.000 A 
ATOM     16  C   UNL     1       3.005   6.156  19.245  0.00  0.00    +0.000 A 
ATOM     17  N   UNL     1       2.050   5.507  19.943  0.00  0.00    +0.000 NA
ATOM     18  C   UNL     1       1.740   4.258  19.529  0.00  0.00    +0.000 A 
ATOM     19 CL   UNL     1       0.524   3.511  20.493  0.00  0.00    +0.000 Cl
ENDBRANCH  11  15
ENDBRANCH   1  11
TORSDOF 3
ENDMDL
MODEL 3
REMARK VINA RESULT:      -7.1      4.167      6.425
REMARK  Name = 
REMARK  4 active torsions:
REMARK  status: ('A' for Active; 'I' for Inactive)
REMARK    1  A    between atoms: C_1  and  C_2
REMARK    2  A    between atoms: C_4  and  C_5
REMARK    3  A    between atoms: C_5  and  N_6
REMARK    4  A    between atoms: N_11  and  N_12
REMARK                            x       y       z     vdW  Elec       q    Type
REMARK                         _______ _______ _______ _____ _____    ______ ____
ROOT
ATOM      1  N   UNL     1       4.159   4.777  17.976  0.00  0.00    +0.000 N 
ATOM      2  C   UNL     1       4.017   6.178  17.595  0.00  0.00    +0.000 C 
ATOM      3  C   UNL     1       2.673   6.536  18.239  0.00  0.00    +0.000 C 
ATOM      4  N   UNL     1       2.044   5.232  18.349  0.00  0.00    +0.000 N 
ATOM      5  C   UNL     1       2.968   4.206  18.400  0.00  0.00    +0.000 C 
ATOM      6  N   UNL     1       2.848   2.980  18.777  0.00  0.00    +0.000 NA
ATOM      7  H   UNL     1       1.221   5.138  18.942  0.00  0.00    +0.000 HD
ENDROOT
BRANCH   6   8
ATOM      8  N   UNL     1       1.632   2.553  19.157  0.00  0.00    +0.000 N 
ATOM      9  O   UNL     1       0.775   2.228  18.316  0.00  0.00    +0.000 OA
ATOM     10  O   UNL     1       1.392   2.552  20.374  0.00  0.00    +0.000 OA
ENDBRANCH   6   8
BRANCH   1  11
ATOM     11  C   UNL     1       5.406   4.075  17.771  0.00  0.00    +0.000 C 
BRANCH  11  15
ATOM     12  C   UNL     1       5.590   3.382  12.774  0.00  0.00    +0.000 C 
ATOM     13  C   UNL     1       6.100   4.045  14.016  0.00  0.00    +0.000 A 
ATOM     14  C   UNL     1       5.524   3.761  15.259  0.00  0.00    +0.000 A 
ATOM     15  C   UNL     1       6.006   4.370  16.424  0.00  0.00    +0.000 A 
ATOM     16  C   UNL     1       7.063   5.261  16.282  0.00  0.00    +0.000 A 
ATOM     17  N   UNL     1       7.644   5.571  15.104  0.00  0.00    +0.000 NA
ATOM     18  C   UNL     1       7.147   4.962  14.005  0.00  0.00    +0.000 A 
ATOM     19 CL   UNL     1       7.944   5.435  12.554  0.00  0.00    +0.000 Cl
ENDBRANCH  11  15
ENDBRANCH   1  11
TORSDOF 3
ENDMDL
MODEL 4
REMARK VINA RESULT:      -7.0      3.698      4.654
REMARK  Name = 
REMARK  4 active torsions:
REMARK  status: ('A' for Active; 'I' for Inactive)
REMARK    1  A    between atoms: C_1  and  C_2
REMARK    2  A    between atoms: C_4  and  C_5
REMARK    3  A    between atoms: C_5  and  N_6
REMARK    4  A    between atoms: N_11  and  N_12
REMARK                            x       y       z     vdW  Elec       q    Type
REMARK                         _______ _______ _______ _____ _____    ______ ____
ROOT
ATOM      1  N   UNL     1       3.682   4.059  18.521  0.00  0.00    +0.000 N 
ATOM      2  C   UNL     1       3.033   2.822  18.940  0.00  0.00    +0.000 C 
ATOM      3  C   UNL     1       4.031   2.288  19.974  0.00  0.00    +0.000 C 
ATOM      4  N   UNL     1       5.260   2.942  19.560  0.00  0.00    +0.000 N 
ATOM      5  C   UNL     1       5.024   4.114  18.869  0.00  0.00    +0.000 C 
ATOM      6  N   UNL     1       5.802   5.104  18.595  0.00  0.00    +0.000 NA
ATOM      7  H   UNL     1       6.051   2.939  20.201  0.00  0.00    +0.000 HD
ENDROOT
BRANCH   6   8
ATOM      8  N   UNL     1       7.085   5.024  18.985  0.00  0.00    +0.000 N 
ATOM      9  O   UNL     1       7.454   5.489  20.078  0.00  0.00    +0.000 OA
ATOM     10  O   UNL     1       7.885   4.517  18.183  0.00  0.00    +0.000 OA
ENDBRANCH   6   8
BRANCH   1  11
ATOM     11  C   UNL     1       2.981   5.023  17.703  0.00  0.00    +0.000 C 
BRANCH  11  15
ATOM     12  C   UNL     1       1.780   9.912  18.080  0.00  0.00    +0.000 C 
ATOM     13  C   UNL     1       1.915   8.554  18.695  0.00  0.00    +0.000 A 
ATOM     14  C   UNL     1       2.360   7.470  17.930  0.00  0.00    +0.000 A 
ATOM     15  C   UNL     1       2.499   6.201  18.504  0.00  0.00    +0.000 A 
ATOM     16  C   UNL     1       2.169   6.075  19.848  0.00  0.00    +0.000 A 
ATOM     17  N   UNL     1       1.729   7.089  20.622  0.00  0.00    +0.000 NA
ATOM     18  C   UNL     1       1.608   8.296  20.028  0.00  0.00    +0.000 A 
ATOM     19 CL   UNL     1       1.025   9.517  21.093  0.00  0.00    +0.000 Cl
ENDBRANCH  11  15
ENDBRANCH   1  11
TORSDOF 3
ENDMDL
MODEL 5
REMARK VINA RESULT:      -7.0      2.345      2.895
REMARK  Name = 
REMARK  4 active torsions:
REMARK  status: ('A' for Active; 'I' for Inactive)
REMARK    1  A    between atoms: C_1  and  C_2
REMARK    2  A    between atoms: C_4  and  C_5
REMARK    3  A    between atoms: C_5  and  N_6
REMARK    4  A    between atoms: N_11  and  N_12
REMARK                            x       y       z     vdW  Elec       q    Type
REMARK                         _______ _______ _______ _____ _____    ______ ____
ROOT
ATOM      1  N   UNL     1       5.468   4.521  17.480  0.00  0.00    +0.000 N 
ATOM      2  C   UNL     1       6.305   4.670  18.666  0.00  0.00    +0.000 C 
ATOM      3  C   UNL     1       7.606   5.203  18.058  0.00  0.00    +0.000 C 
ATOM      4  N   UNL     1       7.504   4.732  16.687  0.00  0.00    +0.000 N 
ATOM      5  C   UNL     1       6.194   4.530  16.298  0.00  0.00    +0.000 C 
ATOM      6  N   UNL     1       5.670   4.405  15.127  0.00  0.00    +0.000 NA
ATOM      7  H   UNL     1       8.134   5.125  15.990  0.00  0.00    +0.000 HD
ENDROOT
BRANCH   6   8
ATOM      8  N   UNL     1       6.492   4.423  14.064  0.00  0.00    +0.000 N 
ATOM      9  O   UNL     1       7.341   5.321  13.925  0.00  0.00    +0.000 OA
ATOM     10  O   UNL     1       6.326   3.538  13.211  0.00  0.00    +0.000 OA
ENDBRANCH   6   8
BRANCH   1  11
ATOM     11  C   UNL     1       4.053   4.250  17.600  0.00  0.00    +0.000 C 
BRANCH  11  15
ATOM     12  C   UNL     1       2.243   8.948  17.980  0.00  0.00    +0.000 C 
ATOM     13  C   UNL     1       2.456   7.584  18.561  0.00  0.00    +0.000 A 
ATOM     14  C   UNL     1       3.123   6.597  17.826  0.00  0.00    +0.000 A 
ATOM     15  C   UNL     1       3.334   5.325  18.370  0.00  0.00    +0.000 A 
ATOM     16  C   UNL     1       2.850   5.095  19.652  0.00  0.00    +0.000 A 
ATOM     17  N   UNL     1       2.196   6.013  20.394  0.00  0.00    +0.000 NA
ATOM     18  C   UNL     1       2.011   7.228  19.830  0.00  0.00    +0.000 A 
ATOM     19 CL   UNL     1       1.155   8.320  20.849  0.00  0.00    +0.000 Cl
ENDBRANCH  11  15
ENDBRANCH   1  11
TORSDOF 3
ENDMDL
MODEL 6
REMARK VINA RESULT:      -7.0      1.277      1.330
REMARK  Name = 
REMARK  4 active torsions:
REMARK  status: ('A' for Active; 'I' for Inactive)
REMARK    1  A    between atoms: C_1  and  C_2
REMARK    2  A    between atoms: C_4  and  C_5
REMARK    3  A    between atoms: C_5  and  N_6
REMARK    4  A    between atoms: N_11  and  N_12
REMARK                            x       y       z     vdW  Elec       q    Type
REMARK                         _______ _______ _______ _____ _____    ______ ____
ROOT
ATOM      1  N   UNL     1       5.543   4.528  16.781  0.00  0.00    +0.000 N 
ATOM      2  C   UNL     1       6.179   4.356  18.082  0.00  0.00    +0.000 C 
ATOM      3  C   UNL     1       7.620   4.779  17.778  0.00  0.00    +0.000 C 
ATOM      4  N   UNL     1       7.694   4.556  16.345  0.00  0.00    +0.000 N 
ATOM      5  C   UNL     1       6.454   4.618  15.739  0.00  0.00    +0.000 C 
ATOM      6  N   UNL     1       6.125   4.764  14.501  0.00  0.00    +0.000 NA
ATOM      7  H   UNL     1       8.476   4.957  15.830  0.00  0.00    +0.000 HD
ENDROOT
BRANCH   6   8
ATOM      8  N   UNL     1       7.111   4.829  13.591  0.00  0.00    +0.000 N 
ATOM      9  O   UNL     1       7.136   4.057  12.616  0.00  0.00    +0.000 OA
ATOM     10  O   UNL     1       8.013   5.655  13.799  0.00  0.00    +0.000 OA
ENDBRANCH   6   8
BRANCH   1  11
ATOM     11  C   UNL     1       4.106   4.457  16.642  0.00  0.00    +0.000 C 
BRANCH  11  15
ATOM     12  C   UNL     1       1.574   5.646  20.845  0.00  0.00    +0.000 C 
ATOM     13  C   UNL     1       2.210   4.625  19.953  0.00  0.00    +0.000 A 
ATOM     14  C   UNL     1       2.827   5.013  18.759  0.00  0.00    +0.000 A 
ATOM     15  C   UNL     1       3.432   4.063  17.929  0.00  0.00    +0.000 A 
ATOM     16  C   UNL     1       3.383   2.737  18.342  0.00  0.00    +0.000 A 
ATOM     17  N   UNL     1       2.794   2.316  19.481  0.00  0.00    +0.000 NA
ATOM     18  C   UNL     1       2.220   3.266  20.252  0.00  0.00    +0.000 A 
ATOM     19 CL   UNL     1       1.483   2.627  21.671  0.00  0.00    +0.000 Cl
ENDBRANCH  11  15
ENDBRANCH   1  11
TORSDOF 3
ENDMDL
MODEL 7
REMARK VINA RESULT:      -6.9      3.114      3.967
REMARK  Name = 
REMARK  4 active torsions:
REMARK  status: ('A' for Active; 'I' for Inactive)
REMARK    1  A    between atoms: C_1  and  C_2
REMARK    2  A    between atoms: C_4  and  C_5
REMARK    3  A    between atoms: C_5  and  N_6
REMARK    4  A    between atoms: N_11  and  N_12
REMARK                            x       y       z     vdW  Elec       q    Type
REMARK                         _______ _______ _______ _____ _____    ______ ____
ROOT
ATOM      1  N   UNL     1       5.428   4.228  17.085  0.00  0.00    +0.000 N 
ATOM      2  C   UNL     1       5.580   4.191  15.635  0.00  0.00    +0.000 C 
ATOM      3  C   UNL     1       7.080   4.464  15.478  0.00  0.00    +0.000 C 
ATOM      4  N   UNL     1       7.384   5.153  16.720  0.00  0.00    +0.000 N 
ATOM      5  C   UNL     1       6.497   4.832  17.729  0.00  0.00    +0.000 C 
ATOM      6  N   UNL     1       6.579   4.987  19.006  0.00  0.00    +0.000 NA
ATOM      7  H   UNL     1       8.360   5.267  16.986  0.00  0.00    +0.000 HD
ENDROOT
BRANCH   6   8
ATOM      8  N   UNL     1       7.670   5.597  19.498  0.00  0.00    +0.000 N 
ATOM      9  O   UNL     1       8.238   5.172  20.520  0.00  0.00    +0.000 OA
ATOM     10  O   UNL     1       8.047   6.628  18.919  0.00  0.00    +0.000 OA
ENDBRANCH   6   8
BRANCH   1  11
ATOM     11  C   UNL     1       4.199   3.796  17.713  0.00  0.00    +0.000 C 
BRANCH  11  15
ATOM     12  C   UNL     1       2.416   8.518  17.809  0.00  0.00    +0.000 C 
ATOM     13  C   UNL     1       2.633   7.195  18.475  0.00  0.00    +0.000 A 
ATOM     14  C   UNL     1       3.283   6.158  17.797  0.00  0.00    +0.000 A 
ATOM     15  C   UNL     1       3.498   4.923  18.421  0.00  0.00    +0.000 A 
ATOM     16  C   UNL     1       3.034   4.782  19.723  0.00  0.00    +0.000 A 
ATOM     17  N   UNL     1       2.396   5.751  20.413  0.00  0.00    +0.000 NA
ATOM     18  C   UNL     1       2.208   6.926  19.773  0.00  0.00    +0.000 A 
ATOM     19 CL   UNL     1       1.373   8.089  20.730  0.00  0.00    +0.000 Cl
ENDBRANCH  11  15
ENDBRANCH   1  11
TORSDOF 3
ENDMDL
MODEL 8
REMARK VINA RESULT:      -6.9      4.483      6.580
REMARK  Name = 
REMARK  4 active torsions:
REMARK  status: ('A' for Active; 'I' for Inactive)
REMARK    1  A    between atoms: C_1  and  C_2
REMARK    2  A    between atoms: C_4  and  C_5
REMARK    3  A    between atoms: C_5  and  N_6
REMARK    4  A    between atoms: N_11  and  N_12
REMARK                            x       y       z     vdW  Elec       q    Type
REMARK                         _______ _______ _______ _____ _____    ______ ____
ROOT
ATOM      1  N   UNL     1       4.150   4.943  18.468  0.00  0.00    +0.000 N 
ATOM      2  C   UNL     1       3.889   6.151  17.693  0.00  0.00    +0.000 C 
ATOM      3  C   UNL     1       2.753   6.792  18.497  0.00  0.00    +0.000 C 
ATOM      4  N   UNL     1       2.198   5.641  19.187  0.00  0.00    +0.000 N 
ATOM      5  C   UNL     1       3.121   4.625  19.341  0.00  0.00    +0.000 C 
ATOM      6  N   UNL     1       3.125   3.598  20.120  0.00  0.00    +0.000 NA
ATOM      7  H   UNL     1       1.559   5.802  19.964  0.00  0.00    +0.000 HD
ENDROOT
BRANCH   6   8
ATOM      8  N   UNL     1       2.058   3.404  20.912  0.00  0.00    +0.000 N 
ATOM      9  O   UNL     1       2.178   3.345  22.149  0.00  0.00    +0.000 OA
ATOM     10  O   UNL     1       0.965   3.234  20.350  0.00  0.00    +0.000 OA
ENDBRANCH   6   8
BRANCH   1  11
ATOM     11  C   UNL     1       5.314   4.128  18.200  0.00  0.00    +0.000 C 
BRANCH  11  15
ATOM     12  C   UNL     1       5.416   3.515  13.190  0.00  0.00    +0.000 C 
ATOM     13  C   UNL     1       5.967   4.134  14.437  0.00  0.00    +0.000 A 
ATOM     14  C   UNL     1       5.392   3.852  15.682  0.00  0.00    +0.000 A 
ATOM     15  C   UNL     1       5.912   4.420  16.851  0.00  0.00    +0.000 A 
ATOM     16  C   UNL     1       7.004   5.269  16.713  0.00  0.00    +0.000 A 
ATOM     17  N   UNL     1       7.585   5.574  15.534  0.00  0.00    +0.000 NA
ATOM     18  C   UNL     1       7.051   5.006  14.430  0.00  0.00    +0.000 A 
ATOM     19 CL   UNL     1       7.853   5.470  12.979  0.00  0.00    +0.000 Cl
ENDBRANCH  11  15
ENDBRANCH   1  11
TORSDOF 3
ENDMDL
MODEL 9
REMARK VINA RESULT:      -6.9      4.053      6.135
REMARK  Name = 
REMARK  4 active torsions:
REMARK  status: ('A' for Active; 'I' for Inactive)
REMARK    1  A    between atoms: C_1  and  C_2
REMARK    2  A    between atoms: C_4  and  C_5
REMARK    3  A    between atoms: C_5  and  N_6
REMARK    4  A    between atoms: N_11  and  N_12
REMARK                            x       y       z     vdW  Elec       q    Type
REMARK                         _______ _______ _______ _____ _____    ______ ____
ROOT
ATOM      1  N   UNL     1       4.048   4.176  17.937  0.00  0.00    +0.000 N 
ATOM      2  C   UNL     1       3.305   2.922  17.882  0.00  0.00    +0.000 C 
ATOM      3  C   UNL     1       1.881   3.421  17.618  0.00  0.00    +0.000 C 
ATOM      4  N   UNL     1       1.946   4.779  18.129  0.00  0.00    +0.000 N 
ATOM      5  C   UNL     1       3.232   5.284  18.114  0.00  0.00    +0.000 C 
ATOM      6  N   UNL     1       3.665   6.494  18.200  0.00  0.00    +0.000 NA
ATOM      7  H   UNL     1       1.197   5.425  17.888  0.00  0.00    +0.000 HD
ENDROOT
BRANCH   6   8
ATOM      8  N   UNL     1       2.764   7.475  18.380  0.00  0.00    +0.000 N 
ATOM      9  O   UNL     1       2.590   8.352  17.516  0.00  0.00    +0.000 OA
ATOM     10  O   UNL     1       2.159   7.490  19.463  0.00  0.00    +0.000 OA
ENDBRANCH   6   8
BRANCH   1  11
ATOM     11  C   UNL     1       5.494   4.182  17.946  0.00  0.00    +0.000 C 
BRANCH  11  15
ATOM     12  C   UNL     1       5.603   3.417  12.957  0.00  0.00    +0.000 C 
ATOM     13  C   UNL     1       6.125   4.104  14.181  0.00  0.00    +0.000 A 
ATOM     14  C   UNL     1       5.574   3.832  15.438  0.00  0.00    +0.000 A 
ATOM     15  C   UNL     1       6.067   4.464  16.585  0.00  0.00    +0.000 A 
ATOM     16  C   UNL     1       7.110   5.366  16.412  0.00  0.00    +0.000 A 
ATOM     17  N   UNL     1       7.668   5.665  15.220  0.00  0.00    +0.000 NA
ATOM     18  C   UNL     1       7.160   5.034  14.138  0.00  0.00    +0.000 A 
ATOM     19 CL   UNL     1       7.927   5.495  12.667  0.00  0.00    +0.000 Cl
ENDBRANCH  11  15
ENDBRANCH   1  11
TORSDOF 3
ENDMDL
