MODEL 1
REMARK VINA RESULT:      -8.6      0.000      0.000
REMARK  Name = 
REMARK  8 active torsions:
REMARK  status: ('A' for Active; 'I' for Inactive)
REMARK    1  A    between atoms: O_1  and  C_2
REMARK    2  A    between atoms: C_2  and  C_3
REMARK    3  A    between atoms: C_3  and  N_4
REMARK    4  A    between atoms: N_4  and  C_5
REMARK    5  A    between atoms: C_5  and  C_6
REMARK    6  A    between atoms: N_14  and  C_15
REMARK    7  A    between atoms: C_15  and  C_16
REMARK    8  A    between atoms: C_16  and  C_17
REMARK                            x       y       z     vdW  Elec       q    Type
REMARK                         _______ _______ _______ _____ _____    ______ ____
ROOT
ATOM      1  C   UNL     1       5.943   5.256  17.478  0.00  0.00    +0.000 C 
ATOM      2  C   UNL     1       7.445   5.290  17.817  0.00  0.00    +0.000 C 
ATOM      3  C   UNL     1       7.941   6.685  18.284  0.00  0.00    +0.000 C 
ATOM      4  N   UNL     1       7.601   7.768  17.342  0.00  0.00    +0.000 NA
ATOM      5  C   UNL     1       6.140   7.767  17.115  0.00  0.00    +0.000 C 
ATOM      6  C   UNL     1       5.624   6.435  16.552  0.00  0.00    +0.000 C 
ENDROOT
BRANCH   1   7
ATOM      7  O   UNL     1       5.175   5.431  18.682  0.00  0.00    +0.000 OA
ATOM      8  H   UNL     1       4.535   4.701  18.710  0.00  0.00    +0.000 HD
ENDBRANCH   1   7
BRANCH   1   9
ATOM      9  C   UNL     1       5.487   3.906  16.817  0.00  0.00    +0.000 C 
BRANCH   9  10
ATOM     10  N   UNL     1       4.801   2.999  17.759  0.00  0.00    +0.000 NA
ATOM     11  H   UNL     1       4.964   3.301  18.718  0.00  0.00    +0.000 HD
BRANCH  10  12
ATOM     12  C   UNL     1       3.342   2.995  17.579  0.00  0.00    +0.000 C 
BRANCH  12  13
ATOM     13  C   UNL     1       2.655   2.978  18.928  0.00  0.00    +0.000 A 
ATOM     14  C   UNL     1       3.356   2.640  20.102  0.00  0.00    +0.000 A 
ATOM     15  C   UNL     1       2.691   2.609  21.333  0.00  0.00    +0.000 A 
ATOM     16  C   UNL     1       1.333   2.925  21.411  0.00  0.00    +0.000 A 
ATOM     17  C   UNL     1       0.644   3.272  20.261  0.00  0.00    +0.000 A 
ATOM     18  C   UNL     1       1.306   3.311  19.040  0.00  0.00    +0.000 A 
ENDBRANCH  12  13
ENDBRANCH  10  12
ENDBRANCH   9  10
ENDBRANCH   1   9
BRANCH   4  19
ATOM     19  C   UNL     1       8.010   9.137  17.811  0.00  0.00    +0.000 C 
BRANCH  19  20
ATOM     20  C   UNL     1       8.911   9.206  19.058  0.00  0.00    +0.000 C 
BRANCH  20  21
ATOM     21  C   UNL     1       9.409  10.579  19.487  0.00  0.00    +0.000 A 
ATOM     22  C   UNL     1       9.313  11.035  20.794  0.00  0.00    +0.000 A 
ATOM     23  N   UNL     1       9.339  12.399  20.746  0.00  0.00    +0.000 N 
ATOM     24  C   UNL     1       9.985  12.794  19.606  0.00  0.00    +0.000 A 
ATOM     25  C   UNL     1      10.512  14.056  19.286  0.00  0.00    +0.000 A 
ATOM     26  C   UNL     1      11.141  14.179  18.053  0.00  0.00    +0.000 A 
ATOM     27  C   UNL     1      11.145  13.109  17.165  0.00  0.00    +0.000 A 
ATOM     28  F   UNL     1      11.760  13.269  15.980  0.00  0.00    +0.000 F 
ATOM     29  C   UNL     1      10.553  11.876  17.468  0.00  0.00    +0.000 A 
ATOM     30  C   UNL     1      10.004  11.681  18.753  0.00  0.00    +0.000 A 
ATOM     31  H   UNL     1       9.005  13.020  21.470  0.00  0.00    +0.000 HD
ENDBRANCH  20  21
ENDBRANCH  19  20
ENDBRANCH   4  19
TORSDOF 8
ENDMDL
MODEL 2
REMARK VINA RESULT:      -8.3      0.721      1.179
REMARK  Name = 
REMARK  8 active torsions:
REMARK  status: ('A' for Active; 'I' for Inactive)
REMARK    1  A    between atoms: O_1  and  C_2
REMARK    2  A    between atoms: C_2  and  C_3
REMARK    3  A    between atoms: C_3  and  N_4
REMARK    4  A    between atoms: N_4  and  C_5
REMARK    5  A    between atoms: C_5  and  C_6
REMARK    6  A    between atoms: N_14  and  C_15
REMARK    7  A    between atoms: C_15  and  C_16
REMARK    8  A    between atoms: C_16  and  C_17
REMARK                            x       y       z     vdW  Elec       q    Type
REMARK                         _______ _______ _______ _____ _____    ______ ____
ROOT
ATOM      1  C   UNL     1       5.435   5.288  17.385  0.00  0.00    +0.000 C 
ATOM      2  C   UNL     1       6.688   4.729  18.087  0.00  0.00    +0.000 C 
ATOM      3  C   UNL     1       7.487   5.803  18.871  0.00  0.00    +0.000 C 
ATOM      4  N   UNL     1       7.837   6.981  18.054  0.00  0.00    +0.000 NA
ATOM      5  C   UNL     1       6.600   7.549  17.474  0.00  0.00    +0.000 C 
ATOM      6  C   UNL     1       5.833   6.544  16.603  0.00  0.00    +0.000 C 
ENDROOT
BRANCH   1   7
ATOM      7  O   UNL     1       4.467   5.682  18.374  0.00  0.00    +0.000 OA
ATOM      8  H   UNL     1       3.818   6.242  17.917  0.00  0.00    +0.000 HD
ENDBRANCH   1   7
BRANCH   1   9
ATOM      9  C   UNL     1       4.743   4.248  16.432  0.00  0.00    +0.000 C 
BRANCH   9  10
ATOM     10  N   UNL     1       3.454   3.749  16.952  0.00  0.00    +0.000 NA
ATOM     11  H   UNL     1       2.844   3.485  16.181  0.00  0.00    +0.000 HD
BRANCH  10  12
ATOM     12  C   UNL     1       3.607   2.544  17.780  0.00  0.00    +0.000 C 
BRANCH  12  13
ATOM     13  C   UNL     1       2.803   2.688  19.054  0.00  0.00    +0.000 A 
ATOM     14  C   UNL     1       1.435   3.019  19.024  0.00  0.00    +0.000 A 
ATOM     15  C   UNL     1       0.721   3.170  20.219  0.00  0.00    +0.000 A 
ATOM     16  C   UNL     1       1.355   2.981  21.449  0.00  0.00    +0.000 A 
ATOM     17  C   UNL     1       2.697   2.641  21.482  0.00  0.00    +0.000 A 
ATOM     18  C   UNL     1       3.403   2.483  20.297  0.00  0.00    +0.000 A 
ENDBRANCH  12  13
ENDBRANCH  10  12
ENDBRANCH   9  10
ENDBRANCH   1   9
BRANCH   4  19
ATOM     19  C   UNL     1       8.548   8.064  18.814  0.00  0.00    +0.000 C 
BRANCH  19  20
ATOM     20  C   UNL     1       8.505   9.481  18.212  0.00  0.00    +0.000 C 
BRANCH  20  21
ATOM     21  C   UNL     1       9.231  10.586  18.968  0.00  0.00    +0.000 A 
ATOM     22  C   UNL     1       9.369  10.582  20.348  0.00  0.00    +0.000 A 
ATOM     23  N   UNL     1       9.566  11.876  20.736  0.00  0.00    +0.000 N 
ATOM     24  C   UNL     1      10.103  12.578  19.690  0.00  0.00    +0.000 A 
ATOM     25  C   UNL     1      10.745  13.827  19.707  0.00  0.00    +0.000 A 
ATOM     26  C   UNL     1      11.217  14.307  18.491  0.00  0.00    +0.000 A 
ATOM     27  C   UNL     1      10.964  13.601  17.321  0.00  0.00    +0.000 A 
ATOM     28  F   UNL     1      11.434  14.100  16.164  0.00  0.00    +0.000 F 
ATOM     29  C   UNL     1      10.260  12.390  17.308  0.00  0.00    +0.000 A 
ATOM     30  C   UNL     1       9.864  11.819  18.536  0.00  0.00    +0.000 A 
ATOM     31  H   UNL     1       9.415  12.242  21.665  0.00  0.00    +0.000 HD
ENDBRANCH  20  21
ENDBRANCH  19  20
ENDBRANCH   4  19
TORSDOF 8
ENDMDL
MODEL 3
REMARK VINA RESULT:      -8.3      1.072      1.346
REMARK  Name = 
REMARK  8 active torsions:
REMARK  status: ('A' for Active; 'I' for Inactive)
REMARK    1  A    between atoms: O_1  and  C_2
REMARK    2  A    between atoms: C_2  and  C_3
REMARK    3  A    between atoms: C_3  and  N_4
REMARK    4  A    between atoms: N_4  and  C_5
REMARK    5  A    between atoms: C_5  and  C_6
REMARK    6  A    between atoms: N_14  and  C_15
REMARK    7  A    between atoms: C_15  and  C_16
REMARK    8  A    between atoms: C_16  and  C_17
REMARK                            x       y       z     vdW  Elec       q    Type
REMARK                         _______ _______ _______ _____ _____    ______ ____
ROOT
ATOM      1  C   UNL     1       6.479   4.719  17.053  0.00  0.00    +0.000 C 
ATOM      2  C   UNL     1       6.370   6.084  16.348  0.00  0.00    +0.000 C 
ATOM      3  C   UNL     1       7.449   7.102  16.801  0.00  0.00    +0.000 C 
ATOM      4  N   UNL     1       7.502   7.282  18.265  0.00  0.00    +0.000 NA
ATOM      5  C   UNL     1       7.704   5.964  18.904  0.00  0.00    +0.000 C 
ATOM      6  C   UNL     1       6.596   4.958  18.563  0.00  0.00    +0.000 C 
ENDROOT
BRANCH   1   7
ATOM      7  O   UNL     1       7.680   4.053  16.626  0.00  0.00    +0.000 OA
ATOM      8  H   UNL     1       7.854   3.352  17.277  0.00  0.00    +0.000 HD
ENDBRANCH   1   7
BRANCH   1   9
ATOM      9  C   UNL     1       5.271   3.763  16.745  0.00  0.00    +0.000 C 
BRANCH   9  10
ATOM     10  N   UNL     1       3.957   4.381  17.014  0.00  0.00    +0.000 NA
ATOM     11  H   UNL     1       3.658   4.931  16.211  0.00  0.00    +0.000 HD
BRANCH  10  12
ATOM     12  C   UNL     1       2.899   3.384  17.238  0.00  0.00    +0.000 C 
BRANCH  12  13
ATOM     13  C   UNL     1       2.527   3.349  18.705  0.00  0.00    +0.000 A 
ATOM     14  C   UNL     1       3.322   2.667  19.647  0.00  0.00    +0.000 A 
ATOM     15  C   UNL     1       2.942   2.631  20.993  0.00  0.00    +0.000 A 
ATOM     16  C   UNL     1       1.780   3.281  21.418  0.00  0.00    +0.000 A 
ATOM     17  C   UNL     1       1.004   3.965  20.497  0.00  0.00    +0.000 A 
ATOM     18  C   UNL     1       1.386   4.008  19.162  0.00  0.00    +0.000 A 
ENDBRANCH  12  13
ENDBRANCH  10  12
ENDBRANCH   9  10
ENDBRANCH   1   9
BRANCH   4  19
ATOM     19  C   UNL     1       8.589   8.209  18.729  0.00  0.00    +0.000 C 
BRANCH  19  20
ATOM     20  C   UNL     1       8.518   9.668  18.236  0.00  0.00    +0.000 C 
BRANCH  20  21
ATOM     21  C   UNL     1       9.299  10.711  19.024  0.00  0.00    +0.000 A 
ATOM     22  C   UNL     1       9.500  10.618  20.392  0.00  0.00    +0.000 A 
ATOM     23  N   UNL     1       9.739  11.882  20.850  0.00  0.00    +0.000 N 
ATOM     24  C   UNL     1      10.239  12.641  19.826  0.00  0.00    +0.000 A 
ATOM     25  C   UNL     1      10.903  13.877  19.890  0.00  0.00    +0.000 A 
ATOM     26  C   UNL     1      11.326  14.425  18.685  0.00  0.00    +0.000 A 
ATOM     27  C   UNL     1      11.005  13.798  17.486  0.00  0.00    +0.000 A 
ATOM     28  F   UNL     1      11.429  14.362  16.341  0.00  0.00    +0.000 F 
ATOM     29  C   UNL     1      10.280  12.601  17.431  0.00  0.00    +0.000 A 
ATOM     30  C   UNL     1       9.932  11.959  18.639  0.00  0.00    +0.000 A 
ATOM     31  H   UNL     1       9.638  12.192  21.807  0.00  0.00    +0.000 HD
ENDBRANCH  20  21
ENDBRANCH  19  20
ENDBRANCH   4  19
TORSDOF 8
ENDMDL
MODEL 4
REMARK VINA RESULT:      -8.1      3.126      9.149
REMARK  Name = 
REMARK  8 active torsions:
REMARK  status: ('A' for Active; 'I' for Inactive)
REMARK    1  A    between atoms: O_1  and  C_2
REMARK    2  A    between atoms: C_2  and  C_3
REMARK    3  A    between atoms: C_3  and  N_4
REMARK    4  A    between atoms: N_4  and  C_5
REMARK    5  A    between atoms: C_5  and  C_6
REMARK    6  A    between atoms: N_14  and  C_15
REMARK    7  A    between atoms: C_15  and  C_16
REMARK    8  A    between atoms: C_16  and  C_17
REMARK                            x       y       z     vdW  Elec       q    Type
REMARK                         _______ _______ _______ _____ _____    ______ ____
ROOT
ATOM      1  C   UNL     1       7.449   6.818  17.600  0.00  0.00    +0.000 C 
ATOM      2  C   UNL     1       7.507   5.474  18.351  0.00  0.00    +0.000 C 
ATOM      3  C   UNL     1       6.573   4.391  17.751  0.00  0.00    +0.000 C 
ATOM      4  N   UNL     1       5.175   4.841  17.608  0.00  0.00    +0.000 NA
ATOM      5  C   UNL     1       5.149   6.079  16.800  0.00  0.00    +0.000 C 
ATOM      6  C   UNL     1       5.979   7.213  17.418  0.00  0.00    +0.000 C 
ENDROOT
BRANCH   1   7
ATOM      7  O   UNL     1       8.020   6.660  16.289  0.00  0.00    +0.000 OA
ATOM      8  H   UNL     1       7.913   7.513  15.837  0.00  0.00    +0.000 HD
ENDBRANCH   1   7
BRANCH   1   9
ATOM      9  C   UNL     1       8.237   7.968  18.325  0.00  0.00    +0.000 C 
BRANCH   9  10
ATOM     10  N   UNL     1       8.485   9.139  17.460  0.00  0.00    +0.000 NA
ATOM     11  H   UNL     1       7.870   9.112  16.649  0.00  0.00    +0.000 HD
BRANCH  10  12
ATOM     12  C   UNL     1       8.203  10.413  18.139  0.00  0.00    +0.000 C 
BRANCH  12  13
ATOM     13  C   UNL     1       9.489  11.005  18.676  0.00  0.00    +0.000 A 
ATOM     14  C   UNL     1       9.704  11.157  20.059  0.00  0.00    +0.000 A 
ATOM     15  C   UNL     1      10.893  11.730  20.527  0.00  0.00    +0.000 A 
ATOM     16  C   UNL     1      11.879  12.144  19.629  0.00  0.00    +0.000 A 
ATOM     17  C   UNL     1      11.677  11.983  18.268  0.00  0.00    +0.000 A 
ATOM     18  C   UNL     1      10.502  11.406  17.804  0.00  0.00    +0.000 A 
ENDBRANCH  12  13
ENDBRANCH  10  12
ENDBRANCH   9  10
ENDBRANCH   1   9
BRANCH   4  19
ATOM     19  C   UNL     1       4.269   3.831  16.962  0.00  0.00    +0.000 C 
BRANCH  19  20
ATOM     20  C   UNL     1       2.913   3.573  17.645  0.00  0.00    +0.000 C 
BRANCH  20  21
ATOM     21  C   UNL     1       2.589   4.389  18.889  0.00  0.00    +0.000 A 
ATOM     22  C   UNL     1       2.535   3.830  20.157  0.00  0.00    +0.000 A 
ATOM     23  N   UNL     1       1.743   4.640  20.920  0.00  0.00    +0.000 N 
ATOM     24  C   UNL     1       1.764   5.905  20.397  0.00  0.00    +0.000 A 
ATOM     25  C   UNL     1       1.364   7.110  20.996  0.00  0.00    +0.000 A 
ATOM     26  C   UNL     1       1.510   8.267  20.239  0.00  0.00    +0.000 A 
ATOM     27  C   UNL     1       1.946   8.183  18.921  0.00  0.00    +0.000 A 
ATOM     28  F   UNL     1       2.070   9.323  18.220  0.00  0.00    +0.000 F 
ATOM     29  C   UNL     1       2.275   6.965  18.311  0.00  0.00    +0.000 A 
ATOM     30  C   UNL     1       2.244   5.786  19.085  0.00  0.00    +0.000 A 
ATOM     31  H   UNL     1       1.279   4.372  21.776  0.00  0.00    +0.000 HD
ENDBRANCH  20  21
ENDBRANCH  19  20
ENDBRANCH   4  19
TORSDOF 8
ENDMDL
MODEL 5
REMARK VINA RESULT:      -8.1      6.574      8.553
REMARK  Name = 
REMARK  8 active torsions:
REMARK  status: ('A' for Active; 'I' for Inactive)
REMARK    1  A    between atoms: O_1  and  C_2
REMARK    2  A    between atoms: C_2  and  C_3
REMARK    3  A    between atoms: C_3  and  N_4
REMARK    4  A    between atoms: N_4  and  C_5
REMARK    5  A    between atoms: C_5  and  C_6
REMARK    6  A    between atoms: N_14  and  C_15
REMARK    7  A    between atoms: C_15  and  C_16
REMARK    8  A    between atoms: C_16  and  C_17
REMARK                            x       y       z     vdW  Elec       q    Type
REMARK                         _______ _______ _______ _____ _____    ______ ____
ROOT
ATOM      1  C   UNL     1       2.867   6.225  18.263  0.00  0.00    +0.000 C 
ATOM      2  C   UNL     1       2.686   6.294  19.791  0.00  0.00    +0.000 C 
ATOM      3  C   UNL     1       1.642   7.349  20.242  0.00  0.00    +0.000 C 
ATOM      4  N   UNL     1       1.898   8.694  19.692  0.00  0.00    +0.000 NA
ATOM      5  C   UNL     1       1.970   8.606  18.218  0.00  0.00    +0.000 C 
ATOM      6  C   UNL     1       3.066   7.648  17.729  0.00  0.00    +0.000 C 
ENDROOT
BRANCH   1   7
ATOM      7  O   UNL     1       1.671   5.700  17.662  0.00  0.00    +0.000 OA
ATOM      8  H   UNL     1       1.525   4.824  18.057  0.00  0.00    +0.000 HD
ENDBRANCH   1   7
BRANCH   1   9
ATOM      9  C   UNL     1       4.063   5.306  17.821  0.00  0.00    +0.000 C 
BRANCH   9  10
ATOM     10  N   UNL     1       3.630   4.099  17.088  0.00  0.00    +0.000 NA
ATOM     11  H   UNL     1       4.148   4.015  16.216  0.00  0.00    +0.000 HD
BRANCH  10  12
ATOM     12  C   UNL     1       3.889   2.860  17.836  0.00  0.00    +0.000 C 
BRANCH  12  13
ATOM     13  C   UNL     1       3.005   2.804  19.064  0.00  0.00    +0.000 A 
ATOM     14  C   UNL     1       3.553   2.779  20.361  0.00  0.00    +0.000 A 
ATOM     15  C   UNL     1       2.712   2.704  21.477  0.00  0.00    +0.000 A 
ATOM     16  C   UNL     1       1.325   2.666  21.317  0.00  0.00    +0.000 A 
ATOM     17  C   UNL     1       0.782   2.706  20.043  0.00  0.00    +0.000 A 
ATOM     18  C   UNL     1       1.616   2.790  18.935  0.00  0.00    +0.000 A 
ENDBRANCH  12  13
ENDBRANCH  10  12
ENDBRANCH   9  10
ENDBRANCH   1   9
BRANCH   4  19
ATOM     19  C   UNL     1       0.857   9.714  20.059  0.00  0.00    +0.000 C 
BRANCH  19  20
ATOM     20  C   UNL     1       0.744  10.952  19.149  0.00  0.00    +0.000 C 
BRANCH  20  21
ATOM     21  C   UNL     1      -0.652  11.492  18.872  0.00  0.00    +0.000 A 
ATOM     22  C   UNL     1      -1.163  12.609  19.514  0.00  0.00    +0.000 A 
ATOM     23  N   UNL     1      -2.524  12.517  19.460  0.00  0.00    +0.000 N 
ATOM     24  C   UNL     1      -2.876  11.748  18.384  0.00  0.00    +0.000 A 
ATOM     25  C   UNL     1      -4.129  11.629  17.760  0.00  0.00    +0.000 A 
ATOM     26  C   UNL     1      -4.206  10.781  16.661  0.00  0.00    +0.000 A 
ATOM     27  C   UNL     1      -3.098  10.029  16.287  0.00  0.00    +0.000 A 
ATOM     28  F   UNL     1      -3.213   9.216  15.222  0.00  0.00    +0.000 F 
ATOM     29  C   UNL     1      -1.873  10.103  16.961  0.00  0.00    +0.000 A 
ATOM     30  C   UNL     1      -1.728  11.035  18.010  0.00  0.00    +0.000 A 
ATOM     31  H   UNL     1      -3.172  13.000  20.066  0.00  0.00    +0.000 HD
ENDBRANCH  20  21
ENDBRANCH  19  20
ENDBRANCH   4  19
TORSDOF 8
ENDMDL
MODEL 6
REMARK VINA RESULT:      -8.1      5.834      7.659
REMARK  Name = 
REMARK  8 active torsions:
REMARK  status: ('A' for Active; 'I' for Inactive)
REMARK    1  A    between atoms: O_1  and  C_2
REMARK    2  A    between atoms: C_2  and  C_3
REMARK    3  A    between atoms: C_3  and  N_4
REMARK    4  A    between atoms: N_4  and  C_5
REMARK    5  A    between atoms: C_5  and  C_6
REMARK    6  A    between atoms: N_14  and  C_15
REMARK    7  A    between atoms: C_15  and  C_16
REMARK    8  A    between atoms: C_16  and  C_17
REMARK                            x       y       z     vdW  Elec       q    Type
REMARK                         _______ _______ _______ _____ _____    ______ ____
ROOT
ATOM      1  C   UNL     1       3.992   5.445  17.685  0.00  0.00    +0.000 C 
ATOM      2  C   UNL     1       4.405   6.702  16.895  0.00  0.00    +0.000 C 
ATOM      3  C   UNL     1       3.831   8.018  17.482  0.00  0.00    +0.000 C 
ATOM      4  N   UNL     1       2.367   7.984  17.666  0.00  0.00    +0.000 NA
ATOM      5  C   UNL     1       2.016   6.821  18.510  0.00  0.00    +0.000 C 
ATOM      6  C   UNL     1       2.476   5.486  17.908  0.00  0.00    +0.000 C 
ENDROOT
BRANCH   1   7
ATOM      7  O   UNL     1       4.620   5.465  18.979  0.00  0.00    +0.000 OA
ATOM      8  H   UNL     1       5.346   4.819  18.943  0.00  0.00    +0.000 HD
ENDBRANCH   1   7
BRANCH   1   9
ATOM      9  C   UNL     1       4.403   4.104  16.978  0.00  0.00    +0.000 C 
BRANCH   9  10
ATOM     10  N   UNL     1       4.873   3.069  17.921  0.00  0.00    +0.000 NA
ATOM     11  H   UNL     1       5.010   3.474  18.845  0.00  0.00    +0.000 HD
BRANCH  10  12
ATOM     12  C   UNL     1       3.900   1.980  18.095  0.00  0.00    +0.000 C 
BRANCH  12  13
ATOM     13  C   UNL     1       2.935   2.326  19.209  0.00  0.00    +0.000 A 
ATOM     14  C   UNL     1       3.385   2.558  20.523  0.00  0.00    +0.000 A 
ATOM     15  C   UNL     1       2.467   2.852  21.539  0.00  0.00    +0.000 A 
ATOM     16  C   UNL     1       1.102   2.931  21.257  0.00  0.00    +0.000 A 
ATOM     17  C   UNL     1       0.657   2.719  19.962  0.00  0.00    +0.000 A 
ATOM     18  C   UNL     1       1.568   2.435  18.953  0.00  0.00    +0.000 A 
ENDBRANCH  12  13
ENDBRANCH  10  12
ENDBRANCH   9  10
ENDBRANCH   1   9
BRANCH   4  19
ATOM     19  C   UNL     1       1.801   9.222  18.301  0.00  0.00    +0.000 C 
BRANCH  19  20
ATOM     20  C   UNL     1       0.342   9.577  17.957  0.00  0.00    +0.000 C 
BRANCH  20  21
ATOM     21  C   UNL     1      -0.416  10.457  18.942  0.00  0.00    +0.000 A 
ATOM     22  C   UNL     1      -1.234  11.500  18.537  0.00  0.00    +0.000 A 
ATOM     23  N   UNL     1      -1.323  12.372  19.584  0.00  0.00    +0.000 N 
ATOM     24  C   UNL     1      -1.091  11.692  20.750  0.00  0.00    +0.000 A 
ATOM     25  C   UNL     1      -1.372  12.087  22.068  0.00  0.00    +0.000 A 
ATOM     26  C   UNL     1      -1.046  11.187  23.076  0.00  0.00    +0.000 A 
ATOM     27  C   UNL     1      -0.388  10.003  22.763  0.00  0.00    +0.000 A 
ATOM     28  F   UNL     1      -0.085   9.161  23.766  0.00  0.00    +0.000 F 
ATOM     29  C   UNL     1      -0.049   9.653  21.450  0.00  0.00    +0.000 A 
ATOM     30  C   UNL     1      -0.463  10.490  20.393  0.00  0.00    +0.000 A 
ATOM     31  H   UNL     1      -1.593  13.343  19.522  0.00  0.00    +0.000 HD
ENDBRANCH  20  21
ENDBRANCH  19  20
ENDBRANCH   4  19
TORSDOF 8
ENDMDL
MODEL 7
REMARK VINA RESULT:      -8.0      1.776      2.243
REMARK  Name = 
REMARK  8 active torsions:
REMARK  status: ('A' for Active; 'I' for Inactive)
REMARK    1  A    between atoms: O_1  and  C_2
REMARK    2  A    between atoms: C_2  and  C_3
REMARK    3  A    between atoms: C_3  and  N_4
REMARK    4  A    between atoms: N_4  and  C_5
REMARK    5  A    between atoms: C_5  and  C_6
REMARK    6  A    between atoms: N_14  and  C_15
REMARK    7  A    between atoms: C_15  and  C_16
REMARK    8  A    between atoms: C_16  and  C_17
REMARK                            x       y       z     vdW  Elec       q    Type
REMARK                         _______ _______ _______ _____ _____    ______ ____
ROOT
ATOM      1  C   UNL     1       6.233   5.387  17.820  0.00  0.00    +0.000 C 
ATOM      2  C   UNL     1       7.717   5.554  18.199  0.00  0.00    +0.000 C 
ATOM      3  C   UNL     1       8.113   7.021  18.513  0.00  0.00    +0.000 C 
ATOM      4  N   UNL     1       7.746   7.965  17.440  0.00  0.00    +0.000 NA
ATOM      5  C   UNL     1       6.297   7.846  17.169  0.00  0.00    +0.000 C 
ATOM      6  C   UNL     1       5.881   6.428  16.752  0.00  0.00    +0.000 C 
ENDROOT
BRANCH   1   7
ATOM      7  O   UNL     1       5.411   5.652  18.971  0.00  0.00    +0.000 OA
ATOM      8  H   UNL     1       4.812   4.893  19.063  0.00  0.00    +0.000 HD
ENDBRANCH   1   7
BRANCH   1   9
ATOM      9  C   UNL     1       5.882   3.943  17.310  0.00  0.00    +0.000 C 
BRANCH   9  10
ATOM     10  N   UNL     1       5.163   3.130  18.311  0.00  0.00    +0.000 NA
ATOM     11  H   UNL     1       5.120   3.627  19.199  0.00  0.00    +0.000 HD
BRANCH  10  12
ATOM     12  C   UNL     1       3.768   2.865  17.927  0.00  0.00    +0.000 C 
BRANCH  12  13
ATOM     13  C   UNL     1       2.883   2.886  19.156  0.00  0.00    +0.000 A 
ATOM     14  C   UNL     1       3.408   2.655  20.442  0.00  0.00    +0.000 A 
ATOM     15  C   UNL     1       2.563   2.657  21.557  0.00  0.00    +0.000 A 
ATOM     16  C   UNL     1       1.195   2.901  21.408  0.00  0.00    +0.000 A 
ATOM     17  C   UNL     1       0.678   3.143  20.146  0.00  0.00    +0.000 A 
ATOM     18  C   UNL     1       1.518   3.150  19.040  0.00  0.00    +0.000 A 
ENDBRANCH  12  13
ENDBRANCH  10  12
ENDBRANCH   9  10
ENDBRANCH   1   9
BRANCH   4  19
ATOM     19  C   UNL     1       8.056   9.401  17.755  0.00  0.00    +0.000 C 
BRANCH  19  20
ATOM     20  C   UNL     1       9.067   9.663  18.888  0.00  0.00    +0.000 C 
BRANCH  20  21
ATOM     21  C   UNL     1       9.700  11.046  18.957  0.00  0.00    +0.000 A 
ATOM     22  C   UNL     1      10.444  11.580  17.916  0.00  0.00    +0.000 A 
ATOM     23  N   UNL     1      11.269  12.525  18.455  0.00  0.00    +0.000 N 
ATOM     24  C   UNL     1      10.712  12.993  19.615  0.00  0.00    +0.000 A 
ATOM     25  C   UNL     1      11.031  14.155  20.336  0.00  0.00    +0.000 A 
ATOM     26  C   UNL     1      10.288  14.405  21.485  0.00  0.00    +0.000 A 
ATOM     27  C   UNL     1       9.349  13.476  21.919  0.00  0.00    +0.000 A 
ATOM     28  F   UNL     1       8.654  13.752  23.037  0.00  0.00    +0.000 F 
ATOM     29  C   UNL     1       9.090  12.285  21.228  0.00  0.00    +0.000 A 
ATOM     30  C   UNL     1       9.745  12.054  20.001  0.00  0.00    +0.000 A 
ATOM     31  H   UNL     1      12.114  12.880  18.031  0.00  0.00    +0.000 HD
ENDBRANCH  20  21
ENDBRANCH  19  20
ENDBRANCH   4  19
TORSDOF 8
ENDMDL
MODEL 8
REMARK VINA RESULT:      -7.9      8.521     11.238
REMARK  Name = 
REMARK  8 active torsions:
REMARK  status: ('A' for Active; 'I' for Inactive)
REMARK    1  A    between atoms: O_1  and  C_2
REMARK    2  A    between atoms: C_2  and  C_3
REMARK    3  A    between atoms: C_3  and  N_4
REMARK    4  A    between atoms: N_4  and  C_5
REMARK    5  A    between atoms: C_5  and  C_6
REMARK    6  A    between atoms: N_14  and  C_15
REMARK    7  A    between atoms: C_15  and  C_16
REMARK    8  A    between atoms: C_16  and  C_17
REMARK                            x       y       z     vdW  Elec       q    Type
REMARK                         _______ _______ _______ _____ _____    ______ ____
ROOT
ATOM      1  C   UNL     1      -2.143  11.405  17.775  0.00  0.00    +0.000 C 
ATOM      2  C   UNL     1      -2.208  11.556  19.307  0.00  0.00    +0.000 C 
ATOM      3  C   UNL     1      -0.855  11.273  20.013  0.00  0.00    +0.000 C 
ATOM      4  N   UNL     1      -0.270   9.969  19.649  0.00  0.00    +0.000 NA
ATOM      5  C   UNL     1      -0.132   9.897  18.179  0.00  0.00    +0.000 C 
ATOM      6  C   UNL     1      -1.470  10.068  17.445  0.00  0.00    +0.000 C 
ENDROOT
BRANCH   1   7
ATOM      7  O   UNL     1      -1.323  12.450  17.225  0.00  0.00    +0.000 OA
ATOM      8  H   UNL     1      -0.491  12.031  16.946  0.00  0.00    +0.000 HD
ENDBRANCH   1   7
BRANCH   1   9
ATOM      9  C   UNL     1      -3.551  11.492  17.083  0.00  0.00    +0.000 C 
BRANCH   9  10
ATOM     10  N   UNL     1      -4.591  12.079  17.952  0.00  0.00    +0.000 NA
ATOM     11  H   UNL     1      -4.920  12.958  17.559  0.00  0.00    +0.000 HD
BRANCH  10  12
ATOM     12  C   UNL     1      -5.778  11.219  18.072  0.00  0.00    +0.000 C 
BRANCH  12  13
ATOM     13  C   UNL     1      -6.431  11.429  19.422  0.00  0.00    +0.000 A 
ATOM     14  C   UNL     1      -7.308  10.472  19.968  0.00  0.00    +0.000 A 
ATOM     15  C   UNL     1      -7.917  10.703  21.208  0.00  0.00    +0.000 A 
ATOM     16  C   UNL     1      -7.651  11.876  21.918  0.00  0.00    +0.000 A 
ATOM     17  C   UNL     1      -6.778  12.812  21.391  0.00  0.00    +0.000 A 
ATOM     18  C   UNL     1      -6.167  12.580  20.165  0.00  0.00    +0.000 A 
ENDBRANCH  12  13
ENDBRANCH  10  12
ENDBRANCH   9  10
ENDBRANCH   1   9
BRANCH   4  19
ATOM     19  C   UNL     1       1.075   9.708  20.267  0.00  0.00    +0.000 C 
BRANCH  19  20
ATOM     20  C   UNL     1       1.309   8.305  20.859  0.00  0.00    +0.000 C 
BRANCH  20  21
ATOM     21  C   UNL     1       1.923   7.253  19.945  0.00  0.00    +0.000 A 
ATOM     22  C   UNL     1       2.636   7.580  18.802  0.00  0.00    +0.000 A 
ATOM     23  N   UNL     1       2.584   6.497  17.972  0.00  0.00    +0.000 N 
ATOM     24  C   UNL     1       2.380   5.370  18.722  0.00  0.00    +0.000 A 
ATOM     25  C   UNL     1       2.560   4.026  18.356  0.00  0.00    +0.000 A 
ATOM     26  C   UNL     1       2.293   3.070  19.329  0.00  0.00    +0.000 A 
ATOM     27  C   UNL     1       1.784   3.458  20.563  0.00  0.00    +0.000 A 
ATOM     28  F   UNL     1       1.535   2.503  21.476  0.00  0.00    +0.000 F 
ATOM     29  C   UNL     1       1.542   4.798  20.891  0.00  0.00    +0.000 A 
ATOM     30  C   UNL     1       1.905   5.802  19.969  0.00  0.00    +0.000 A 
ATOM     31  H   UNL     1       2.747   6.510  16.975  0.00  0.00    +0.000 HD
ENDBRANCH  20  21
ENDBRANCH  19  20
ENDBRANCH   4  19
TORSDOF 8
ENDMDL
MODEL 9
REMARK VINA RESULT:      -7.9      5.762      7.650
REMARK  Name = 
REMARK  8 active torsions:
REMARK  status: ('A' for Active; 'I' for Inactive)
REMARK    1  A    between atoms: O_1  and  C_2
REMARK    2  A    between atoms: C_2  and  C_3
REMARK    3  A    between atoms: C_3  and  N_4
REMARK    4  A    between atoms: N_4  and  C_5
REMARK    5  A    between atoms: C_5  and  C_6
REMARK    6  A    between atoms: N_14  and  C_15
REMARK    7  A    between atoms: C_15  and  C_16
REMARK    8  A    between atoms: C_16  and  C_17
REMARK                            x       y       z     vdW  Elec       q    Type
REMARK                         _______ _______ _______ _____ _____    ______ ____
ROOT
ATOM      1  C   UNL     1       4.079   5.640  18.338  0.00  0.00    +0.000 C 
ATOM      2  C   UNL     1       3.157   6.165  19.456  0.00  0.00    +0.000 C 
ATOM      3  C   UNL     1       2.206   7.300  18.990  0.00  0.00    +0.000 C 
ATOM      4  N   UNL     1       2.911   8.418  18.336  0.00  0.00    +0.000 NA
ATOM      5  C   UNL     1       3.710   7.891  17.208  0.00  0.00    +0.000 C 
ATOM      6  C   UNL     1       4.738   6.838  17.646  0.00  0.00    +0.000 C 
ENDROOT
BRANCH   1   7
ATOM      7  O   UNL     1       3.292   4.950  17.352  0.00  0.00    +0.000 OA
ATOM      8  H   UNL     1       2.363   5.047  17.623  0.00  0.00    +0.000 HD
ENDBRANCH   1   7
BRANCH   1   9
ATOM      9  C   UNL     1       5.174   4.640  18.857  0.00  0.00    +0.000 C 
BRANCH   9  10
ATOM     10  N   UNL     1       5.014   3.273  18.321  0.00  0.00    +0.000 NA
ATOM     11  H   UNL     1       5.902   2.934  17.957  0.00  0.00    +0.000 HD
BRANCH  10  12
ATOM     12  C   UNL     1       4.604   2.307  19.351  0.00  0.00    +0.000 C 
BRANCH  12  13
ATOM     13  C   UNL     1       3.150   2.526  19.712  0.00  0.00    +0.000 A 
ATOM     14  C   UNL     1       2.767   2.903  21.014  0.00  0.00    +0.000 A 
ATOM     15  C   UNL     1       1.414   3.076  21.327  0.00  0.00    +0.000 A 
ATOM     16  C   UNL     1       0.433   2.889  20.350  0.00  0.00    +0.000 A 
ATOM     17  C   UNL     1       0.807   2.534  19.065  0.00  0.00    +0.000 A 
ATOM     18  C   UNL     1       2.150   2.371  18.752  0.00  0.00    +0.000 A 
ENDBRANCH  12  13
ENDBRANCH  10  12
ENDBRANCH   9  10
ENDBRANCH   1   9
BRANCH   4  19
ATOM     19  C   UNL     1       2.001   9.494  17.813  0.00  0.00    +0.000 C 
BRANCH  19  20
ATOM     20  C   UNL     1       0.485   9.237  17.921  0.00  0.00    +0.000 C 
BRANCH  20  21
ATOM     21  C   UNL     1      -0.316  10.149  18.840  0.00  0.00    +0.000 A 
ATOM     22  C   UNL     1      -1.171  11.129  18.360  0.00  0.00    +0.000 A 
ATOM     23  N   UNL     1      -1.305  12.064  19.346  0.00  0.00    +0.000 N 
ATOM     24  C   UNL     1      -1.056  11.474  20.556  0.00  0.00    +0.000 A 
ATOM     25  C   UNL     1      -1.365  11.944  21.843  0.00  0.00    +0.000 A 
ATOM     26  C   UNL     1      -1.012  11.128  22.911  0.00  0.00    +0.000 A 
ATOM     27  C   UNL     1      -0.304   9.953  22.682  0.00  0.00    +0.000 A 
ATOM     28  F   UNL     1       0.022   9.192  23.742  0.00  0.00    +0.000 F 
ATOM     29  C   UNL     1       0.060   9.529  21.398  0.00  0.00    +0.000 A 
ATOM     30  C   UNL     1      -0.378  10.277  20.284  0.00  0.00    +0.000 A 
ATOM     31  H   UNL     1      -1.613  13.017  19.216  0.00  0.00    +0.000 HD
ENDBRANCH  20  21
ENDBRANCH  19  20
ENDBRANCH   4  19
TORSDOF 8
ENDMDL
