MODEL 1
REMARK VINA RESULT:      -7.0      0.000      0.000
REMARK  Name = 
REMARK  9 active torsions:
REMARK  status: ('A' for Active; 'I' for Inactive)
REMARK    1  A    between atoms: C_1  and  C_2
REMARK    2  A    between atoms: C_2  and  N_3
REMARK    3  A    between atoms: N_3  and  C_4
REMARK    4  A    between atoms: N_3  and  C_6
REMARK    5  A    between atoms: C_4  and  C_5
REMARK    6  A    between atoms: C_11  and  C_12
REMARK    7  A    between atoms: C_12  and  N_13
REMARK    8  A    between atoms: N_13  and  C_14
REMARK    9  A    between atoms: C_14  and  C_15
REMARK                            x       y       z     vdW  Elec       q    Type
REMARK                         _______ _______ _______ _____ _____    ______ ____
ROOT
ATOM      1  C   UNL     1       3.125   6.776  18.076  0.00  0.00    +0.000 C 
ENDROOT
BRANCH   1   7
ATOM      2  C   UNL     1       4.216   4.497  17.846  0.00  0.00    +0.000 A 
ATOM      3  N   UNL     1       4.160   3.147  17.764  0.00  0.00    +0.000 NA
ATOM      4  C   UNL     1       2.953   2.545  17.828  0.00  0.00    +0.000 A 
ATOM      5  C   UNL     1       1.763   3.222  17.954  0.00  0.00    +0.000 A 
ATOM      6  C   UNL     1       1.811   4.608  18.039  0.00  0.00    +0.000 A 
ATOM      7  C   UNL     1       3.051   5.271  18.009  0.00  0.00    +0.000 A 
BRANCH   2   8
ATOM      8  N   UNL     1       5.493   5.119  17.747  0.00  0.00    +0.000 N 
BRANCH   8  10
ATOM      9  C   UNL     1       7.560   5.819  18.934  0.00  0.00    +0.000 C 
ATOM     10  C   UNL     1       6.196   5.142  19.040  0.00  0.00    +0.000 C 
ENDBRANCH   8  10
BRANCH   8  11
ATOM     11  C   UNL     1       6.184   4.711  16.504  0.00  0.00    +0.000 C 
ATOM     12  C   UNL     1       5.744   5.363  15.209  0.00  0.00    +0.000 C 
ENDBRANCH   8  11
ENDBRANCH   2   8
ENDBRANCH   1   7
BRANCH   1  13
ATOM     13  N   UNL     1       2.177   7.411  18.997  0.00  0.00    +0.000 NA
ATOM     14  H   UNL     1       2.635   7.520  19.902  0.00  0.00    +0.000 HD
BRANCH  13  15
ATOM     15  C   UNL     1       1.856   8.745  18.478  0.00  0.00    +0.000 C 
BRANCH  15  16
ATOM     16  C   UNL     1       1.017   9.497  19.454  0.00  0.00    +0.000 A 
ATOM     17  C   UNL     1       0.865   9.269  20.805  0.00  0.00    +0.000 A 
ATOM     18  C   UNL     1      -0.060  10.167  21.427  0.00  0.00    +0.000 A 
ATOM     19  C   UNL     1      -0.492  10.257  22.770  0.00  0.00    +0.000 A 
ATOM     20  C   UNL     1      -1.428  11.224  23.147  0.00  0.00    +0.000 A 
ATOM     21  C   UNL     1      -1.943  12.107  22.207  0.00  0.00    +0.000 A 
ATOM     22  C   UNL     1      -1.530  12.044  20.874  0.00  0.00    +0.000 A 
ATOM     23  C   UNL     1      -0.589  11.068  20.501  0.00  0.00    +0.000 A 
ATOM     24  S   UNL     1       0.056  10.805  18.930  0.00  0.00    +0.000 S 
ENDBRANCH  15  16
ENDBRANCH  13  15
ENDBRANCH   1  13
TORSDOF 7
ENDMDL
MODEL 2
REMARK VINA RESULT:      -7.0      0.839      1.347
REMARK  Name = 
REMARK  9 active torsions:
REMARK  status: ('A' for Active; 'I' for Inactive)
REMARK    1  A    between atoms: C_1  and  C_2
REMARK    2  A    between atoms: C_2  and  N_3
REMARK    3  A    between atoms: N_3  and  C_4
REMARK    4  A    between atoms: N_3  and  C_6
REMARK    5  A    between atoms: C_4  and  C_5
REMARK    6  A    between atoms: C_11  and  C_12
REMARK    7  A    between atoms: C_12  and  N_13
REMARK    8  A    between atoms: N_13  and  C_14
REMARK    9  A    between atoms: C_14  and  C_15
REMARK                            x       y       z     vdW  Elec       q    Type
REMARK                         _______ _______ _______ _____ _____    ______ ____
ROOT
ATOM      1  C   UNL     1       3.323   6.634  17.623  0.00  0.00    +0.000 C 
ENDROOT
BRANCH   1   7
ATOM      2  C   UNL     1       4.396   4.339  17.745  0.00  0.00    +0.000 A 
ATOM      3  N   UNL     1       4.327   2.989  17.824  0.00  0.00    +0.000 NA
ATOM      4  C   UNL     1       3.110   2.406  17.878  0.00  0.00    +0.000 A 
ATOM      5  C   UNL     1       1.924   3.100  17.841  0.00  0.00    +0.000 A 
ATOM      6  C   UNL     1       1.985   4.485  17.759  0.00  0.00    +0.000 A 
ATOM      7  C   UNL     1       3.233   5.133  17.734  0.00  0.00    +0.000 A 
BRANCH   2   8
ATOM      8  N   UNL     1       5.685   4.936  17.658  0.00  0.00    +0.000 N 
BRANCH   8  10
ATOM      9  C   UNL     1       7.623   5.870  18.901  0.00  0.00    +0.000 C 
ATOM     10  C   UNL     1       6.302   5.108  18.983  0.00  0.00    +0.000 C 
ENDBRANCH   8  10
BRANCH   8  11
ATOM     11  C   UNL     1       6.450   4.379  16.521  0.00  0.00    +0.000 C 
ATOM     12  C   UNL     1       6.300   5.058  15.174  0.00  0.00    +0.000 C 
ENDBRANCH   8  11
ENDBRANCH   2   8
ENDBRANCH   1   7
BRANCH   1  13
ATOM     13  N   UNL     1       2.801   7.381  18.771  0.00  0.00    +0.000 NA
ATOM     14  H   UNL     1       3.593   7.728  19.313  0.00  0.00    +0.000 HD
BRANCH  13  15
ATOM     15  C   UNL     1       2.048   8.534  18.266  0.00  0.00    +0.000 C 
BRANCH  15  16
ATOM     16  C   UNL     1       1.227   9.139  19.353  0.00  0.00    +0.000 A 
ATOM     17  C   UNL     1       0.455  10.280  19.305  0.00  0.00    +0.000 A 
ATOM     18  C   UNL     1      -0.168  10.591  20.556  0.00  0.00    +0.000 A 
ATOM     19  C   UNL     1      -1.016  11.663  20.919  0.00  0.00    +0.000 A 
ATOM     20  C   UNL     1      -1.500  11.766  22.226  0.00  0.00    +0.000 A 
ATOM     21  C   UNL     1      -1.155  10.819  23.180  0.00  0.00    +0.000 A 
ATOM     22  C   UNL     1      -0.324   9.747  22.847  0.00  0.00    +0.000 A 
ATOM     23  C   UNL     1       0.161   9.649  21.531  0.00  0.00    +0.000 A 
ATOM     24  S   UNL     1       1.193   8.427  20.902  0.00  0.00    +0.000 S 
ENDBRANCH  15  16
ENDBRANCH  13  15
ENDBRANCH   1  13
TORSDOF 7
ENDMDL
MODEL 3
REMARK VINA RESULT:      -6.8      1.353      3.116
REMARK  Name = 
REMARK  9 active torsions:
REMARK  status: ('A' for Active; 'I' for Inactive)
REMARK    1  A    between atoms: C_1  and  C_2
REMARK    2  A    between atoms: C_2  and  N_3
REMARK    3  A    between atoms: N_3  and  C_4
REMARK    4  A    between atoms: N_3  and  C_6
REMARK    5  A    between atoms: C_4  and  C_5
REMARK    6  A    between atoms: C_11  and  C_12
REMARK    7  A    between atoms: C_12  and  N_13
REMARK    8  A    between atoms: N_13  and  C_14
REMARK    9  A    between atoms: C_14  and  C_15
REMARK                            x       y       z     vdW  Elec       q    Type
REMARK                         _______ _______ _______ _____ _____    ______ ____
ROOT
ATOM      1  C   UNL     1       3.648   6.963  17.233  0.00  0.00    +0.000 C 
ENDROOT
BRANCH   1   7
ATOM      2  C   UNL     1       4.978   4.973  18.076  0.00  0.00    +0.000 A 
ATOM      3  N   UNL     1       6.144   4.347  18.357  0.00  0.00    +0.000 NA
ATOM      4  C   UNL     1       7.302   4.995  18.106  0.00  0.00    +0.000 A 
ATOM      5  C   UNL     1       7.375   6.269  17.595  0.00  0.00    +0.000 A 
ATOM      6  C   UNL     1       6.182   6.920  17.304  0.00  0.00    +0.000 A 
ATOM      7  C   UNL     1       4.955   6.268  17.520  0.00  0.00    +0.000 A 
BRANCH   2   8
ATOM      8  N   UNL     1       3.765   4.289  18.374  0.00  0.00    +0.000 N 
BRANCH   8  10
ATOM      9  C   UNL     1       3.382   1.836  18.431  0.00  0.00    +0.000 C 
ATOM     10  C   UNL     1       3.607   3.071  17.563  0.00  0.00    +0.000 C 
ENDBRANCH   8  10
BRANCH   8  11
ATOM     11  C   UNL     1       3.508   4.281  19.831  0.00  0.00    +0.000 C 
ATOM     12  C   UNL     1       2.271   5.001  20.329  0.00  0.00    +0.000 C 
ENDBRANCH   8  11
ENDBRANCH   2   8
ENDBRANCH   1   7
BRANCH   1  13
ATOM     13  N   UNL     1       3.334   8.096  18.108  0.00  0.00    +0.000 NA
ATOM     14  H   UNL     1       3.996   8.847  17.909  0.00  0.00    +0.000 HD
BRANCH  13  15
ATOM     15  C   UNL     1       1.986   8.570  17.779  0.00  0.00    +0.000 C 
BRANCH  15  16
ATOM     16  C   UNL     1       1.323   9.142  18.986  0.00  0.00    +0.000 A 
ATOM     17  C   UNL     1       1.207   8.585  20.241  0.00  0.00    +0.000 A 
ATOM     18  C   UNL     1       0.465   9.401  21.153  0.00  0.00    +0.000 A 
ATOM     19  C   UNL     1       0.120   9.187  22.508  0.00  0.00    +0.000 A 
ATOM     20  C   UNL     1      -0.634  10.137  23.202  0.00  0.00    +0.000 A 
ATOM     21  C   UNL     1      -1.051  11.301  22.571  0.00  0.00    +0.000 A 
ATOM     22  C   UNL     1      -0.721  11.540  21.235  0.00  0.00    +0.000 A 
ATOM     23  C   UNL     1       0.037  10.581  20.541  0.00  0.00    +0.000 A 
ATOM     24  S   UNL     1       0.553  10.661  18.904  0.00  0.00    +0.000 S 
ENDBRANCH  15  16
ENDBRANCH  13  15
ENDBRANCH   1  13
TORSDOF 7
ENDMDL
MODEL 4
REMARK VINA RESULT:      -6.8      2.621      4.544
REMARK  Name = 
REMARK  9 active torsions:
REMARK  status: ('A' for Active; 'I' for Inactive)
REMARK    1  A    between atoms: C_1  and  C_2
REMARK    2  A    between atoms: C_2  and  N_3
REMARK    3  A    between atoms: N_3  and  C_4
REMARK    4  A    between atoms: N_3  and  C_6
REMARK    5  A    between atoms: C_4  and  C_5
REMARK    6  A    between atoms: C_11  and  C_12
REMARK    7  A    between atoms: C_12  and  N_13
REMARK    8  A    between atoms: N_13  and  C_14
REMARK    9  A    between atoms: C_14  and  C_15
REMARK                            x       y       z     vdW  Elec       q    Type
REMARK                         _______ _______ _______ _____ _____    ______ ____
ROOT
ATOM      1  C   UNL     1       4.998   3.836  17.659  0.00  0.00    +0.000 C 
ENDROOT
BRANCH   1   7
ATOM      2  C   UNL     1       6.665   5.293  16.421  0.00  0.00    +0.000 A 
ATOM      3  N   UNL     1       7.340   5.654  15.305  0.00  0.00    +0.000 NA
ATOM      4  C   UNL     1       7.120   4.965  14.165  0.00  0.00    +0.000 A 
ATOM      5  C   UNL     1       6.233   3.919  14.058  0.00  0.00    +0.000 A 
ATOM      6  C   UNL     1       5.535   3.543  15.199  0.00  0.00    +0.000 A 
ATOM      7  C   UNL     1       5.760   4.214  16.414  0.00  0.00    +0.000 A 
BRANCH   2   8
ATOM      8  N   UNL     1       6.886   6.049  17.607  0.00  0.00    +0.000 N 
BRANCH   8  10
ATOM      9  C   UNL     1       7.631   5.463  19.903  0.00  0.00    +0.000 C 
ATOM     10  C   UNL     1       7.982   5.494  18.418  0.00  0.00    +0.000 C 
ENDBRANCH   8  10
BRANCH   8  11
ATOM     11  C   UNL     1       6.791   7.500  17.334  0.00  0.00    +0.000 C 
ATOM     12  C   UNL     1       7.982   8.363  17.700  0.00  0.00    +0.000 C 
ENDBRANCH   8  11
ENDBRANCH   2   8
ENDBRANCH   1   7
BRANCH   1  13
ATOM     13  N   UNL     1       3.653   3.298  17.434  0.00  0.00    +0.000 NA
ATOM     14  H   UNL     1       3.738   2.300  17.237  0.00  0.00    +0.000 HD
BRANCH  13  15
ATOM     15  C   UNL     1       2.880   3.460  18.669  0.00  0.00    +0.000 C 
BRANCH  15  16
ATOM     16  C   UNL     1       2.493   4.887  18.860  0.00  0.00    +0.000 A 
ATOM     17  C   UNL     1       2.444   5.892  17.918  0.00  0.00    +0.000 A 
ATOM     18  C   UNL     1       2.067   7.160  18.465  0.00  0.00    +0.000 A 
ATOM     19  C   UNL     1       1.912   8.420  17.844  0.00  0.00    +0.000 A 
ATOM     20  C   UNL     1       1.542   9.537  18.598  0.00  0.00    +0.000 A 
ATOM     21  C   UNL     1       1.320   9.421  19.964  0.00  0.00    +0.000 A 
ATOM     22  C   UNL     1       1.461   8.186  20.602  0.00  0.00    +0.000 A 
ATOM     23  C   UNL     1       1.835   7.067  19.839  0.00  0.00    +0.000 A 
ATOM     24  S   UNL     1       2.068   5.462  20.408  0.00  0.00    +0.000 S 
ENDBRANCH  15  16
ENDBRANCH  13  15
ENDBRANCH   1  13
TORSDOF 7
ENDMDL
MODEL 5
REMARK VINA RESULT:      -6.7      1.466      3.237
REMARK  Name = 
REMARK  9 active torsions:
REMARK  status: ('A' for Active; 'I' for Inactive)
REMARK    1  A    between atoms: C_1  and  C_2
REMARK    2  A    between atoms: C_2  and  N_3
REMARK    3  A    between atoms: N_3  and  C_4
REMARK    4  A    between atoms: N_3  and  C_6
REMARK    5  A    between atoms: C_4  and  C_5
REMARK    6  A    between atoms: C_11  and  C_12
REMARK    7  A    between atoms: C_12  and  N_13
REMARK    8  A    between atoms: N_13  and  C_14
REMARK    9  A    between atoms: C_14  and  C_15
REMARK                            x       y       z     vdW  Elec       q    Type
REMARK                         _______ _______ _______ _____ _____    ______ ____
ROOT
ATOM      1  C   UNL     1       3.652   6.622  17.306  0.00  0.00    +0.000 C 
ENDROOT
BRANCH   1   7
ATOM      2  C   UNL     1       5.300   4.935  18.240  0.00  0.00    +0.000 A 
ATOM      3  N   UNL     1       6.555   4.536  18.552  0.00  0.00    +0.000 NA
ATOM      4  C   UNL     1       7.584   5.366  18.277  0.00  0.00    +0.000 A 
ATOM      5  C   UNL     1       7.438   6.610  17.710  0.00  0.00    +0.000 A 
ATOM      6  C   UNL     1       6.153   7.028  17.387  0.00  0.00    +0.000 A 
ATOM      7  C   UNL     1       5.057   6.180  17.628  0.00  0.00    +0.000 A 
BRANCH   2   8
ATOM      8  N   UNL     1       4.223   4.062  18.564  0.00  0.00    +0.000 N 
BRANCH   8  10
ATOM      9  C   UNL     1       2.438   3.043  17.168  0.00  0.00    +0.000 C 
ATOM     10  C   UNL     1       3.933   3.118  17.472  0.00  0.00    +0.000 C 
ENDBRANCH   8  10
BRANCH   8  11
ATOM     11  C   UNL     1       4.316   3.607  19.968  0.00  0.00    +0.000 C 
ATOM     12  C   UNL     1       4.423   2.116  20.219  0.00  0.00    +0.000 C 
ENDBRANCH   8  11
ENDBRANCH   2   8
ENDBRANCH   1   7
BRANCH   1  13
ATOM     13  N   UNL     1       3.118   7.691  18.156  0.00  0.00    +0.000 NA
ATOM     14  H   UNL     1       2.411   8.199  17.624  0.00  0.00    +0.000 HD
BRANCH  13  15
ATOM     15  C   UNL     1       2.468   7.073  19.316  0.00  0.00    +0.000 C 
BRANCH  15  16
ATOM     16  C   UNL     1       1.656   8.079  20.058  0.00  0.00    +0.000 A 
ATOM     17  C   UNL     1       1.195   8.016  21.355  0.00  0.00    +0.000 A 
ATOM     18  C   UNL     1       0.405   9.150  21.728  0.00  0.00    +0.000 A 
ATOM     19  C   UNL     1      -0.247   9.457  22.945  0.00  0.00    +0.000 A 
ATOM     20  C   UNL     1      -0.983  10.638  23.071  0.00  0.00    +0.000 A 
ATOM     21  C   UNL     1      -1.082  11.522  22.006  0.00  0.00    +0.000 A 
ATOM     22  C   UNL     1      -0.444  11.247  20.794  0.00  0.00    +0.000 A 
ATOM     23  C   UNL     1       0.294  10.057  20.672  0.00  0.00    +0.000 A 
ATOM     24  S   UNL     1       1.152   9.514  19.285  0.00  0.00    +0.000 S 
ENDBRANCH  15  16
ENDBRANCH  13  15
ENDBRANCH   1  13
TORSDOF 7
ENDMDL
MODEL 6
REMARK VINA RESULT:      -6.7      1.336      3.025
REMARK  Name = 
REMARK  9 active torsions:
REMARK  status: ('A' for Active; 'I' for Inactive)
REMARK    1  A    between atoms: C_1  and  C_2
REMARK    2  A    between atoms: C_2  and  N_3
REMARK    3  A    between atoms: N_3  and  C_4
REMARK    4  A    between atoms: N_3  and  C_6
REMARK    5  A    between atoms: C_4  and  C_5
REMARK    6  A    between atoms: C_11  and  C_12
REMARK    7  A    between atoms: C_12  and  N_13
REMARK    8  A    between atoms: N_13  and  C_14
REMARK    9  A    between atoms: C_14  and  C_15
REMARK                            x       y       z     vdW  Elec       q    Type
REMARK                         _______ _______ _______ _____ _____    ______ ____
ROOT
ATOM      1  C   UNL     1       3.553   6.326  18.660  0.00  0.00    +0.000 C 
ENDROOT
BRANCH   1   7
ATOM      2  C   UNL     1       4.161   4.214  17.393  0.00  0.00    +0.000 A 
ATOM      3  N   UNL     1       4.790   3.561  16.388  0.00  0.00    +0.000 NA
ATOM      4  C   UNL     1       5.517   4.281  15.506  0.00  0.00    +0.000 A 
ATOM      5  C   UNL     1       5.675   5.645  15.572  0.00  0.00    +0.000 A 
ATOM      6  C   UNL     1       5.033   6.322  16.602  0.00  0.00    +0.000 A 
ATOM      7  C   UNL     1       4.240   5.614  17.522  0.00  0.00    +0.000 A 
BRANCH   2   8
ATOM      8  N   UNL     1       3.423   3.438  18.332  0.00  0.00    +0.000 N 
BRANCH   8  10
ATOM      9  C   UNL     1       1.049   2.761  18.605  0.00  0.00    +0.000 C 
ATOM     10  C   UNL     1       2.282   2.753  17.704  0.00  0.00    +0.000 C 
ENDBRANCH   8  10
BRANCH   8  11
ATOM     11  C   UNL     1       4.332   2.728  19.259  0.00  0.00    +0.000 C 
ATOM     12  C   UNL     1       3.859   2.518  20.683  0.00  0.00    +0.000 C 
ENDBRANCH   8  11
ENDBRANCH   2   8
ENDBRANCH   1   7
BRANCH   1  13
ATOM     13  N   UNL     1       2.208   6.830  18.364  0.00  0.00    +0.000 NA
ATOM     14  H   UNL     1       1.605   6.613  19.158  0.00  0.00    +0.000 HD
BRANCH  13  15
ATOM     15  C   UNL     1       2.285   8.288  18.227  0.00  0.00    +0.000 C 
BRANCH  15  16
ATOM     16  C   UNL     1       1.510   8.957  19.313  0.00  0.00    +0.000 A 
ATOM     17  C   UNL     1       1.246   8.493  20.583  0.00  0.00    +0.000 A 
ATOM     18  C   UNL     1       0.431   9.385  21.350  0.00  0.00    +0.000 A 
ATOM     19  C   UNL     1      -0.062   9.275  22.671  0.00  0.00    +0.000 A 
ATOM     20  C   UNL     1      -0.863  10.285  23.211  0.00  0.00    +0.000 A 
ATOM     21  C   UNL     1      -1.183  11.406  22.458  0.00  0.00    +0.000 A 
ATOM     22  C   UNL     1      -0.705  11.543  21.152  0.00  0.00    +0.000 A 
ATOM     23  C   UNL     1       0.099  10.524  20.614  0.00  0.00    +0.000 A 
ATOM     24  S   UNL     1       0.790  10.478  19.041  0.00  0.00    +0.000 S 
ENDBRANCH  15  16
ENDBRANCH  13  15
ENDBRANCH   1  13
TORSDOF 7
ENDMDL
MODEL 7
REMARK VINA RESULT:      -6.7      2.761      8.178
REMARK  Name = 
REMARK  9 active torsions:
REMARK  status: ('A' for Active; 'I' for Inactive)
REMARK    1  A    between atoms: C_1  and  C_2
REMARK    2  A    between atoms: C_2  and  N_3
REMARK    3  A    between atoms: N_3  and  C_4
REMARK    4  A    between atoms: N_3  and  C_6
REMARK    5  A    between atoms: C_4  and  C_5
REMARK    6  A    between atoms: C_11  and  C_12
REMARK    7  A    between atoms: C_12  and  N_13
REMARK    8  A    between atoms: N_13  and  C_14
REMARK    9  A    between atoms: C_14  and  C_15
REMARK                            x       y       z     vdW  Elec       q    Type
REMARK                         _______ _______ _______ _____ _____    ______ ____
ROOT
ATOM      1  C   UNL     1       0.284   7.825  20.687  0.00  0.00    +0.000 C 
ENDROOT
BRANCH   1   7
ATOM      2  C   UNL     1      -0.368  10.273  20.565  0.00  0.00    +0.000 A 
ATOM      3  N   UNL     1      -0.759  11.437  21.136  0.00  0.00    +0.000 NA
ATOM      4  C   UNL     1      -0.946  11.469  22.472  0.00  0.00    +0.000 A 
ATOM      5  C   UNL     1      -0.749  10.391  23.303  0.00  0.00    +0.000 A 
ATOM      6  C   UNL     1      -0.348   9.193  22.725  0.00  0.00    +0.000 A 
ATOM      7  C   UNL     1      -0.172   9.108  21.332  0.00  0.00    +0.000 A 
BRANCH   2   8
ATOM      8  N   UNL     1      -0.145  10.263  19.159  0.00  0.00    +0.000 N 
BRANCH   8  10
ATOM      9  C   UNL     1      -1.923   9.846  17.475  0.00  0.00    +0.000 C 
ATOM     10  C   UNL     1      -1.271  10.854  18.418  0.00  0.00    +0.000 C 
ENDBRANCH   8  10
BRANCH   8  11
ATOM     11  C   UNL     1       1.255  10.622  18.843  0.00  0.00    +0.000 C 
ATOM     12  C   UNL     1       1.983   9.777  17.817  0.00  0.00    +0.000 C 
ENDBRANCH   8  11
ENDBRANCH   2   8
ENDBRANCH   1   7
BRANCH   1  13
ATOM     13  N   UNL     1       1.681   7.457  20.938  0.00  0.00    +0.000 NA
ATOM     14  H   UNL     1       1.892   7.654  21.917  0.00  0.00    +0.000 HD
BRANCH  13  15
ATOM     15  C   UNL     1       1.823   6.014  20.717  0.00  0.00    +0.000 C 
BRANCH  15  16
ATOM     16  C   UNL     1       2.686   5.749  19.530  0.00  0.00    +0.000 A 
ATOM     17  C   UNL     1       3.312   6.662  18.709  0.00  0.00    +0.000 A 
ATOM     18  C   UNL     1       4.031   6.051  17.633  0.00  0.00    +0.000 A 
ATOM     19  C   UNL     1       4.786   6.628  16.586  0.00  0.00    +0.000 A 
ATOM     20  C   UNL     1       5.398   5.817  15.627  0.00  0.00    +0.000 A 
ATOM     21  C   UNL     1       5.273   4.436  15.692  0.00  0.00    +0.000 A 
ATOM     22  C   UNL     1       4.537   3.838  16.719  0.00  0.00    +0.000 A 
ATOM     23  C   UNL     1       3.923   4.660  17.679  0.00  0.00    +0.000 A 
ATOM     24  S   UNL     1       2.974   4.149  19.018  0.00  0.00    +0.000 S 
ENDBRANCH  15  16
ENDBRANCH  13  15
ENDBRANCH   1  13
TORSDOF 7
ENDMDL
MODEL 8
REMARK VINA RESULT:      -6.7      1.155      1.175
REMARK  Name = 
REMARK  9 active torsions:
REMARK  status: ('A' for Active; 'I' for Inactive)
REMARK    1  A    between atoms: C_1  and  C_2
REMARK    2  A    between atoms: C_2  and  N_3
REMARK    3  A    between atoms: N_3  and  C_4
REMARK    4  A    between atoms: N_3  and  C_6
REMARK    5  A    between atoms: C_4  and  C_5
REMARK    6  A    between atoms: C_11  and  C_12
REMARK    7  A    between atoms: C_12  and  N_13
REMARK    8  A    between atoms: N_13  and  C_14
REMARK    9  A    between atoms: C_14  and  C_15
REMARK                            x       y       z     vdW  Elec       q    Type
REMARK                         _______ _______ _______ _____ _____    ______ ____
ROOT
ATOM      1  C   UNL     1       3.168   6.491  17.816  0.00  0.00    +0.000 C 
ENDROOT
BRANCH   1   7
ATOM      2  C   UNL     1       4.371   4.362  18.490  0.00  0.00    +0.000 A 
ATOM      3  N   UNL     1       4.481   3.234  19.230  0.00  0.00    +0.000 NA
ATOM      4  C   UNL     1       3.519   2.959  20.137  0.00  0.00    +0.000 A 
ATOM      5  C   UNL     1       2.416   3.751  20.350  0.00  0.00    +0.000 A 
ATOM      6  C   UNL     1       2.294   4.911  19.595  0.00  0.00    +0.000 A 
ATOM      7  C   UNL     1       3.290   5.249  18.662  0.00  0.00    +0.000 A 
BRANCH   2   8
ATOM      8  N   UNL     1       5.376   4.622  17.517  0.00  0.00    +0.000 N 
BRANCH   8  10
ATOM      9  C   UNL     1       7.238   6.217  17.918  0.00  0.00    +0.000 C 
ATOM     10  C   UNL     1       6.702   4.803  18.130  0.00  0.00    +0.000 C 
ENDBRANCH   8  10
BRANCH   8  11
ATOM     11  C   UNL     1       5.191   3.765  16.325  0.00  0.00    +0.000 C 
ATOM     12  C   UNL     1       6.118   3.989  15.147  0.00  0.00    +0.000 C 
ENDBRANCH   8  11
ENDBRANCH   2   8
ENDBRANCH   1   7
BRANCH   1  13
ATOM     13  N   UNL     1       3.130   7.755  18.558  0.00  0.00    +0.000 NA
ATOM     14  H   UNL     1       3.988   8.270  18.356  0.00  0.00    +0.000 HD
BRANCH  13  15
ATOM     15  C   UNL     1       1.994   8.542  18.067  0.00  0.00    +0.000 C 
BRANCH  15  16
ATOM     16  C   UNL     1       1.259   9.167  19.204  0.00  0.00    +0.000 A 
ATOM     17  C   UNL     1       1.140   8.708  20.499  0.00  0.00    +0.000 A 
ATOM     18  C   UNL     1       0.321   9.546  21.320  0.00  0.00    +0.000 A 
ATOM     19  C   UNL     1      -0.051   9.423  22.678  0.00  0.00    +0.000 A 
ATOM     20  C   UNL     1      -0.885  10.375  23.271  0.00  0.00    +0.000 A 
ATOM     21  C   UNL     1      -1.357  11.452  22.533  0.00  0.00    +0.000 A 
ATOM     22  C   UNL     1      -1.002  11.601  21.190  0.00  0.00    +0.000 A 
ATOM     23  C   UNL     1      -0.164  10.640  20.599  0.00  0.00    +0.000 A 
ATOM     24  S   UNL     1       0.396  10.619  18.975  0.00  0.00    +0.000 S 
ENDBRANCH  15  16
ENDBRANCH  13  15
ENDBRANCH   1  13
TORSDOF 7
ENDMDL
MODEL 9
REMARK VINA RESULT:      -6.7      1.522      3.310
REMARK  Name = 
REMARK  9 active torsions:
REMARK  status: ('A' for Active; 'I' for Inactive)
REMARK    1  A    between atoms: C_1  and  C_2
REMARK    2  A    between atoms: C_2  and  N_3
REMARK    3  A    between atoms: N_3  and  C_4
REMARK    4  A    between atoms: N_3  and  C_6
REMARK    5  A    between atoms: C_4  and  C_5
REMARK    6  A    between atoms: C_11  and  C_12
REMARK    7  A    between atoms: C_12  and  N_13
REMARK    8  A    between atoms: N_13  and  C_14
REMARK    9  A    between atoms: C_14  and  C_15
REMARK                            x       y       z     vdW  Elec       q    Type
REMARK                         _______ _______ _______ _____ _____    ______ ____
ROOT
ATOM      1  C   UNL     1       2.323   6.549  18.069  0.00  0.00    +0.000 C 
ENDROOT
BRANCH   1   7
ATOM      2  C   UNL     1       3.726   4.587  18.853  0.00  0.00    +0.000 A 
ATOM      3  N   UNL     1       4.906   3.937  18.984  0.00  0.00    +0.000 NA
ATOM      4  C   UNL     1       6.018   4.508  18.474  0.00  0.00    +0.000 A 
ATOM      5  C   UNL     1       6.034   5.727  17.838  0.00  0.00    +0.000 A 
ATOM      6  C   UNL     1       4.827   6.401  17.700  0.00  0.00    +0.000 A 
ATOM      7  C   UNL     1       3.640   5.825  18.188  0.00  0.00    +0.000 A 
BRANCH   2   8
ATOM      8  N   UNL     1       2.568   3.986  19.423  0.00  0.00    +0.000 N 
BRANCH   8  10
ATOM      9  C   UNL     1       0.765   2.456  18.660  0.00  0.00    +0.000 C 
ATOM     10  C   UNL     1       2.268   2.681  18.812  0.00  0.00    +0.000 C 
ENDBRANCH   8  10
BRANCH   8  11
ATOM     11  C   UNL     1       2.544   4.171  20.890  0.00  0.00    +0.000 C 
ATOM     12  C   UNL     1       2.264   2.953  21.748  0.00  0.00    +0.000 C 
ENDBRANCH   8  11
ENDBRANCH   2   8
ENDBRANCH   1   7
BRANCH   1  13
ATOM     13  N   UNL     1       2.267   7.864  18.715  0.00  0.00    +0.000 NA
ATOM     14  H   UNL     1       1.499   8.392  18.299  0.00  0.00    +0.000 HD
BRANCH  13  15
ATOM     15  C   UNL     1       1.974   7.664  20.138  0.00  0.00    +0.000 C 
BRANCH  15  16
ATOM     16  C   UNL     1       1.080   8.745  20.644  0.00  0.00    +0.000 A 
ATOM     17  C   UNL     1       0.568   8.905  21.913  0.00  0.00    +0.000 A 
ATOM     18  C   UNL     1      -0.294  10.041  22.033  0.00  0.00    +0.000 A 
ATOM     19  C   UNL     1      -1.012  10.537  23.146  0.00  0.00    +0.000 A 
ATOM     20  C   UNL     1      -1.813  11.676  23.018  0.00  0.00    +0.000 A 
ATOM     21  C   UNL     1      -1.912  12.331  21.798  0.00  0.00    +0.000 A 
ATOM     22  C   UNL     1      -1.210  11.866  20.684  0.00  0.00    +0.000 A 
ATOM     23  C   UNL     1      -0.406  10.720  20.819  0.00  0.00    +0.000 A 
ATOM     24  S   UNL     1       0.536   9.973  19.592  0.00  0.00    +0.000 S 
ENDBRANCH  15  16
ENDBRANCH  13  15
ENDBRANCH   1  13
TORSDOF 7
ENDMDL
