MODEL 1
REMARK VINA RESULT:      -6.9      0.000      0.000
REMARK  Name = 
REMARK  0 active torsions:
REMARK  status: ('A' for Active; 'I' for Inactive)
REMARK                            x       y       z     vdW  Elec       q    Type
REMARK                         _______ _______ _______ _____ _____    ______ ____
ROOT
ATOM      1  O   UNL     1      -2.862  13.510  20.509  0.00  0.00    +0.000 OA
ATOM      2  C   UNL     1      -2.445  12.782  21.400  0.00  0.00    +0.000 C 
ATOM      3  N   UNL     1      -3.084  12.584  22.664  0.00  0.00    +0.000 N 
ATOM      4  C   UNL     1      -4.473  12.881  22.940  0.00  0.00    +0.000 A 
ATOM      5  C   UNL     1      -5.188  12.474  24.065  0.00  0.00    +0.000 A 
ATOM      6  N   UNL     1      -6.570  12.392  24.136  0.00  0.00    +0.000 NA
ATOM      7  C   UNL     1      -7.235  12.632  22.976  0.00  0.00    +0.000 A 
ATOM      8  C   UNL     1      -6.539  13.073  21.877  0.00  0.00    +0.000 A 
ATOM      9  N   UNL     1      -5.211  13.390  21.957  0.00  0.00    +0.000 NA
ATOM     10  O   UNL     1      -6.993  12.720  20.594  0.00  0.00    +0.000 OA
ATOM     11  C   UNL     1      -5.823  12.189  19.987  0.00  0.00    +0.000 C 
ATOM     12  C   UNL     1      -5.683  11.710  18.563  0.00  0.00    +0.000 C 
ATOM     13  C   UNL     1      -4.171  11.449  18.488  0.00  0.00    +0.000 C 
ATOM     14  C   UNL     1      -3.656  10.725  17.269  0.00  0.00    +0.000 C 
ATOM     15  C   UNL     1      -2.398   9.981  17.707  0.00  0.00    +0.000 C 
ATOM     16  O   UNL     1      -1.533  11.023  18.152  0.00  0.00    +0.000 OA
ATOM     17  C   UNL     1      -0.709  10.684  19.283  0.00  0.00    +0.000 A 
ATOM     18  C   UNL     1       0.372   9.948  18.714  0.00  0.00    +0.000 A 
ATOM     19  C   UNL     1       1.515  10.658  18.363  0.00  0.00    +0.000 A 
ATOM     20  C   UNL     1       1.616  12.001  18.755  0.00  0.00    +0.000 A 
ATOM     21 CL   UNL     1       2.905  12.945  18.115  0.00  0.00    +0.000 Cl
ATOM     22  C   UNL     1       0.686  12.581  19.647  0.00  0.00    +0.000 A 
ATOM     23  C   UNL     1      -0.474  11.883  20.034  0.00  0.00    +0.000 A 
ATOM     24  N   UNL     1      -1.162  12.178  21.311  0.00  0.00    +0.000 N 
ATOM     25  H   UNL     1      -2.617  11.987  23.334  0.00  0.00    +0.000 HD
ATOM     26  H   UNL     1      -0.552  12.798  21.848  0.00  0.00    +0.000 HD
ENDROOT
TORSDOF 0
ENDMDL
MODEL 2
REMARK VINA RESULT:      -6.6      3.245      6.478
REMARK  Name = 
REMARK  0 active torsions:
REMARK  status: ('A' for Active; 'I' for Inactive)
REMARK                            x       y       z     vdW  Elec       q    Type
REMARK                         _______ _______ _______ _____ _____    ______ ____
ROOT
ATOM      1  O   UNL     1      -1.935  12.468  20.852  0.00  0.00    +0.000 OA
ATOM      2  C   UNL     1      -2.390  13.494  20.363  0.00  0.00    +0.000 C 
ATOM      3  N   UNL     1      -1.697  14.742  20.280  0.00  0.00    +0.000 N 
ATOM      4  C   UNL     1      -0.263  14.896  20.392  0.00  0.00    +0.000 A 
ATOM      5  C   UNL     1       0.463  16.041  20.071  0.00  0.00    +0.000 A 
ATOM      6  N   UNL     1       1.819  16.062  19.780  0.00  0.00    +0.000 NA
ATOM      7  C   UNL     1       2.424  14.848  19.709  0.00  0.00    +0.000 A 
ATOM      8  C   UNL     1       1.724  13.721  20.064  0.00  0.00    +0.000 A 
ATOM      9  N   UNL     1       0.469  13.804  20.601  0.00  0.00    +0.000 NA
ATOM     10  O   UNL     1       2.024  12.503  19.429  0.00  0.00    +0.000 OA
ATOM     11  C   UNL     1       0.745  12.056  19.000  0.00  0.00    +0.000 C 
ATOM     12  C   UNL     1       0.430  10.749  18.316  0.00  0.00    +0.000 C 
ATOM     13  C   UNL     1      -1.106  10.791  18.294  0.00  0.00    +0.000 C 
ATOM     14  C   UNL     1      -1.813   9.747  17.466  0.00  0.00    +0.000 C 
ATOM     15  C   UNL     1      -3.133  10.369  17.021  0.00  0.00    +0.000 C 
ATOM     16  O   UNL     1      -3.795  10.659  18.249  0.00  0.00    +0.000 OA
ATOM     17  C   UNL     1      -4.576  11.869  18.245  0.00  0.00    +0.000 A 
ATOM     18  C   UNL     1      -5.794  11.492  17.608  0.00  0.00    +0.000 A 
ATOM     19  C   UNL     1      -6.840  11.073  18.423  0.00  0.00    +0.000 A 
ATOM     20  C   UNL     1      -6.707  11.223  19.811  0.00  0.00    +0.000 A 
ATOM     21 CL   UNL     1      -7.883  10.483  20.829  0.00  0.00    +0.000 Cl
ATOM     22  C   UNL     1      -5.637  11.952  20.376  0.00  0.00    +0.000 A 
ATOM     23  C   UNL     1      -4.570  12.403  19.576  0.00  0.00    +0.000 A 
ATOM     24  N   UNL     1      -3.754  13.574  19.968  0.00  0.00    +0.000 N 
ATOM     25  H   UNL     1      -2.199  15.529  19.889  0.00  0.00    +0.000 HD
ATOM     26  H   UNL     1      -4.222  14.019  20.760  0.00  0.00    +0.000 HD
ENDROOT
TORSDOF 0
ENDMDL
MODEL 3
REMARK VINA RESULT:      -6.6      0.936      1.026
REMARK  Name = 
REMARK  0 active torsions:
REMARK  status: ('A' for Active; 'I' for Inactive)
REMARK                            x       y       z     vdW  Elec       q    Type
REMARK                         _______ _______ _______ _____ _____    ______ ____
ROOT
ATOM      1  O   UNL     1      -3.753  13.886  20.498  0.00  0.00    +0.000 OA
ATOM      2  C   UNL     1      -3.225  13.322  21.448  0.00  0.00    +0.000 C 
ATOM      3  N   UNL     1      -3.872  13.022  22.687  0.00  0.00    +0.000 N 
ATOM      4  C   UNL     1      -5.305  12.974  22.878  0.00  0.00    +0.000 A 
ATOM      5  C   UNL     1      -5.966  12.448  23.986  0.00  0.00    +0.000 A 
ATOM      6  N   UNL     1      -7.287  12.027  23.993  0.00  0.00    +0.000 NA
ATOM      7  C   UNL     1      -7.917  12.046  22.789  0.00  0.00    +0.000 A 
ATOM      8  C   UNL     1      -7.285  12.600  21.704  0.00  0.00    +0.000 A 
ATOM      9  N   UNL     1      -6.084  13.242  21.832  0.00  0.00    +0.000 NA
ATOM     10  O   UNL     1      -7.558  12.093  20.421  0.00  0.00    +0.000 OA
ATOM     11  C   UNL     1      -6.258  11.847  19.904  0.00  0.00    +0.000 C 
ATOM     12  C   UNL     1      -5.916  11.360  18.517  0.00  0.00    +0.000 C 
ATOM     13  C   UNL     1      -4.385  11.482  18.532  0.00  0.00    +0.000 C 
ATOM     14  C   UNL     1      -3.632  10.860  17.382  0.00  0.00    +0.000 C 
ATOM     15  C   UNL     1      -2.259  10.472  17.922  0.00  0.00    +0.000 C 
ATOM     16  O   UNL     1      -1.708  11.714  18.351  0.00  0.00    +0.000 OA
ATOM     17  C   UNL     1      -0.896  11.639  19.538  0.00  0.00    +0.000 A 
ATOM     18  C   UNL     1       0.365  11.173  19.066  0.00  0.00    +0.000 A 
ATOM     19  C   UNL     1       1.318  12.131  18.733  0.00  0.00    +0.000 A 
ATOM     20  C   UNL     1       1.059  13.471  19.055  0.00  0.00    +0.000 A 
ATOM     21 CL   UNL     1       2.112  14.681  18.428  0.00  0.00    +0.000 Cl
ATOM     22  C   UNL     1      -0.039  13.837  19.866  0.00  0.00    +0.000 A 
ATOM     23  C   UNL     1      -1.012  12.888  20.233  0.00  0.00    +0.000 A 
ATOM     24  N   UNL     1      -1.829  13.054  21.456  0.00  0.00    +0.000 N 
ATOM     25  H   UNL     1      -3.313  12.589  23.412  0.00  0.00    +0.000 HD
ATOM     26  H   UNL     1      -1.425  13.828  21.988  0.00  0.00    +0.000 HD
ENDROOT
TORSDOF 0
ENDMDL
MODEL 4
REMARK VINA RESULT:      -6.6      3.174      6.680
REMARK  Name = 
REMARK  0 active torsions:
REMARK  status: ('A' for Active; 'I' for Inactive)
REMARK                            x       y       z     vdW  Elec       q    Type
REMARK                         _______ _______ _______ _____ _____    ______ ____
ROOT
ATOM      1  O   UNL     1      -1.782  12.171  20.776  0.00  0.00    +0.000 OA
ATOM      2  C   UNL     1      -2.056  13.295  20.375  0.00  0.00    +0.000 C 
ATOM      3  N   UNL     1      -1.105  14.334  20.131  0.00  0.00    +0.000 N 
ATOM      4  C   UNL     1       0.314  14.123  19.940  0.00  0.00    +0.000 A 
ATOM      5  C   UNL     1       1.222  15.063  19.457  0.00  0.00    +0.000 A 
ATOM      6  N   UNL     1       2.450  14.758  18.890  0.00  0.00    +0.000 NA
ATOM      7  C   UNL     1       2.705  13.435  18.715  0.00  0.00    +0.000 A 
ATOM      8  C   UNL     1       1.833  12.505  19.225  0.00  0.00    +0.000 A 
ATOM      9  N   UNL     1       0.776  12.877  20.010  0.00  0.00    +0.000 NA
ATOM     10  O   UNL     1       1.681  11.274  18.562  0.00  0.00    +0.000 OA
ATOM     11  C   UNL     1       0.272  11.175  18.415  0.00  0.00    +0.000 C 
ATOM     12  C   UNL     1      -0.494  10.013  17.832  0.00  0.00    +0.000 C 
ATOM     13  C   UNL     1      -1.941  10.436  18.129  0.00  0.00    +0.000 C 
ATOM     14  C   UNL     1      -3.042   9.631  17.483  0.00  0.00    +0.000 C 
ATOM     15  C   UNL     1      -4.226  10.577  17.311  0.00  0.00    +0.000 C 
ATOM     16  O   UNL     1      -4.528  10.977  18.645  0.00  0.00    +0.000 OA
ATOM     17  C   UNL     1      -4.965  12.342  18.784  0.00  0.00    +0.000 A 
ATOM     18  C   UNL     1      -6.342  12.303  18.420  0.00  0.00    +0.000 A 
ATOM     19  C   UNL     1      -7.270  12.127  19.441  0.00  0.00    +0.000 A 
ATOM     20  C   UNL     1      -6.822  12.188  20.769  0.00  0.00    +0.000 A 
ATOM     21 CL   UNL     1      -7.911  11.726  22.020  0.00  0.00    +0.000 Cl
ATOM     22  C   UNL     1      -5.511  12.607  21.087  0.00  0.00    +0.000 A 
ATOM     23  C   UNL     1      -4.553  12.809  20.075  0.00  0.00    +0.000 A 
ATOM     24  N   UNL     1      -3.407  13.725  20.270  0.00  0.00    +0.000 N 
ATOM     25  H   UNL     1      -1.462  15.235  19.840  0.00  0.00    +0.000 HD
ATOM     26  H   UNL     1      -3.576  14.243  21.135  0.00  0.00    +0.000 HD
ENDROOT
TORSDOF 0
ENDMDL
MODEL 5
REMARK VINA RESULT:      -6.5      7.875     11.919
REMARK  Name = 
REMARK  0 active torsions:
REMARK  status: ('A' for Active; 'I' for Inactive)
REMARK                            x       y       z     vdW  Elec       q    Type
REMARK                         _______ _______ _______ _____ _____    ______ ____
ROOT
ATOM      1  O   UNL     1       7.260  15.529  18.725  0.00  0.00    +0.000 OA
ATOM      2  C   UNL     1       6.914  14.575  18.041  0.00  0.00    +0.000 C 
ATOM      3  N   UNL     1       7.796  13.586  17.505  0.00  0.00    +0.000 N 
ATOM      4  C   UNL     1       9.136  13.329  17.987  0.00  0.00    +0.000 A 
ATOM      5  C   UNL     1       9.923  12.224  17.666  0.00  0.00    +0.000 A 
ATOM      6  N   UNL     1      10.993  11.769  18.422  0.00  0.00    +0.000 NA
ATOM      7  C   UNL     1      11.191  12.406  19.605  0.00  0.00    +0.000 A 
ATOM      8  C   UNL     1      10.446  13.519  19.907  0.00  0.00    +0.000 A 
ATOM      9  N   UNL     1       9.591  14.072  18.993  0.00  0.00    +0.000 NA
ATOM     10  O   UNL     1      10.141  13.793  21.252  0.00  0.00    +0.000 OA
ATOM     11  C   UNL     1       8.733  13.979  21.218  0.00  0.00    +0.000 C 
ATOM     12  C   UNL     1       7.847  14.376  22.373  0.00  0.00    +0.000 C 
ATOM     13  C   UNL     1       6.506  14.588  21.655  0.00  0.00    +0.000 C 
ATOM     14  C   UNL     1       5.283  14.774  22.520  0.00  0.00    +0.000 C 
ATOM     15  C   UNL     1       4.098  14.259  21.709  0.00  0.00    +0.000 C 
ATOM     16  O   UNL     1       4.101  15.090  20.551  0.00  0.00    +0.000 OA
ATOM     17  C   UNL     1       3.717  14.429  19.330  0.00  0.00    +0.000 A 
ATOM     18  C   UNL     1       2.293  14.406  19.383  0.00  0.00    +0.000 A 
ATOM     19  C   UNL     1       1.613  15.457  18.777  0.00  0.00    +0.000 A 
ATOM     20  C   UNL     1       2.344  16.365  17.997  0.00  0.00    +0.000 A 
ATOM     21 CL   UNL     1       1.554  17.796  17.455  0.00  0.00    +0.000 Cl
ATOM     22  C   UNL     1       3.696  16.130  17.663  0.00  0.00    +0.000 A 
ATOM     23  C   UNL     1       4.409  15.066  18.247  0.00  0.00    +0.000 A 
ATOM     24  N   UNL     1       5.577  14.457  17.572  0.00  0.00    +0.000 N 
ATOM     25  H   UNL     1       7.391  12.867  16.918  0.00  0.00    +0.000 HD
ATOM     26  H   UNL     1       5.608  14.832  16.622  0.00  0.00    +0.000 HD
ENDROOT
TORSDOF 0
ENDMDL
MODEL 6
REMARK VINA RESULT:      -6.5      2.580      4.074
REMARK  Name = 
REMARK  0 active torsions:
REMARK  status: ('A' for Active; 'I' for Inactive)
REMARK                            x       y       z     vdW  Elec       q    Type
REMARK                         _______ _______ _______ _____ _____    ______ ____
ROOT
ATOM      1  O   UNL     1      -3.873  10.767  18.695  0.00  0.00    +0.000 OA
ATOM      2  C   UNL     1      -3.578  11.470  17.737  0.00  0.00    +0.000 C 
ATOM      3  N   UNL     1      -4.510  12.211  16.944  0.00  0.00    +0.000 N 
ATOM      4  C   UNL     1      -5.851  12.559  17.361  0.00  0.00    +0.000 A 
ATOM      5  C   UNL     1      -6.688  13.479  16.733  0.00  0.00    +0.000 A 
ATOM      6  N   UNL     1      -7.764  14.111  17.339  0.00  0.00    +0.000 NA
ATOM      7  C   UNL     1      -7.916  13.869  18.667  0.00  0.00    +0.000 A 
ATOM      8  C   UNL     1      -7.120  12.934  19.280  0.00  0.00    +0.000 A 
ATOM      9  N   UNL     1      -6.259  12.152  18.561  0.00  0.00    +0.000 NA
ATOM     10  O   UNL     1      -6.783  13.105  20.634  0.00  0.00    +0.000 OA
ATOM     11  C   UNL     1      -5.369  12.967  20.620  0.00  0.00    +0.000 C 
ATOM     12  C   UNL     1      -4.449  12.982  21.816  0.00  0.00    +0.000 C 
ATOM     13  C   UNL     1      -3.112  12.603  21.163  0.00  0.00    +0.000 C 
ATOM     14  C   UNL     1      -1.868  12.740  22.007  0.00  0.00    +0.000 C 
ATOM     15  C   UNL     1      -0.719  13.017  21.042  0.00  0.00    +0.000 C 
ATOM     16  O   UNL     1      -0.706  11.865  20.202  0.00  0.00    +0.000 OA
ATOM     17  C   UNL     1      -0.370  12.123  18.826  0.00  0.00    +0.000 A 
ATOM     18  C   UNL     1       1.052  12.211  18.828  0.00  0.00    +0.000 A 
ATOM     19  C   UNL     1       1.767  11.047  18.562  0.00  0.00    +0.000 A 
ATOM     20  C   UNL     1       1.062   9.916  18.126  0.00  0.00    +0.000 A 
ATOM     21 CL   UNL     1       1.902   8.416  18.035  0.00  0.00    +0.000 Cl
ATOM     22  C   UNL     1      -0.304   9.988  17.773  0.00  0.00    +0.000 A 
ATOM     23  C   UNL     1      -1.051  11.156  18.016  0.00  0.00    +0.000 A 
ATOM     24  N   UNL     1      -2.255  11.481  17.218  0.00  0.00    +0.000 N 
ATOM     25  H   UNL     1      -4.144  12.723  16.152  0.00  0.00    +0.000 HD
ATOM     26  H   UNL     1      -2.285  10.827  16.433  0.00  0.00    +0.000 HD
ENDROOT
TORSDOF 0
ENDMDL
MODEL 7
REMARK VINA RESULT:      -6.3      8.526     12.643
REMARK  Name = 
REMARK  0 active torsions:
REMARK  status: ('A' for Active; 'I' for Inactive)
REMARK                            x       y       z     vdW  Elec       q    Type
REMARK                         _______ _______ _______ _____ _____    ______ ____
ROOT
ATOM      1  O   UNL     1       7.773  15.540  17.873  0.00  0.00    +0.000 OA
ATOM      2  C   UNL     1       7.299  14.424  17.704  0.00  0.00    +0.000 C 
ATOM      3  N   UNL     1       8.056  13.245  17.419  0.00  0.00    +0.000 N 
ATOM      4  C   UNL     1       9.474  13.097  17.667  0.00  0.00    +0.000 A 
ATOM      5  C   UNL     1      10.188  11.901  17.640  0.00  0.00    +0.000 A 
ATOM      6  N   UNL     1      11.408  11.694  18.267  0.00  0.00    +0.000 NA
ATOM      7  C   UNL     1      11.854  12.719  19.038  0.00  0.00    +0.000 A 
ATOM      8  C   UNL     1      11.176  13.913  19.036  0.00  0.00    +0.000 A 
ATOM      9  N   UNL     1      10.130  14.134  18.183  0.00  0.00    +0.000 NA
ATOM     10  O   UNL     1      11.175  14.701  20.200  0.00  0.00    +0.000 OA
ATOM     11  C   UNL     1       9.792  14.960  20.397  0.00  0.00    +0.000 C 
ATOM     12  C   UNL     1       9.180  15.830  21.467  0.00  0.00    +0.000 C 
ATOM     13  C   UNL     1       7.709  15.847  21.026  0.00  0.00    +0.000 C 
ATOM     14  C   UNL     1       6.707  16.435  21.989  0.00  0.00    +0.000 C 
ATOM     15  C   UNL     1       5.380  15.735  21.714  0.00  0.00    +0.000 C 
ATOM     16  O   UNL     1       5.110  16.058  20.352  0.00  0.00    +0.000 OA
ATOM     17  C   UNL     1       4.474  15.010  19.596  0.00  0.00    +0.000 A 
ATOM     18  C   UNL     1       3.099  15.110  19.955  0.00  0.00    +0.000 A 
ATOM     19  C   UNL     1       2.282  15.896  19.148  0.00  0.00    +0.000 A 
ATOM     20  C   UNL     1       2.804  16.382  17.941  0.00  0.00    +0.000 A 
ATOM     21 CL   UNL     1       1.888  17.550  17.067  0.00  0.00    +0.000 Cl
ATOM     22  C   UNL     1       4.051  15.942  17.445  0.00  0.00    +0.000 A 
ATOM     23  C   UNL     1       4.895  15.133  18.231  0.00  0.00    +0.000 A 
ATOM     24  N   UNL     1       5.893  14.232  17.613  0.00  0.00    +0.000 N 
ATOM     25  H   UNL     1       7.542  12.388  17.259  0.00  0.00    +0.000 HD
ATOM     26  H   UNL     1       5.704  14.212  16.609  0.00  0.00    +0.000 HD
ENDROOT
TORSDOF 0
ENDMDL
MODEL 8
REMARK VINA RESULT:      -6.3      3.633      4.772
REMARK  Name = 
REMARK  0 active torsions:
REMARK  status: ('A' for Active; 'I' for Inactive)
REMARK                            x       y       z     vdW  Elec       q    Type
REMARK                         _______ _______ _______ _____ _____    ______ ____
ROOT
ATOM      1  O   UNL     1       0.544  11.108  22.504  0.00  0.00    +0.000 OA
ATOM      2  C   UNL     1      -0.488  10.730  21.964  0.00  0.00    +0.000 C 
ATOM      3  N   UNL     1      -1.807  11.119  22.353  0.00  0.00    +0.000 N 
ATOM      4  C   UNL     1      -2.121  12.283  23.154  0.00  0.00    +0.000 A 
ATOM      5  C   UNL     1      -3.388  12.830  23.340  0.00  0.00    +0.000 A 
ATOM      6  N   UNL     1      -3.636  14.135  23.738  0.00  0.00    +0.000 NA
ATOM      7  C   UNL     1      -2.544  14.935  23.842  0.00  0.00    +0.000 A 
ATOM      8  C   UNL     1      -1.291  14.392  23.699  0.00  0.00    +0.000 A 
ATOM      9  N   UNL     1      -1.112  13.042  23.574  0.00  0.00    +0.000 NA
ATOM     10  O   UNL     1      -0.259  15.184  23.165  0.00  0.00    +0.000 OA
ATOM     11  C   UNL     1       0.260  14.359  22.132  0.00  0.00    +0.000 C 
ATOM     12  C   UNL     1       1.448  14.657  21.250  0.00  0.00    +0.000 C 
ATOM     13  C   UNL     1       1.598  13.326  20.500  0.00  0.00    +0.000 C 
ATOM     14  C   UNL     1       2.553  13.296  19.332  0.00  0.00    +0.000 C 
ATOM     15  C   UNL     1       2.034  12.228  18.375  0.00  0.00    +0.000 C 
ATOM     16  O   UNL     1       2.063  11.037  19.158  0.00  0.00    +0.000 OA
ATOM     17  C   UNL     1       0.983  10.119  18.904  0.00  0.00    +0.000 A 
ATOM     18  C   UNL     1       1.388   9.426  17.726  0.00  0.00    +0.000 A 
ATOM     19  C   UNL     1       2.082   8.231  17.893  0.00  0.00    +0.000 A 
ATOM     20  C   UNL     1       2.176   7.687  19.182  0.00  0.00    +0.000 A 
ATOM     21 CL   UNL     1       3.235   6.352  19.429  0.00  0.00    +0.000 Cl
ATOM     22  C   UNL     1       1.433   8.214  20.262  0.00  0.00    +0.000 A 
ATOM     23  C   UNL     1       0.709   9.413  20.122  0.00  0.00    +0.000 A 
ATOM     24  N   UNL     1      -0.464   9.709  20.975  0.00  0.00    +0.000 N 
ATOM     25  H   UNL     1      -2.583  10.703  21.852  0.00  0.00    +0.000 HD
ATOM     26  H   UNL     1      -0.691   8.855  21.487  0.00  0.00    +0.000 HD
ENDROOT
TORSDOF 0
ENDMDL
MODEL 9
REMARK VINA RESULT:      -6.2     11.498     13.699
REMARK  Name = 
REMARK  0 active torsions:
REMARK  status: ('A' for Active; 'I' for Inactive)
REMARK                            x       y       z     vdW  Elec       q    Type
REMARK                         _______ _______ _______ _____ _____    ______ ____
ROOT
ATOM      1  O   UNL     1       7.773  12.564  21.524  0.00  0.00    +0.000 OA
ATOM      2  C   UNL     1       8.671  11.876  21.993  0.00  0.00    +0.000 C 
ATOM      3  N   UNL     1       9.795  11.382  21.260  0.00  0.00    +0.000 N 
ATOM      4  C   UNL     1      10.253  11.917  19.996  0.00  0.00    +0.000 A 
ATOM      5  C   UNL     1      11.472  11.635  19.384  0.00  0.00    +0.000 A 
ATOM      6  N   UNL     1      12.079  12.434  18.426  0.00  0.00    +0.000 NA
ATOM      7  C   UNL     1      11.464  13.617  18.171  0.00  0.00    +0.000 A 
ATOM      8  C   UNL     1      10.243  13.881  18.741  0.00  0.00    +0.000 A 
ATOM      9  N   UNL     1       9.576  12.931  19.464  0.00  0.00    +0.000 NA
ATOM     10  O   UNL     1       9.903  15.211  19.044  0.00  0.00    +0.000 OA
ATOM     11  C   UNL     1       9.498  15.124  20.403  0.00  0.00    +0.000 C 
ATOM     12  C   UNL     1       8.948  16.242  21.254  0.00  0.00    +0.000 C 
ATOM     13  C   UNL     1       8.538  15.473  22.520  0.00  0.00    +0.000 C 
ATOM     14  C   UNL     1       8.148  16.290  23.727  0.00  0.00    +0.000 C 
ATOM     15  C   UNL     1       8.482  15.441  24.950  0.00  0.00    +0.000 C 
ATOM     16  O   UNL     1       7.679  14.276  24.774  0.00  0.00    +0.000 OA
ATOM     17  C   UNL     1       8.289  13.049  25.215  0.00  0.00    +0.000 A 
ATOM     18  C   UNL     1       8.087  13.049  26.626  0.00  0.00    +0.000 A 
ATOM     19  C   UNL     1       6.950  12.409  27.110  0.00  0.00    +0.000 A 
ATOM     20  C   UNL     1       6.181  11.648  26.217  0.00  0.00    +0.000 A 
ATOM     21 CL   UNL     1       4.652  11.063  26.751  0.00  0.00    +0.000 Cl
ATOM     22  C   UNL     1       6.632  11.365  24.909  0.00  0.00    +0.000 A 
ATOM     23  C   UNL     1       7.787  11.986  24.395  0.00  0.00    +0.000 A 
ATOM     24  N   UNL     1       8.582  11.360  23.315  0.00  0.00    +0.000 N 
ATOM     25  H   UNL     1      10.449  10.788  21.754  0.00  0.00    +0.000 HD
ATOM     26  H   UNL     1       8.231  10.408  23.192  0.00  0.00    +0.000 HD
ENDROOT
TORSDOF 0
ENDMDL
