MODEL 1
REMARK VINA RESULT:      -5.9      0.000      0.000
REMARK  Name = 
REMARK  7 active torsions:
REMARK  status: ('A' for Active; 'I' for Inactive)
REMARK    1  A    between atoms: C_1  and  N_2
REMARK    2  A    between atoms: N_2  and  C_3
REMARK    3  A    between atoms: N_2  and  C_4
REMARK    4  A    between atoms: C_4  and  C_5
REMARK    5  A    between atoms: C_5  and  O_6
REMARK    6  A    between atoms: C_5  and  C_7
REMARK    7  A    between atoms: C_7  and  N_8
REMARK                            x       y       z     vdW  Elec       q    Type
REMARK                         _______ _______ _______ _____ _____    ______ ____
ROOT
ATOM      1  N   UNL     1       4.492   4.740  16.835  0.00  0.00    +0.000 N 
ATOM      2  C   UNL     1       3.967   5.871  17.376  0.00  0.00    +0.000 C 
ATOM      3  O   UNL     1       4.126   7.013  16.982  0.00  0.00    +0.000 OA
ATOM      4  C   UNL     1       3.186   5.452  18.565  0.00  0.00    +0.000 C 
ATOM      5  C   UNL     1       3.216   4.125  18.626  0.00  0.00    +0.000 C 
ATOM      6  S   UNL     1       2.640   3.072  19.824  0.00  0.00    +0.000 S 
ATOM      7  C   UNL     1       1.525   4.083  20.827  0.00  0.00    +0.000 C 
ATOM      8  C   UNL     1       1.382   5.596  20.646  0.00  0.00    +0.000 C 
ATOM      9  S   UNL     1       2.579   6.565  19.696  0.00  0.00    +0.000 S 
ATOM     10  C   UNL     1       4.043   3.639  17.497  0.00  0.00    +0.000 C 
ATOM     11  O   UNL     1       4.310   2.476  17.253  0.00  0.00    +0.000 OA
ENDROOT
BRANCH   1  12
ATOM     12  C   UNL     1       5.365   4.702  15.669  0.00  0.00    +0.000 C 
BRANCH  12  13
ATOM     13  C   UNL     1       6.729   5.355  15.948  0.00  0.00    +0.000 C 
BRANCH  13  14
ATOM     14  O   UNL     1       7.563   5.221  14.790  0.00  0.00    +0.000 OA
ATOM     15  H   UNL     1       7.573   6.078  14.325  0.00  0.00    +0.000 HD
ENDBRANCH  13  14
BRANCH  13  16
ATOM     16  C   UNL     1       7.400   4.715  17.195  0.00  0.00    +0.000 C 
BRANCH  16  18
ATOM     17  C   UNL     1       7.574   7.064  17.822  0.00  0.00    +0.000 C 
ATOM     18  N   UNL     1       7.726   5.677  18.268  0.00  0.00    +0.000 NA
ATOM     19  C   UNL     1       6.892   5.444  19.450  0.00  0.00    +0.000 C 
ENDBRANCH  16  18
ENDBRANCH  13  16
ENDBRANCH  12  13
ENDBRANCH   1  12
TORSDOF 5
ENDMDL
MODEL 2
REMARK VINA RESULT:      -5.8      0.295      2.179
REMARK  Name = 
REMARK  7 active torsions:
REMARK  status: ('A' for Active; 'I' for Inactive)
REMARK    1  A    between atoms: C_1  and  N_2
REMARK    2  A    between atoms: N_2  and  C_3
REMARK    3  A    between atoms: N_2  and  C_4
REMARK    4  A    between atoms: C_4  and  C_5
REMARK    5  A    between atoms: C_5  and  O_6
REMARK    6  A    between atoms: C_5  and  C_7
REMARK    7  A    between atoms: C_7  and  N_8
REMARK                            x       y       z     vdW  Elec       q    Type
REMARK                         _______ _______ _______ _____ _____    ______ ____
ROOT
ATOM      1  N   UNL     1       4.492   4.923  16.830  0.00  0.00    +0.000 N 
ATOM      2  C   UNL     1       4.017   3.852  17.518  0.00  0.00    +0.000 C 
ATOM      3  O   UNL     1       4.244   2.677  17.291  0.00  0.00    +0.000 OA
ATOM      4  C   UNL     1       3.135   4.387  18.585  0.00  0.00    +0.000 C 
ATOM      5  C   UNL     1       3.191   5.713  18.532  0.00  0.00    +0.000 C 
ATOM      6  S   UNL     1       2.302   6.879  19.385  0.00  0.00    +0.000 S 
ATOM      7  C   UNL     1       1.559   5.974  20.763  0.00  0.00    +0.000 C 
ATOM      8  C   UNL     1       1.633   4.450  20.896  0.00  0.00    +0.000 C 
ATOM      9  S   UNL     1       2.119   3.391  19.513  0.00  0.00    +0.000 S 
ATOM     10  C   UNL     1       4.085   6.085  17.412  0.00  0.00    +0.000 C 
ATOM     11  O   UNL     1       4.351   7.218  17.053  0.00  0.00    +0.000 OA
ENDROOT
BRANCH   1  12
ATOM     12  C   UNL     1       5.368   4.846  15.669  0.00  0.00    +0.000 C 
BRANCH  12  13
ATOM     13  C   UNL     1       6.769   5.407  15.964  0.00  0.00    +0.000 C 
BRANCH  13  14
ATOM     14  O   UNL     1       7.598   5.243  14.808  0.00  0.00    +0.000 OA
ATOM     15  H   UNL     1       8.060   6.085  14.645  0.00  0.00    +0.000 HD
ENDBRANCH  13  14
BRANCH  13  16
ATOM     16  C   UNL     1       7.393   4.703  17.202  0.00  0.00    +0.000 C 
BRANCH  16  18
ATOM     17  C   UNL     1       7.709   7.023  17.879  0.00  0.00    +0.000 C 
ATOM     18  N   UNL     1       7.760   5.621  18.301  0.00  0.00    +0.000 NA
ATOM     19  C   UNL     1       6.887   5.421  19.461  0.00  0.00    +0.000 C 
ENDBRANCH  16  18
ENDBRANCH  13  16
ENDBRANCH  12  13
ENDBRANCH   1  12
TORSDOF 5
ENDMDL
MODEL 3
REMARK VINA RESULT:      -5.6      1.938      3.195
REMARK  Name = 
REMARK  7 active torsions:
REMARK  status: ('A' for Active; 'I' for Inactive)
REMARK    1  A    between atoms: C_1  and  N_2
REMARK    2  A    between atoms: N_2  and  C_3
REMARK    3  A    between atoms: N_2  and  C_4
REMARK    4  A    between atoms: C_4  and  C_5
REMARK    5  A    between atoms: C_5  and  O_6
REMARK    6  A    between atoms: C_5  and  C_7
REMARK    7  A    between atoms: C_7  and  N_8
REMARK                            x       y       z     vdW  Elec       q    Type
REMARK                         _______ _______ _______ _____ _____    ______ ____
ROOT
ATOM      1  N   UNL     1       4.658   5.731  18.323  0.00  0.00    +0.000 N 
ATOM      2  C   UNL     1       5.157   4.691  19.041  0.00  0.00    +0.000 C 
ATOM      3  O   UNL     1       6.324   4.348  19.116  0.00  0.00    +0.000 OA
ATOM      4  C   UNL     1       4.001   4.028  19.692  0.00  0.00    +0.000 C 
ATOM      5  C   UNL     1       2.913   4.732  19.404  0.00  0.00    +0.000 C 
ATOM      6  S   UNL     1       1.281   4.405  19.731  0.00  0.00    +0.000 S 
ATOM      7  C   UNL     1       1.316   3.108  20.991  0.00  0.00    +0.000 C 
ATOM      8  C   UNL     1       2.604   2.406  21.429  0.00  0.00    +0.000 C 
ATOM      9  S   UNL     1       4.133   2.523  20.469  0.00  0.00    +0.000 S 
ATOM     10  C   UNL     1       3.319   5.858  18.532  0.00  0.00    +0.000 C 
ATOM     11  O   UNL     1       2.577   6.697  18.052  0.00  0.00    +0.000 OA
ENDROOT
BRANCH   1  12
ATOM     12  C   UNL     1       5.451   6.628  17.493  0.00  0.00    +0.000 C 
BRANCH  12  13
ATOM     13  C   UNL     1       6.309   5.862  16.472  0.00  0.00    +0.000 C 
BRANCH  13  14
ATOM     14  O   UNL     1       7.548   6.555  16.281  0.00  0.00    +0.000 OA
ATOM     15  H   UNL     1       7.350   7.502  16.165  0.00  0.00    +0.000 HD
ENDBRANCH  13  14
BRANCH  13  16
ATOM     16  C   UNL     1       5.547   5.701  15.127  0.00  0.00    +0.000 C 
BRANCH  16  18
ATOM     17  C   UNL     1       6.377   4.084  13.502  0.00  0.00    +0.000 C 
ATOM     18  N   UNL     1       5.475   4.309  14.634  0.00  0.00    +0.000 NA
ATOM     19  C   UNL     1       5.783   3.359  15.707  0.00  0.00    +0.000 C 
ENDBRANCH  16  18
ENDBRANCH  13  16
ENDBRANCH  12  13
ENDBRANCH   1  12
TORSDOF 5
ENDMDL
MODEL 4
REMARK VINA RESULT:      -5.5      1.658      2.425
REMARK  Name = 
REMARK  7 active torsions:
REMARK  status: ('A' for Active; 'I' for Inactive)
REMARK    1  A    between atoms: C_1  and  N_2
REMARK    2  A    between atoms: N_2  and  C_3
REMARK    3  A    between atoms: N_2  and  C_4
REMARK    4  A    between atoms: C_4  and  C_5
REMARK    5  A    between atoms: C_5  and  O_6
REMARK    6  A    between atoms: C_5  and  C_7
REMARK    7  A    between atoms: C_7  and  N_8
REMARK                            x       y       z     vdW  Elec       q    Type
REMARK                         _______ _______ _______ _____ _____    ______ ____
ROOT
ATOM      1  N   UNL     1       4.328   5.403  17.116  0.00  0.00    +0.000 N 
ATOM      2  C   UNL     1       3.536   6.092  17.978  0.00  0.00    +0.000 C 
ATOM      3  O   UNL     1       3.430   7.303  18.066  0.00  0.00    +0.000 OA
ATOM      4  C   UNL     1       2.847   5.086  18.823  0.00  0.00    +0.000 C 
ATOM      5  C   UNL     1       3.191   3.881  18.382  0.00  0.00    +0.000 C 
ATOM      6  S   UNL     1       2.851   2.346  19.019  0.00  0.00    +0.000 S 
ATOM      7  C   UNL     1       1.503   2.623  20.192  0.00  0.00    +0.000 C 
ATOM      8  C   UNL     1       1.009   4.020  20.580  0.00  0.00    +0.000 C 
ATOM      9  S   UNL     1       1.966   5.511  20.212  0.00  0.00    +0.000 S 
ATOM     10  C   UNL     1       4.137   4.063  17.257  0.00  0.00    +0.000 C 
ATOM     11  O   UNL     1       4.679   3.173  16.625  0.00  0.00    +0.000 OA
ENDROOT
BRANCH   1  12
ATOM     12  C   UNL     1       5.214   6.010  16.131  0.00  0.00    +0.000 C 
BRANCH  12  13
ATOM     13  C   UNL     1       6.696   5.811  16.489  0.00  0.00    +0.000 C 
BRANCH  13  14
ATOM     14  O   UNL     1       7.340   7.088  16.569  0.00  0.00    +0.000 OA
ATOM     15  H   UNL     1       6.677   7.742  16.855  0.00  0.00    +0.000 HD
ENDBRANCH  13  14
BRANCH  13  16
ATOM     16  C   UNL     1       7.396   4.899  15.442  0.00  0.00    +0.000 C 
BRANCH  16  18
ATOM     17  C   UNL     1       8.014   5.418  13.142  0.00  0.00    +0.000 C 
ATOM     18  N   UNL     1       6.918   5.090  14.056  0.00  0.00    +0.000 NA
ATOM     19  C   UNL     1       6.215   3.897  13.577  0.00  0.00    +0.000 C 
ENDBRANCH  16  18
ENDBRANCH  13  16
ENDBRANCH  12  13
ENDBRANCH   1  12
TORSDOF 5
ENDMDL
MODEL 5
REMARK VINA RESULT:      -5.4      2.729      5.362
REMARK  Name = 
REMARK  7 active torsions:
REMARK  status: ('A' for Active; 'I' for Inactive)
REMARK    1  A    between atoms: C_1  and  N_2
REMARK    2  A    between atoms: N_2  and  C_3
REMARK    3  A    between atoms: N_2  and  C_4
REMARK    4  A    between atoms: C_4  and  C_5
REMARK    5  A    between atoms: C_5  and  O_6
REMARK    6  A    between atoms: C_5  and  C_7
REMARK    7  A    between atoms: C_7  and  N_8
REMARK                            x       y       z     vdW  Elec       q    Type
REMARK                         _______ _______ _______ _____ _____    ______ ____
ROOT
ATOM      1  N   UNL     1       3.728   2.919  18.240  0.00  0.00    +0.000 N 
ATOM      2  C   UNL     1       4.747   3.216  19.088  0.00  0.00    +0.000 C 
ATOM      3  O   UNL     1       5.036   2.632  20.118  0.00  0.00    +0.000 OA
ATOM      4  C   UNL     1       5.426   4.415  18.537  0.00  0.00    +0.000 C 
ATOM      5  C   UNL     1       4.845   4.716  17.381  0.00  0.00    +0.000 C 
ATOM      6  S   UNL     1       5.072   6.049  16.358  0.00  0.00    +0.000 S 
ATOM      7  C   UNL     1       6.630   6.788  16.904  0.00  0.00    +0.000 C 
ATOM      8  C   UNL     1       7.375   6.328  18.160  0.00  0.00    +0.000 C 
ATOM      9  S   UNL     1       6.587   5.290  19.415  0.00  0.00    +0.000 S 
ATOM     10  C   UNL     1       3.751   3.742  17.156  0.00  0.00    +0.000 C 
ATOM     11  O   UNL     1       2.988   3.728  16.207  0.00  0.00    +0.000 OA
ENDROOT
BRANCH   1  12
ATOM     12  C   UNL     1       2.777   1.832  18.428  0.00  0.00    +0.000 C 
BRANCH  12  13
ATOM     13  C   UNL     1       1.494   2.302  19.132  0.00  0.00    +0.000 C 
BRANCH  13  14
ATOM     14  O   UNL     1       0.354   1.808  18.418  0.00  0.00    +0.000 OA
ATOM     15  H   UNL     1       0.609   0.975  17.983  0.00  0.00    +0.000 HD
ENDBRANCH  13  14
BRANCH  13  16
ATOM     16  C   UNL     1       1.459   3.853  19.232  0.00  0.00    +0.000 C 
BRANCH  16  18
ATOM     17  C   UNL     1       1.973   3.503  21.589  0.00  0.00    +0.000 C 
ATOM     18  N   UNL     1       1.313   4.369  20.609  0.00  0.00    +0.000 NA
ATOM     19  C   UNL     1       1.844   5.731  20.716  0.00  0.00    +0.000 C 
ENDBRANCH  16  18
ENDBRANCH  13  16
ENDBRANCH  12  13
ENDBRANCH   1  12
TORSDOF 5
ENDMDL
MODEL 6
REMARK VINA RESULT:      -5.3      1.681      3.175
REMARK  Name = 
REMARK  7 active torsions:
REMARK  status: ('A' for Active; 'I' for Inactive)
REMARK    1  A    between atoms: C_1  and  N_2
REMARK    2  A    between atoms: N_2  and  C_3
REMARK    3  A    between atoms: N_2  and  C_4
REMARK    4  A    between atoms: C_4  and  C_5
REMARK    5  A    between atoms: C_5  and  O_6
REMARK    6  A    between atoms: C_5  and  C_7
REMARK    7  A    between atoms: C_7  and  N_8
REMARK                            x       y       z     vdW  Elec       q    Type
REMARK                         _______ _______ _______ _____ _____    ______ ____
ROOT
ATOM      1  N   UNL     1       4.268   5.262  17.281  0.00  0.00    +0.000 N 
ATOM      2  C   UNL     1       4.096   3.919  17.392  0.00  0.00    +0.000 C 
ATOM      3  O   UNL     1       4.590   3.057  16.687  0.00  0.00    +0.000 OA
ATOM      4  C   UNL     1       3.158   3.702  18.521  0.00  0.00    +0.000 C 
ATOM      5  C   UNL     1       2.890   4.885  19.061  0.00  0.00    +0.000 C 
ATOM      6  S   UNL     1       1.783   5.306  20.276  0.00  0.00    +0.000 S 
ATOM      7  C   UNL     1       1.342   3.738  21.060  0.00  0.00    +0.000 C 
ATOM      8  C   UNL     1       1.787   2.379  20.514  0.00  0.00    +0.000 C 
ATOM      9  S   UNL     1       2.454   2.189  18.843  0.00  0.00    +0.000 S 
ATOM     10  C   UNL     1       3.619   5.914  18.284  0.00  0.00    +0.000 C 
ATOM     11  O   UNL     1       3.587   7.116  18.480  0.00  0.00    +0.000 OA
ENDROOT
BRANCH   1  12
ATOM     12  C   UNL     1       5.086   5.916  16.268  0.00  0.00    +0.000 C 
BRANCH  12  13
ATOM     13  C   UNL     1       6.589   5.779  16.562  0.00  0.00    +0.000 C 
BRANCH  13  14
ATOM     14  O   UNL     1       7.195   7.077  16.544  0.00  0.00    +0.000 OA
ATOM     15  H   UNL     1       7.679   7.195  17.382  0.00  0.00    +0.000 HD
ENDBRANCH  13  14
BRANCH  13  16
ATOM     16  C   UNL     1       7.266   4.833  15.532  0.00  0.00    +0.000 C 
BRANCH  16  18
ATOM     17  C   UNL     1       7.961   5.395  13.264  0.00  0.00    +0.000 C 
ATOM     18  N   UNL     1       6.835   5.050  14.135  0.00  0.00    +0.000 NA
ATOM     19  C   UNL     1       6.149   3.865  13.611  0.00  0.00    +0.000 C 
ENDBRANCH  16  18
ENDBRANCH  13  16
ENDBRANCH  12  13
ENDBRANCH   1  12
TORSDOF 5
ENDMDL
MODEL 7
REMARK VINA RESULT:      -5.2      1.917      3.351
REMARK  Name = 
REMARK  7 active torsions:
REMARK  status: ('A' for Active; 'I' for Inactive)
REMARK    1  A    between atoms: C_1  and  N_2
REMARK    2  A    between atoms: N_2  and  C_3
REMARK    3  A    between atoms: N_2  and  C_4
REMARK    4  A    between atoms: C_4  and  C_5
REMARK    5  A    between atoms: C_5  and  O_6
REMARK    6  A    between atoms: C_5  and  C_7
REMARK    7  A    between atoms: C_7  and  N_8
REMARK                            x       y       z     vdW  Elec       q    Type
REMARK                         _______ _______ _______ _____ _____    ______ ____
ROOT
ATOM      1  N   UNL     1       5.012   5.743  18.121  0.00  0.00    +0.000 N 
ATOM      2  C   UNL     1       5.386   4.631  18.806  0.00  0.00    +0.000 C 
ATOM      3  O   UNL     1       6.504   4.151  18.868  0.00  0.00    +0.000 OA
ATOM      4  C   UNL     1       4.160   4.088  19.441  0.00  0.00    +0.000 C 
ATOM      5  C   UNL     1       3.161   4.923  19.177  0.00  0.00    +0.000 C 
ATOM      6  S   UNL     1       1.502   4.780  19.500  0.00  0.00    +0.000 S 
ATOM      7  C   UNL     1       1.384   3.451  20.720  0.00  0.00    +0.000 C 
ATOM      8  C   UNL     1       2.581   2.589  21.133  0.00  0.00    +0.000 C 
ATOM      9  S   UNL     1       4.113   2.556  20.172  0.00  0.00    +0.000 S 
ATOM     10  C   UNL     1       3.697   6.020  18.338  0.00  0.00    +0.000 C 
ATOM     11  O   UNL     1       3.058   6.954  17.886  0.00  0.00    +0.000 OA
ENDROOT
BRANCH   1  12
ATOM     12  C   UNL     1       5.905   6.565  17.316  0.00  0.00    +0.000 C 
BRANCH  12  13
ATOM     13  C   UNL     1       5.804   6.231  15.819  0.00  0.00    +0.000 C 
BRANCH  13  14
ATOM     14  O   UNL     1       4.836   7.091  15.205  0.00  0.00    +0.000 OA
ATOM     15  H   UNL     1       4.838   7.939  15.686  0.00  0.00    +0.000 HD
ENDBRANCH  13  14
BRANCH  13  16
ATOM     16  C   UNL     1       5.430   4.736  15.614  0.00  0.00    +0.000 C 
BRANCH  16  18
ATOM     17  C   UNL     1       5.347   3.753  13.385  0.00  0.00    +0.000 C 
ATOM     18  N   UNL     1       6.191   4.062  14.541  0.00  0.00    +0.000 NA
ATOM     19  C   UNL     1       7.331   4.881  14.117  0.00  0.00    +0.000 C 
ENDBRANCH  16  18
ENDBRANCH  13  16
ENDBRANCH  12  13
ENDBRANCH   1  12
TORSDOF 5
ENDMDL
MODEL 8
REMARK VINA RESULT:      -5.2      1.040      1.359
REMARK  Name = 
REMARK  7 active torsions:
REMARK  status: ('A' for Active; 'I' for Inactive)
REMARK    1  A    between atoms: C_1  and  N_2
REMARK    2  A    between atoms: N_2  and  C_3
REMARK    3  A    between atoms: N_2  and  C_4
REMARK    4  A    between atoms: C_4  and  C_5
REMARK    5  A    between atoms: C_5  and  O_6
REMARK    6  A    between atoms: C_5  and  C_7
REMARK    7  A    between atoms: C_7  and  N_8
REMARK                            x       y       z     vdW  Elec       q    Type
REMARK                         _______ _______ _______ _____ _____    ______ ____
ROOT
ATOM      1  N   UNL     1       4.488   5.295  16.867  0.00  0.00    +0.000 N 
ATOM      2  C   UNL     1       3.723   5.942  17.785  0.00  0.00    +0.000 C 
ATOM      3  O   UNL     1       3.653   7.145  17.962  0.00  0.00    +0.000 OA
ATOM      4  C   UNL     1       3.009   4.896  18.558  0.00  0.00    +0.000 C 
ATOM      5  C   UNL     1       3.314   3.717  18.026  0.00  0.00    +0.000 C 
ATOM      6  S   UNL     1       2.933   2.150  18.551  0.00  0.00    +0.000 S 
ATOM      7  C   UNL     1       1.601   2.379  19.753  0.00  0.00    +0.000 C 
ATOM      8  C   UNL     1       1.152   3.756  20.247  0.00  0.00    +0.000 C 
ATOM      9  S   UNL     1       2.150   5.242  19.982  0.00  0.00    +0.000 S 
ATOM     10  C   UNL     1       4.258   3.954  16.910  0.00  0.00    +0.000 C 
ATOM     11  O   UNL     1       4.769   3.099  16.210  0.00  0.00    +0.000 OA
ENDROOT
BRANCH   1  12
ATOM     12  C   UNL     1       5.385   5.947  15.923  0.00  0.00    +0.000 C 
BRANCH  12  13
ATOM     13  C   UNL     1       6.863   5.662  16.240  0.00  0.00    +0.000 C 
BRANCH  13  14
ATOM     14  O   UNL     1       7.378   4.721  15.290  0.00  0.00    +0.000 OA
ATOM     15  H   UNL     1       7.887   5.214  14.622  0.00  0.00    +0.000 HD
ENDBRANCH  13  14
BRANCH  13  16
ATOM     16  C   UNL     1       7.020   5.132  17.692  0.00  0.00    +0.000 C 
BRANCH  16  18
ATOM     17  C   UNL     1       8.078   5.691  19.816  0.00  0.00    +0.000 C 
ATOM     18  N   UNL     1       7.272   6.186  18.698  0.00  0.00    +0.000 NA
ATOM     19  C   UNL     1       7.931   7.344  18.087  0.00  0.00    +0.000 C 
ENDBRANCH  16  18
ENDBRANCH  13  16
ENDBRANCH  12  13
ENDBRANCH   1  12
TORSDOF 5
ENDMDL
MODEL 9
REMARK VINA RESULT:      -5.1      2.013      3.323
REMARK  Name = 
REMARK  7 active torsions:
REMARK  status: ('A' for Active; 'I' for Inactive)
REMARK    1  A    between atoms: C_1  and  N_2
REMARK    2  A    between atoms: N_2  and  C_3
REMARK    3  A    between atoms: N_2  and  C_4
REMARK    4  A    between atoms: C_4  and  C_5
REMARK    5  A    between atoms: C_5  and  O_6
REMARK    6  A    between atoms: C_5  and  C_7
REMARK    7  A    between atoms: C_7  and  N_8
REMARK                            x       y       z     vdW  Elec       q    Type
REMARK                         _______ _______ _______ _____ _____    ______ ____
ROOT
ATOM      1  N   UNL     1       5.049   5.765  18.296  0.00  0.00    +0.000 N 
ATOM      2  C   UNL     1       5.240   4.569  18.911  0.00  0.00    +0.000 C 
ATOM      3  O   UNL     1       6.280   4.151  19.390  0.00  0.00    +0.000 OA
ATOM      4  C   UNL     1       3.944   3.850  18.859  0.00  0.00    +0.000 C 
ATOM      5  C   UNL     1       3.051   4.661  18.303  0.00  0.00    +0.000 C 
ATOM      6  S   UNL     1       1.446   4.365  17.839  0.00  0.00    +0.000 S 
ATOM      7  C   UNL     1       0.999   2.830  18.683  0.00  0.00    +0.000 C 
ATOM      8  C   UNL     1       2.010   1.978  19.454  0.00  0.00    +0.000 C 
ATOM      9  S   UNL     1       3.795   2.209  19.271  0.00  0.00    +0.000 S 
ATOM     10  C   UNL     1       3.742   5.922  17.948  0.00  0.00    +0.000 C 
ATOM     11  O   UNL     1       3.238   6.885  17.398  0.00  0.00    +0.000 OA
ENDROOT
BRANCH   1  12
ATOM     12  C   UNL     1       6.082   6.772  18.090  0.00  0.00    +0.000 C 
BRANCH  12  13
ATOM     13  C   UNL     1       7.080   6.358  16.996  0.00  0.00    +0.000 C 
BRANCH  13  14
ATOM     14  O   UNL     1       7.949   7.460  16.707  0.00  0.00    +0.000 OA
ATOM     15  H   UNL     1       8.009   8.015  17.506  0.00  0.00    +0.000 HD
ENDBRANCH  13  14
BRANCH  13  16
ATOM     16  C   UNL     1       6.331   5.889  15.718  0.00  0.00    +0.000 C 
BRANCH  16  18
ATOM     17  C   UNL     1       5.834   3.512  15.499  0.00  0.00    +0.000 C 
ATOM     18  N   UNL     1       6.785   4.584  15.194  0.00  0.00    +0.000 NA
ATOM     19  C   UNL     1       7.007   4.651  13.746  0.00  0.00    +0.000 C 
ENDBRANCH  16  18
ENDBRANCH  13  16
ENDBRANCH  12  13
ENDBRANCH   1  12
TORSDOF 5
ENDMDL
