MODEL 1
REMARK VINA RESULT:      -7.3      0.000      0.000
REMARK  Name = 
REMARK  10 active torsions:
REMARK  status: ('A' for Active; 'I' for Inactive)
REMARK    1  A    between atoms: C_2  and  C_3
REMARK    2  A    between atoms: C_3  and  C_4
REMARK    3  A    between atoms: C_6  and  C_7
REMARK    4  A    between atoms: C_9  and  C_10
REMARK    5  A    between atoms: C_10  and  C_11
REMARK    6  A    between atoms: C_11  and  O_12
REMARK    7  A    between atoms: C_11  and  C_13
REMARK    8  A    between atoms: C_13  and  O_14
REMARK    9  A    between atoms: C_17  and  O_18
REMARK   10  A    between atoms: C_21  and  O_22
REMARK                            x       y       z     vdW  Elec       q    Type
REMARK                         _______ _______ _______ _____ _____    ______ ____
ROOT
ATOM      1  C   UNL     1       5.004   4.189  17.568  0.00  0.00    +0.000 A 
ATOM      2  C   UNL     1       4.832   4.108  16.160  0.00  0.00    +0.000 A 
ATOM      3  C   UNL     1       5.876   4.371  15.247  0.00  0.00    +0.000 A 
ATOM      4  C   UNL     1       7.113   4.774  15.755  0.00  0.00    +0.000 A 
ATOM      5  C   UNL     1       7.320   4.867  17.128  0.00  0.00    +0.000 A 
ATOM      6  C   UNL     1       6.287   4.560  18.015  0.00  0.00    +0.000 A 
ENDROOT
BRANCH   1   9
ATOM      7  C   UNL     1       2.126   4.608  20.086  0.00  0.00    +0.000 A 
ATOM      8  C   UNL     1       3.184   4.892  19.196  0.00  0.00    +0.000 A 
ATOM      9  C   UNL     1       3.871   3.881  18.490  0.00  0.00    +0.000 A 
ATOM     10  C   UNL     1       3.436   2.559  18.711  0.00  0.00    +0.000 A 
ATOM     11  C   UNL     1       2.347   2.263  19.536  0.00  0.00    +0.000 A 
ATOM     12  C   UNL     1       1.699   3.286  20.214  0.00  0.00    +0.000 A 
BRANCH  12  13
ATOM     13  O   UNL     1       0.634   3.003  21.021  0.00  0.00    +0.000 OA
ATOM     14  H   UNL     1       0.024   2.425  20.534  0.00  0.00    +0.000 HD
ENDBRANCH  12  13
BRANCH   7  15
ATOM     15  C   UNL     1       1.485   5.726  20.874  0.00  0.00    +0.000 C 
BRANCH  15  17
ATOM     16  C   UNL     1       1.347   8.236  20.859  0.00  0.00    +0.000 C 
ATOM     17  C   UNL     1       1.871   7.095  20.392  0.00  0.00    +0.000 C 
ENDBRANCH  15  17
ENDBRANCH   7  15
ENDBRANCH   1   9
BRANCH   6  18
ATOM     18  O   UNL     1       6.574   4.608  19.357  0.00  0.00    +0.000 OA
ATOM     19  H   UNL     1       6.718   5.529  19.619  0.00  0.00    +0.000 HD
ENDBRANCH   6  18
BRANCH   3  20
ATOM     20  C   UNL     1       5.622   4.169  13.763  0.00  0.00    +0.000 C 
BRANCH  20  21
ATOM     21  C   UNL     1       6.819   3.725  12.898  0.00  0.00    +0.000 C 
BRANCH  21  22
ATOM     22  O   UNL     1       6.471   2.622  12.049  0.00  0.00    +0.000 OA
ATOM     23  H   UNL     1       5.506   2.498  12.094  0.00  0.00    +0.000 HD
ENDBRANCH  21  22
BRANCH  21  24
ATOM     24  C   UNL     1       7.330   4.868  12.007  0.00  0.00    +0.000 C 
BRANCH  24  25
ATOM     25  O   UNL     1       8.204   5.741  12.724  0.00  0.00    +0.000 OA
ATOM     26  H   UNL     1       9.037   5.265  12.891  0.00  0.00    +0.000 HD
ENDBRANCH  24  25
ENDBRANCH  21  24
ENDBRANCH  20  21
ENDBRANCH   3  20
TORSDOF 10
ENDMDL
MODEL 2
REMARK VINA RESULT:      -7.1      3.711      7.509
REMARK  Name = 
REMARK  10 active torsions:
REMARK  status: ('A' for Active; 'I' for Inactive)
REMARK    1  A    between atoms: C_2  and  C_3
REMARK    2  A    between atoms: C_3  and  C_4
REMARK    3  A    between atoms: C_6  and  C_7
REMARK    4  A    between atoms: C_9  and  C_10
REMARK    5  A    between atoms: C_10  and  C_11
REMARK    6  A    between atoms: C_11  and  O_12
REMARK    7  A    between atoms: C_11  and  C_13
REMARK    8  A    between atoms: C_13  and  O_14
REMARK    9  A    between atoms: C_17  and  O_18
REMARK   10  A    between atoms: C_21  and  O_22
REMARK                            x       y       z     vdW  Elec       q    Type
REMARK                         _______ _______ _______ _____ _____    ______ ____
ROOT
ATOM      1  C   UNL     1       2.430   7.160  18.993  0.00  0.00    +0.000 A 
ATOM      2  C   UNL     1       2.033   8.393  18.407  0.00  0.00    +0.000 A 
ATOM      3  C   UNL     1       1.262   9.353  19.097  0.00  0.00    +0.000 A 
ATOM      4  C   UNL     1       0.834   9.051  20.392  0.00  0.00    +0.000 A 
ATOM      5  C   UNL     1       1.200   7.854  21.000  0.00  0.00    +0.000 A 
ATOM      6  C   UNL     1       2.000   6.937  20.316  0.00  0.00    +0.000 A 
ENDROOT
BRANCH   1   9
ATOM      7  C   UNL     1       5.397   5.549  17.150  0.00  0.00    +0.000 A 
ATOM      8  C   UNL     1       4.609   6.453  17.893  0.00  0.00    +0.000 A 
ATOM      9  C   UNL     1       3.262   6.188  18.225  0.00  0.00    +0.000 A 
ATOM     10  C   UNL     1       2.741   4.957  17.783  0.00  0.00    +0.000 A 
ATOM     11  C   UNL     1       3.524   4.019  17.103  0.00  0.00    +0.000 A 
ATOM     12  C   UNL     1       4.845   4.318  16.795  0.00  0.00    +0.000 A 
BRANCH  12  13
ATOM     13  O   UNL     1       5.615   3.405  16.132  0.00  0.00    +0.000 OA
ATOM     14  H   UNL     1       6.418   3.851  15.818  0.00  0.00    +0.000 HD
ENDBRANCH  12  13
BRANCH   7  15
ATOM     15  C   UNL     1       6.806   5.926  16.757  0.00  0.00    +0.000 C 
BRANCH  15  17
ATOM     16  C   UNL     1       7.839   8.064  17.583  0.00  0.00    +0.000 C 
ATOM     17  C   UNL     1       7.502   6.781  17.776  0.00  0.00    +0.000 C 
ENDBRANCH  15  17
ENDBRANCH   7  15
ENDBRANCH   1   9
BRANCH   6  18
ATOM     18  O   UNL     1       2.381   5.805  20.993  0.00  0.00    +0.000 OA
ATOM     19  H   UNL     1       3.167   6.000  21.524  0.00  0.00    +0.000 HD
ENDBRANCH   6  18
BRANCH   3  20
ATOM     20  C   UNL     1       0.965  10.681  18.421  0.00  0.00    +0.000 C 
BRANCH  20  21
ATOM     21  C   UNL     1      -0.496  11.172  18.446  0.00  0.00    +0.000 C 
BRANCH  21  22
ATOM     22  O   UNL     1      -0.648  12.401  17.723  0.00  0.00    +0.000 OA
ATOM     23  H   UNL     1       0.148  12.941  17.874  0.00  0.00    +0.000 HD
ENDBRANCH  21  22
BRANCH  21  24
ATOM     24  C   UNL     1      -1.453  10.138  17.831  0.00  0.00    +0.000 C 
BRANCH  24  25
ATOM     25  O   UNL     1      -1.855  10.515  16.513  0.00  0.00    +0.000 OA
ATOM     26  H   UNL     1      -1.083  10.432  15.926  0.00  0.00    +0.000 HD
ENDBRANCH  24  25
ENDBRANCH  21  24
ENDBRANCH  20  21
ENDBRANCH   3  20
TORSDOF 10
ENDMDL
MODEL 3
REMARK VINA RESULT:      -7.1      3.660      7.436
REMARK  Name = 
REMARK  10 active torsions:
REMARK  status: ('A' for Active; 'I' for Inactive)
REMARK    1  A    between atoms: C_2  and  C_3
REMARK    2  A    between atoms: C_3  and  C_4
REMARK    3  A    between atoms: C_6  and  C_7
REMARK    4  A    between atoms: C_9  and  C_10
REMARK    5  A    between atoms: C_10  and  C_11
REMARK    6  A    between atoms: C_11  and  O_12
REMARK    7  A    between atoms: C_11  and  C_13
REMARK    8  A    between atoms: C_13  and  O_14
REMARK    9  A    between atoms: C_17  and  O_18
REMARK   10  A    between atoms: C_21  and  O_22
REMARK                            x       y       z     vdW  Elec       q    Type
REMARK                         _______ _______ _______ _____ _____    ______ ____
ROOT
ATOM      1  C   UNL     1       2.538   7.109  18.931  0.00  0.00    +0.000 A 
ATOM      2  C   UNL     1       2.142   8.329  18.320  0.00  0.00    +0.000 A 
ATOM      3  C   UNL     1       1.359   9.297  18.984  0.00  0.00    +0.000 A 
ATOM      4  C   UNL     1       0.917   9.017  20.279  0.00  0.00    +0.000 A 
ATOM      5  C   UNL     1       1.281   7.832  20.911  0.00  0.00    +0.000 A 
ATOM      6  C   UNL     1       2.094   6.907  20.253  0.00  0.00    +0.000 A 
ENDROOT
BRANCH   1   9
ATOM      7  C   UNL     1       5.541   5.470  17.174  0.00  0.00    +0.000 A 
ATOM      8  C   UNL     1       4.739   6.383  17.891  0.00  0.00    +0.000 A 
ATOM      9  C   UNL     1       3.384   6.127  18.191  0.00  0.00    +0.000 A 
ATOM     10  C   UNL     1       2.867   4.896  17.743  0.00  0.00    +0.000 A 
ATOM     11  C   UNL     1       3.662   3.949  17.089  0.00  0.00    +0.000 A 
ATOM     12  C   UNL     1       4.991   4.240  16.812  0.00  0.00    +0.000 A 
BRANCH  12  13
ATOM     13  O   UNL     1       5.772   3.319  16.175  0.00  0.00    +0.000 OA
ATOM     14  H   UNL     1       6.437   2.992  16.802  0.00  0.00    +0.000 HD
ENDBRANCH  12  13
BRANCH   7  15
ATOM     15  C   UNL     1       6.962   5.837  16.813  0.00  0.00    +0.000 C 
BRANCH  15  17
ATOM     16  C   UNL     1       7.840   8.060  17.591  0.00  0.00    +0.000 C 
ATOM     17  C   UNL     1       7.611   6.757  17.806  0.00  0.00    +0.000 C 
ENDBRANCH  15  17
ENDBRANCH   7  15
ENDBRANCH   1   9
BRANCH   6  18
ATOM     18  O   UNL     1       2.471   5.789  20.954  0.00  0.00    +0.000 OA
ATOM     19  H   UNL     1       2.862   6.059  21.799  0.00  0.00    +0.000 HD
ENDBRANCH   6  18
BRANCH   3  20
ATOM     20  C   UNL     1       1.064  10.612  18.280  0.00  0.00    +0.000 C 
BRANCH  20  21
ATOM     21  C   UNL     1       1.956  11.817  18.637  0.00  0.00    +0.000 C 
BRANCH  21  22
ATOM     22  O   UNL     1       2.276  12.594  17.474  0.00  0.00    +0.000 OA
ATOM     23  H   UNL     1       1.518  13.175  17.281  0.00  0.00    +0.000 HD
ENDBRANCH  21  22
BRANCH  21  24
ATOM     24  C   UNL     1       1.276  12.744  19.656  0.00  0.00    +0.000 C 
BRANCH  24  25
ATOM     25  O   UNL     1       1.730  12.486  20.986  0.00  0.00    +0.000 OA
ATOM     26  H   UNL     1       0.973  12.585  21.589  0.00  0.00    +0.000 HD
ENDBRANCH  24  25
ENDBRANCH  21  24
ENDBRANCH  20  21
ENDBRANCH   3  20
TORSDOF 10
ENDMDL
MODEL 4
REMARK VINA RESULT:      -7.1      2.618      7.303
REMARK  Name = 
REMARK  10 active torsions:
REMARK  status: ('A' for Active; 'I' for Inactive)
REMARK    1  A    between atoms: C_2  and  C_3
REMARK    2  A    between atoms: C_3  and  C_4
REMARK    3  A    between atoms: C_6  and  C_7
REMARK    4  A    between atoms: C_9  and  C_10
REMARK    5  A    between atoms: C_10  and  C_11
REMARK    6  A    between atoms: C_11  and  O_12
REMARK    7  A    between atoms: C_11  and  C_13
REMARK    8  A    between atoms: C_13  and  O_14
REMARK    9  A    between atoms: C_17  and  O_18
REMARK   10  A    between atoms: C_21  and  O_22
REMARK                            x       y       z     vdW  Elec       q    Type
REMARK                         _______ _______ _______ _____ _____    ______ ____
ROOT
ATOM      1  C   UNL     1       3.661   4.637  19.027  0.00  0.00    +0.000 A 
ATOM      2  C   UNL     1       2.799   5.669  19.486  0.00  0.00    +0.000 A 
ATOM      3  C   UNL     1       1.796   5.452  20.455  0.00  0.00    +0.000 A 
ATOM      4  C   UNL     1       1.617   4.155  20.943  0.00  0.00    +0.000 A 
ATOM      5  C   UNL     1       2.439   3.117  20.516  0.00  0.00    +0.000 A 
ATOM      6  C   UNL     1       3.455   3.362  19.590  0.00  0.00    +0.000 A 
ENDROOT
BRANCH   1   9
ATOM      7  C   UNL     1       6.840   6.016  17.358  0.00  0.00    +0.000 A 
ATOM      8  C   UNL     1       5.846   5.722  18.315  0.00  0.00    +0.000 A 
ATOM      9  C   UNL     1       4.720   4.925  18.014  0.00  0.00    +0.000 A 
ATOM     10  C   UNL     1       4.642   4.423  16.701  0.00  0.00    +0.000 A 
ATOM     11  C   UNL     1       5.649   4.648  15.758  0.00  0.00    +0.000 A 
ATOM     12  C   UNL     1       6.741   5.438  16.092  0.00  0.00    +0.000 A 
BRANCH  12  13
ATOM     13  O   UNL     1       7.729   5.661  15.175  0.00  0.00    +0.000 OA
ATOM     14  H   UNL     1       8.445   6.154  15.608  0.00  0.00    +0.000 HD
ENDBRANCH  12  13
BRANCH   7  15
ATOM     15  C   UNL     1       7.980   6.942  17.717  0.00  0.00    +0.000 C 
BRANCH  15  17
ATOM     16  C   UNL     1       8.372   9.393  18.111  0.00  0.00    +0.000 C 
ATOM     17  C   UNL     1       7.618   8.396  17.628  0.00  0.00    +0.000 C 
ENDBRANCH  15  17
ENDBRANCH   7  15
ENDBRANCH   1   9
BRANCH   6  18
ATOM     18  O   UNL     1       4.273   2.310  19.259  0.00  0.00    +0.000 OA
ATOM     19  H   UNL     1       5.143   2.443  19.666  0.00  0.00    +0.000 HD
ENDBRANCH   6  18
BRANCH   3  20
ATOM     20  C   UNL     1       0.985   6.637  20.951  0.00  0.00    +0.000 C 
BRANCH  20  21
ATOM     21  C   UNL     1       1.642   8.028  20.858  0.00  0.00    +0.000 C 
BRANCH  21  22
ATOM     22  O   UNL     1       1.353   8.662  19.604  0.00  0.00    +0.000 OA
ATOM     23  H   UNL     1       2.018   8.369  18.956  0.00  0.00    +0.000 HD
ENDBRANCH  21  22
BRANCH  21  24
ATOM     24  C   UNL     1       1.161   8.958  21.983  0.00  0.00    +0.000 C 
BRANCH  24  25
ATOM     25  O   UNL     1       2.225   9.296  22.875  0.00  0.00    +0.000 OA
ATOM     26  H   UNL     1       2.110   8.779  23.692  0.00  0.00    +0.000 HD
ENDBRANCH  24  25
ENDBRANCH  21  24
ENDBRANCH  20  21
ENDBRANCH   3  20
TORSDOF 10
ENDMDL
MODEL 5
REMARK VINA RESULT:      -7.1      1.341      1.438
REMARK  Name = 
REMARK  10 active torsions:
REMARK  status: ('A' for Active; 'I' for Inactive)
REMARK    1  A    between atoms: C_2  and  C_3
REMARK    2  A    between atoms: C_3  and  C_4
REMARK    3  A    between atoms: C_6  and  C_7
REMARK    4  A    between atoms: C_9  and  C_10
REMARK    5  A    between atoms: C_10  and  C_11
REMARK    6  A    between atoms: C_11  and  O_12
REMARK    7  A    between atoms: C_11  and  C_13
REMARK    8  A    between atoms: C_13  and  O_14
REMARK    9  A    between atoms: C_17  and  O_18
REMARK   10  A    between atoms: C_21  and  O_22
REMARK                            x       y       z     vdW  Elec       q    Type
REMARK                         _______ _______ _______ _____ _____    ______ ____
ROOT
ATOM      1  C   UNL     1       4.874   4.142  16.976  0.00  0.00    +0.000 A 
ATOM      2  C   UNL     1       4.803   4.269  15.563  0.00  0.00    +0.000 A 
ATOM      3  C   UNL     1       5.933   4.540  14.763  0.00  0.00    +0.000 A 
ATOM      4  C   UNL     1       7.161   4.740  15.398  0.00  0.00    +0.000 A 
ATOM      5  C   UNL     1       7.272   4.626  16.780  0.00  0.00    +0.000 A 
ATOM      6  C   UNL     1       6.150   4.313  17.549  0.00  0.00    +0.000 A 
ENDROOT
BRANCH   1   9
ATOM      7  C   UNL     1       1.974   4.456  19.483  0.00  0.00    +0.000 A 
ATOM      8  C   UNL     1       3.118   4.747  18.710  0.00  0.00    +0.000 A 
ATOM      9  C   UNL     1       3.651   3.834  17.774  0.00  0.00    +0.000 A 
ATOM     10  C   UNL     1       2.970   2.608  17.640  0.00  0.00    +0.000 A 
ATOM     11  C   UNL     1       1.798   2.327  18.348  0.00  0.00    +0.000 A 
ATOM     12  C   UNL     1       1.306   3.251  19.260  0.00  0.00    +0.000 A 
BRANCH  12  13
ATOM     13  O   UNL     1       0.161   2.982  19.954  0.00  0.00    +0.000 OA
ATOM     14  H   UNL     1      -0.175   3.814  20.327  0.00  0.00    +0.000 HD
ENDBRANCH  12  13
BRANCH   7  15
ATOM     15  C   UNL     1       1.500   5.441  20.527  0.00  0.00    +0.000 C 
BRANCH  15  17
ATOM     16  C   UNL     1       1.492   7.954  20.563  0.00  0.00    +0.000 C 
ATOM     17  C   UNL     1       2.142   6.793  20.407  0.00  0.00    +0.000 C 
ENDBRANCH  15  17
ENDBRANCH   7  15
ENDBRANCH   1   9
BRANCH   6  18
ATOM     18  O   UNL     1       6.337   4.151  18.900  0.00  0.00    +0.000 OA
ATOM     19  H   UNL     1       6.519   3.218  19.086  0.00  0.00    +0.000 HD
ENDBRANCH   6  18
BRANCH   3  20
ATOM     20  C   UNL     1       5.775   4.567  13.252  0.00  0.00    +0.000 C 
BRANCH  20  21
ATOM     21  C   UNL     1       5.495   3.223  12.550  0.00  0.00    +0.000 C 
BRANCH  21  22
ATOM     22  O   UNL     1       4.367   3.317  11.668  0.00  0.00    +0.000 OA
ATOM     23  H   UNL     1       3.851   4.104  11.920  0.00  0.00    +0.000 HD
ENDBRANCH  21  22
BRANCH  21  24
ATOM     24  C   UNL     1       6.704   2.751  11.726  0.00  0.00    +0.000 C 
BRANCH  24  25
ATOM     25  O   UNL     1       6.597   1.368  11.384  0.00  0.00    +0.000 OA
ATOM     26  H   UNL     1       6.349   1.307  10.445  0.00  0.00    +0.000 HD
ENDBRANCH  24  25
ENDBRANCH  21  24
ENDBRANCH  20  21
ENDBRANCH   3  20
TORSDOF 10
ENDMDL
MODEL 6
REMARK VINA RESULT:      -7.0      3.751      7.402
REMARK  Name = 
REMARK  10 active torsions:
REMARK  status: ('A' for Active; 'I' for Inactive)
REMARK    1  A    between atoms: C_2  and  C_3
REMARK    2  A    between atoms: C_3  and  C_4
REMARK    3  A    between atoms: C_6  and  C_7
REMARK    4  A    between atoms: C_9  and  C_10
REMARK    5  A    between atoms: C_10  and  C_11
REMARK    6  A    between atoms: C_11  and  O_12
REMARK    7  A    between atoms: C_11  and  C_13
REMARK    8  A    between atoms: C_13  and  O_14
REMARK    9  A    between atoms: C_17  and  O_18
REMARK   10  A    between atoms: C_21  and  O_22
REMARK                            x       y       z     vdW  Elec       q    Type
REMARK                         _______ _______ _______ _____ _____    ______ ____
ROOT
ATOM      1  C   UNL     1       2.435   7.163  18.922  0.00  0.00    +0.000 A 
ATOM      2  C   UNL     1       1.998   8.359  18.293  0.00  0.00    +0.000 A 
ATOM      3  C   UNL     1       1.210   9.326  18.954  0.00  0.00    +0.000 A 
ATOM      4  C   UNL     1       0.807   9.066  20.265  0.00  0.00    +0.000 A 
ATOM      5  C   UNL     1       1.212   7.905  20.916  0.00  0.00    +0.000 A 
ATOM      6  C   UNL     1       2.029   6.982  20.259  0.00  0.00    +0.000 A 
ENDROOT
BRANCH   1   9
ATOM      7  C   UNL     1       5.424   5.552  17.115  0.00  0.00    +0.000 A 
ATOM      8  C   UNL     1       4.622   6.465  17.831  0.00  0.00    +0.000 A 
ATOM      9  C   UNL     1       3.284   6.182  18.183  0.00  0.00    +0.000 A 
ATOM     10  C   UNL     1       2.788   4.924  17.790  0.00  0.00    +0.000 A 
ATOM     11  C   UNL     1       3.587   3.980  17.139  0.00  0.00    +0.000 A 
ATOM     12  C   UNL     1       4.898   4.297  16.809  0.00  0.00    +0.000 A 
BRANCH  12  13
ATOM     13  O   UNL     1       5.684   3.379  16.173  0.00  0.00    +0.000 OA
ATOM     14  H   UNL     1       6.579   3.744  16.091  0.00  0.00    +0.000 HD
ENDBRANCH  12  13
BRANCH   7  15
ATOM     15  C   UNL     1       6.822   5.947  16.696  0.00  0.00    +0.000 C 
BRANCH  15  17
ATOM     16  C   UNL     1       7.888   5.956  18.973  0.00  0.00    +0.000 C 
ATOM     17  C   UNL     1       7.627   6.560  17.806  0.00  0.00    +0.000 C 
ENDBRANCH  15  17
ENDBRANCH   7  15
ENDBRANCH   1   9
BRANCH   6  18
ATOM     18  O   UNL     1       2.448   5.889  20.976  0.00  0.00    +0.000 OA
ATOM     19  H   UNL     1       1.966   5.106  20.674  0.00  0.00    +0.000 HD
ENDBRANCH   6  18
BRANCH   3  20
ATOM     20  C   UNL     1       0.869  10.616  18.228  0.00  0.00    +0.000 C 
BRANCH  20  21
ATOM     21  C   UNL     1       1.740  11.850  18.537  0.00  0.00    +0.000 C 
BRANCH  21  22
ATOM     22  O   UNL     1       2.704  12.083  17.501  0.00  0.00    +0.000 OA
ATOM     23  H   UNL     1       3.368  11.372  17.539  0.00  0.00    +0.000 HD
ENDBRANCH  21  22
BRANCH  21  24
ATOM     24  C   UNL     1       0.890  13.121  18.690  0.00  0.00    +0.000 C 
BRANCH  24  25
ATOM     25  O   UNL     1      -0.311  13.045  17.919  0.00  0.00    +0.000 OA
ATOM     26  H   UNL     1      -0.100  13.306  17.005  0.00  0.00    +0.000 HD
ENDBRANCH  24  25
ENDBRANCH  21  24
ENDBRANCH  20  21
ENDBRANCH   3  20
TORSDOF 10
ENDMDL
MODEL 7
REMARK VINA RESULT:      -7.0      2.213      7.602
REMARK  Name = 
REMARK  10 active torsions:
REMARK  status: ('A' for Active; 'I' for Inactive)
REMARK    1  A    between atoms: C_2  and  C_3
REMARK    2  A    between atoms: C_3  and  C_4
REMARK    3  A    between atoms: C_6  and  C_7
REMARK    4  A    between atoms: C_9  and  C_10
REMARK    5  A    between atoms: C_10  and  C_11
REMARK    6  A    between atoms: C_11  and  O_12
REMARK    7  A    between atoms: C_11  and  C_13
REMARK    8  A    between atoms: C_13  and  O_14
REMARK    9  A    between atoms: C_17  and  O_18
REMARK   10  A    between atoms: C_21  and  O_22
REMARK                            x       y       z     vdW  Elec       q    Type
REMARK                         _______ _______ _______ _____ _____    ______ ____
ROOT
ATOM      1  C   UNL     1       3.980   4.563  19.107  0.00  0.00    +0.000 A 
ATOM      2  C   UNL     1       3.034   5.554  19.487  0.00  0.00    +0.000 A 
ATOM      3  C   UNL     1       2.078   5.346  20.504  0.00  0.00    +0.000 A 
ATOM      4  C   UNL     1       2.033   4.096  21.125  0.00  0.00    +0.000 A 
ATOM      5  C   UNL     1       2.940   3.099  20.780  0.00  0.00    +0.000 A 
ATOM      6  C   UNL     1       3.908   3.340  19.802  0.00  0.00    +0.000 A 
ENDROOT
BRANCH   1   9
ATOM      7  C   UNL     1       5.630   4.929  15.652  0.00  0.00    +0.000 A 
ATOM      8  C   UNL     1       4.681   4.688  16.668  0.00  0.00    +0.000 A 
ATOM      9  C   UNL     1       4.984   4.842  18.038  0.00  0.00    +0.000 A 
ATOM     10  C   UNL     1       6.292   5.264  18.345  0.00  0.00    +0.000 A 
ATOM     11  C   UNL     1       7.226   5.572  17.352  0.00  0.00    +0.000 A 
ATOM     12  C   UNL     1       6.890   5.406  16.015  0.00  0.00    +0.000 A 
BRANCH  12  13
ATOM     13  O   UNL     1       7.798   5.706  15.040  0.00  0.00    +0.000 OA
ATOM     14  H   UNL     1       7.430   6.411  14.483  0.00  0.00    +0.000 HD
ENDBRANCH  12  13
BRANCH   7  15
ATOM     15  C   UNL     1       5.270   4.667  14.208  0.00  0.00    +0.000 C 
BRANCH  15  17
ATOM     16  C   UNL     1       5.979   3.190  12.302  0.00  0.00    +0.000 C 
ATOM     17  C   UNL     1       6.162   3.659  13.544  0.00  0.00    +0.000 C 
ENDBRANCH  15  17
ENDBRANCH   7  15
ENDBRANCH   1   9
BRANCH   6  18
ATOM     18  O   UNL     1       4.815   2.340  19.553  0.00  0.00    +0.000 OA
ATOM     19  H   UNL     1       5.712   2.697  19.629  0.00  0.00    +0.000 HD
ENDBRANCH   6  18
BRANCH   3  20
ATOM     20  C   UNL     1       1.169   6.496  20.903  0.00  0.00    +0.000 C 
BRANCH  20  21
ATOM     21  C   UNL     1       1.757   7.919  20.822  0.00  0.00    +0.000 C 
BRANCH  21  22
ATOM     22  O   UNL     1       1.572   8.488  19.519  0.00  0.00    +0.000 OA
ATOM     23  H   UNL     1       2.393   8.355  19.011  0.00  0.00    +0.000 HD
ENDBRANCH  21  22
BRANCH  21  24
ATOM     24  C   UNL     1       1.106   8.860  21.848  0.00  0.00    +0.000 C 
BRANCH  24  25
ATOM     25  O   UNL     1       2.056   9.322  22.811  0.00  0.00    +0.000 OA
ATOM     26  H   UNL     1       2.810   8.706  22.811  0.00  0.00    +0.000 HD
ENDBRANCH  24  25
ENDBRANCH  21  24
ENDBRANCH  20  21
ENDBRANCH   3  20
TORSDOF 10
ENDMDL
MODEL 8
REMARK VINA RESULT:      -7.0      2.476      4.545
REMARK  Name = 
REMARK  10 active torsions:
REMARK  status: ('A' for Active; 'I' for Inactive)
REMARK    1  A    between atoms: C_2  and  C_3
REMARK    2  A    between atoms: C_3  and  C_4
REMARK    3  A    between atoms: C_6  and  C_7
REMARK    4  A    between atoms: C_9  and  C_10
REMARK    5  A    between atoms: C_10  and  C_11
REMARK    6  A    between atoms: C_11  and  O_12
REMARK    7  A    between atoms: C_11  and  C_13
REMARK    8  A    between atoms: C_13  and  O_14
REMARK    9  A    between atoms: C_17  and  O_18
REMARK   10  A    between atoms: C_21  and  O_22
REMARK                            x       y       z     vdW  Elec       q    Type
REMARK                         _______ _______ _______ _____ _____    ______ ____
ROOT
ATOM      1  C   UNL     1       2.904   6.061  18.199  0.00  0.00    +0.000 A 
ATOM      2  C   UNL     1       3.891   6.086  17.177  0.00  0.00    +0.000 A 
ATOM      3  C   UNL     1       4.487   4.915  16.663  0.00  0.00    +0.000 A 
ATOM      4  C   UNL     1       4.122   3.687  17.220  0.00  0.00    +0.000 A 
ATOM      5  C   UNL     1       3.162   3.621  18.224  0.00  0.00    +0.000 A 
ATOM      6  C   UNL     1       2.551   4.788  18.688  0.00  0.00    +0.000 A 
ENDROOT
BRANCH   1   9
ATOM      7  C   UNL     1       1.473   8.755  20.542  0.00  0.00    +0.000 A 
ATOM      8  C   UNL     1       2.071   7.569  20.068  0.00  0.00    +0.000 A 
ATOM      9  C   UNL     1       2.290   7.329  18.694  0.00  0.00    +0.000 A 
ATOM     10  C   UNL     1       1.888   8.349  17.810  0.00  0.00    +0.000 A 
ATOM     11  C   UNL     1       1.355   9.559  18.264  0.00  0.00    +0.000 A 
ATOM     12  C   UNL     1       1.155   9.756  19.624  0.00  0.00    +0.000 A 
BRANCH  12  13
ATOM     13  O   UNL     1       0.635  10.936  20.073  0.00  0.00    +0.000 OA
ATOM     14  H   UNL     1       0.103  10.756  20.865  0.00  0.00    +0.000 HD
ENDBRANCH  12  13
BRANCH   7  15
ATOM     15  C   UNL     1       1.190   8.918  22.018  0.00  0.00    +0.000 C 
BRANCH  15  17
ATOM     16  C   UNL     1      -0.780  10.013  23.129  0.00  0.00    +0.000 C 
ATOM     17  C   UNL     1      -0.270   9.064  22.333  0.00  0.00    +0.000 C 
ENDBRANCH  15  17
ENDBRANCH   7  15
ENDBRANCH   1   9
BRANCH   6  18
ATOM     18  O   UNL     1       1.565   4.650  19.633  0.00  0.00    +0.000 OA
ATOM     19  H   UNL     1       1.269   3.728  19.653  0.00  0.00    +0.000 HD
ENDBRANCH   6  18
BRANCH   3  20
ATOM     20  C   UNL     1       5.466   5.035  15.507  0.00  0.00    +0.000 C 
BRANCH  20  21
ATOM     21  C   UNL     1       6.940   4.690  15.794  0.00  0.00    +0.000 C 
BRANCH  21  22
ATOM     22  O   UNL     1       7.820   5.325  14.854  0.00  0.00    +0.000 OA
ATOM     23  H   UNL     1       7.273   5.785  14.192  0.00  0.00    +0.000 HD
ENDBRANCH  21  22
BRANCH  21  24
ATOM     24  C   UNL     1       7.360   5.126  17.207  0.00  0.00    +0.000 C 
BRANCH  24  25
ATOM     25  O   UNL     1       7.988   4.058  17.919  0.00  0.00    +0.000 OA
ATOM     26  H   UNL     1       7.951   4.267  18.870  0.00  0.00    +0.000 HD
ENDBRANCH  24  25
ENDBRANCH  21  24
ENDBRANCH  20  21
ENDBRANCH   3  20
TORSDOF 10
ENDMDL
MODEL 9
REMARK VINA RESULT:      -7.0      1.877      7.485
REMARK  Name = 
REMARK  10 active torsions:
REMARK  status: ('A' for Active; 'I' for Inactive)
REMARK    1  A    between atoms: C_2  and  C_3
REMARK    2  A    between atoms: C_3  and  C_4
REMARK    3  A    between atoms: C_6  and  C_7
REMARK    4  A    between atoms: C_9  and  C_10
REMARK    5  A    between atoms: C_10  and  C_11
REMARK    6  A    between atoms: C_11  and  O_12
REMARK    7  A    between atoms: C_11  and  C_13
REMARK    8  A    between atoms: C_13  and  O_14
REMARK    9  A    between atoms: C_17  and  O_18
REMARK   10  A    between atoms: C_21  and  O_22
REMARK                            x       y       z     vdW  Elec       q    Type
REMARK                         _______ _______ _______ _____ _____    ______ ____
ROOT
ATOM      1  C   UNL     1       5.324   4.250  16.723  0.00  0.00    +0.000 A 
ATOM      2  C   UNL     1       3.915   4.194  16.894  0.00  0.00    +0.000 A 
ATOM      3  C   UNL     1       3.301   4.155  18.165  0.00  0.00    +0.000 A 
ATOM      4  C   UNL     1       4.121   4.123  19.295  0.00  0.00    +0.000 A 
ATOM      5  C   UNL     1       5.506   4.174  19.169  0.00  0.00    +0.000 A 
ATOM      6  C   UNL     1       6.092   4.256  17.904  0.00  0.00    +0.000 A 
ENDROOT
BRANCH   1   9
ATOM      7  C   UNL     1       5.911   3.674  12.965  0.00  0.00    +0.000 A 
ATOM      8  C   UNL     1       5.342   3.641  14.256  0.00  0.00    +0.000 A 
ATOM      9  C   UNL     1       5.921   4.310  15.356  0.00  0.00    +0.000 A 
ATOM     10  C   UNL     1       7.103   5.030  15.096  0.00  0.00    +0.000 A 
ATOM     11  C   UNL     1       7.646   5.131  13.812  0.00  0.00    +0.000 A 
ATOM     12  C   UNL     1       7.046   4.457  12.757  0.00  0.00    +0.000 A 
BRANCH  12  13
ATOM     13  O   UNL     1       7.572   4.553  11.499  0.00  0.00    +0.000 OA
ATOM     14  H   UNL     1       8.079   3.745  11.316  0.00  0.00    +0.000 HD
ENDBRANCH  12  13
BRANCH   7  15
ATOM     15  C   UNL     1       5.288   2.871  11.847  0.00  0.00    +0.000 C 
BRANCH  15  17
ATOM     16  C   UNL     1       3.200   2.996  10.454  0.00  0.00    +0.000 C 
ATOM     17  C   UNL     1       4.187   3.598  11.131  0.00  0.00    +0.000 C 
ENDBRANCH  15  17
ENDBRANCH   7  15
ENDBRANCH   1   9
BRANCH   6  18
ATOM     18  O   UNL     1       7.459   4.370  17.849  0.00  0.00    +0.000 OA
ATOM     19  H   UNL     1       7.741   4.379  16.923  0.00  0.00    +0.000 HD
ENDBRANCH   6  18
BRANCH   3  20
ATOM     20  C   UNL     1       1.784   4.190  18.250  0.00  0.00    +0.000 C 
BRANCH  20  21
ATOM     21  C   UNL     1       1.068   2.867  18.585  0.00  0.00    +0.000 C 
BRANCH  21  22
ATOM     22  O   UNL     1       1.829   1.733  18.145  0.00  0.00    +0.000 OA
ATOM     23  H   UNL     1       2.489   2.044  17.500  0.00  0.00    +0.000 HD
ENDBRANCH  21  22
BRANCH  21  24
ATOM     24  C   UNL     1       0.828   2.719  20.096  0.00  0.00    +0.000 C 
BRANCH  24  25
ATOM     25  O   UNL     1       0.709   3.992  20.735  0.00  0.00    +0.000 OA
ATOM     26  H   UNL     1       1.603   4.292  20.979  0.00  0.00    +0.000 HD
ENDBRANCH  24  25
ENDBRANCH  21  24
ENDBRANCH  20  21
ENDBRANCH   3  20
TORSDOF 10
ENDMDL
