MODEL 1
REMARK VINA RESULT:      -7.3      0.000      0.000
REMARK  Name = 
REMARK  14 active torsions:
REMARK  status: ('A' for Active; 'I' for Inactive)
REMARK    1  A    between atoms: C_1  and  C_2
REMARK    2  A    between atoms: C_2  and  C_3
REMARK    3  A    between atoms: C_3  and  N_4
REMARK    4  A    between atoms: N_4  and  C_5
REMARK    5  A    between atoms: N_4  and  C_7
REMARK    6  A    between atoms: C_5  and  C_6
REMARK    7  A    between atoms: C_10  and  C_11
REMARK    8  A    between atoms: C_12  and  C_13
REMARK    9  A    between atoms: C_12  and  C_14
REMARK   10  A    between atoms: N_16  and  C_17
REMARK   11  A    between atoms: C_18  and  O_19
REMARK   12  A    between atoms: C_20  and  O_21
REMARK   13  A    between atoms: C_27  and  O_28
REMARK   14  A    between atoms: C_30  and  O_31
REMARK                            x       y       z     vdW  Elec       q    Type
REMARK                         _______ _______ _______ _____ _____    ______ ____
ROOT
ATOM      1  C   UNL     1       2.466   7.618  18.572  0.00  0.00    +0.000 C 
ATOM      2  O   UNL     1       3.462   7.591  17.854  0.00  0.00    +0.000 OA
ATOM      3  N   UNL     1       1.989   6.487  19.177  0.00  0.00    +0.000 N 
ATOM      4  H   UNL     1       1.193   6.567  19.795  0.00  0.00    +0.000 HD
ENDROOT
BRANCH   3   5
ATOM      5  C   UNL     1       2.577   5.135  19.059  0.00  0.00    +0.000 C 
ATOM      6  C   UNL     1       2.422   4.500  17.647  0.00  0.00    +0.000 C 
ATOM      7  C   UNL     1       3.227   3.195  17.573  0.00  0.00    +0.000 C 
ATOM      8  C   UNL     1       2.754   2.205  18.672  0.00  0.00    +0.000 C 
ATOM      9  O   UNL     1       3.667   1.097  18.763  0.00  0.00    +0.000 OA
ATOM     10  C   UNL     1       4.574   1.445  19.816  0.00  0.00    +0.000 C 
ATOM     11  O   UNL     1       4.217   2.748  20.326  0.00  0.00    +0.000 OA
ATOM     12  C   UNL     1       2.807   2.791  20.069  0.00  0.00    +0.000 C 
ATOM     13  C   UNL     1       2.166   4.176  20.205  0.00  0.00    +0.000 C 
BRANCH   6  14
ATOM     14  O   UNL     1       1.078   4.184  17.298  0.00  0.00    +0.000 OA
ATOM     15  H   UNL     1       0.988   4.231  16.324  0.00  0.00    +0.000 HD
ENDBRANCH   6  14
BRANCH   7  16
ATOM     16  O   UNL     1       4.626   3.516  17.640  0.00  0.00    +0.000 OA
ATOM     17  H   UNL     1       4.780   4.328  17.122  0.00  0.00    +0.000 HD
ENDBRANCH   7  16
BRANCH  13  18
ATOM     18  O   UNL     1       0.755   3.967  20.313  0.00  0.00    +0.000 OA
ATOM     19  H   UNL     1       0.558   3.470  21.132  0.00  0.00    +0.000 HD
ENDBRANCH  13  18
ENDBRANCH   3   5
BRANCH   1  21
ATOM     20  C   UNL     1       0.956   8.865  19.963  0.00  0.00    +0.000 C 
ATOM     21  C   UNL     1       1.720   8.885  18.850  0.00  0.00    +0.000 C 
ATOM     22  C   UNL     1       1.951  10.038  17.921  0.00  0.00    +0.000 C 
BRANCH  20  26
ATOM     23  C   UNL     1      -1.602  11.952  21.636  0.00  0.00    +0.000 A 
ATOM     24  C   UNL     1      -0.839  11.086  22.438  0.00  0.00    +0.000 A 
ATOM     25  C   UNL     1       0.002  10.103  21.890  0.00  0.00    +0.000 A 
ATOM     26  C   UNL     1       0.094   9.932  20.505  0.00  0.00    +0.000 A 
ATOM     27  C   UNL     1      -0.704  10.735  19.696  0.00  0.00    +0.000 A 
ATOM     28  C   UNL     1      -1.493  11.751  20.246  0.00  0.00    +0.000 A 
BRANCH  28  29
ATOM     29  O   UNL     1      -2.135  12.589  19.367  0.00  0.00    +0.000 OA
ATOM     30  H   UNL     1      -1.700  13.455  19.404  0.00  0.00    +0.000 HD
ENDBRANCH  28  29
BRANCH  23  31
ATOM     31  N   UNL     1      -2.409  12.957  22.187  0.00  0.00    +0.000 N 
BRANCH  31  32
ATOM     32  C   UNL     1      -1.867  14.331  22.178  0.00  0.00    +0.000 C 
ATOM     33  C   UNL     1      -0.972  14.625  23.377  0.00  0.00    +0.000 C 
ENDBRANCH  31  32
BRANCH  31  34
ATOM     34  C   UNL     1      -3.874  12.834  22.205  0.00  0.00    +0.000 C 
BRANCH  34  36
ATOM     35  C   UNL     1      -4.344  12.423  24.686  0.00  0.00    +0.000 C 
ATOM     36  C   UNL     1      -4.505  13.366  23.501  0.00  0.00    +0.000 C 
ENDBRANCH  34  36
ENDBRANCH  31  34
ENDBRANCH  23  31
ENDBRANCH  20  26
ENDBRANCH   1  21
TORSDOF 11
ENDMDL
MODEL 2
REMARK VINA RESULT:      -7.3      0.885      1.230
REMARK  Name = 
REMARK  14 active torsions:
REMARK  status: ('A' for Active; 'I' for Inactive)
REMARK    1  A    between atoms: C_1  and  C_2
REMARK    2  A    between atoms: C_2  and  C_3
REMARK    3  A    between atoms: C_3  and  N_4
REMARK    4  A    between atoms: N_4  and  C_5
REMARK    5  A    between atoms: N_4  and  C_7
REMARK    6  A    between atoms: C_5  and  C_6
REMARK    7  A    between atoms: C_10  and  C_11
REMARK    8  A    between atoms: C_12  and  C_13
REMARK    9  A    between atoms: C_12  and  C_14
REMARK   10  A    between atoms: N_16  and  C_17
REMARK   11  A    between atoms: C_18  and  O_19
REMARK   12  A    between atoms: C_20  and  O_21
REMARK   13  A    between atoms: C_27  and  O_28
REMARK   14  A    between atoms: C_30  and  O_31
REMARK                            x       y       z     vdW  Elec       q    Type
REMARK                         _______ _______ _______ _____ _____    ______ ____
ROOT
ATOM      1  C   UNL     1       2.609   7.484  18.377  0.00  0.00    +0.000 C 
ATOM      2  O   UNL     1       3.527   7.420  17.563  0.00  0.00    +0.000 OA
ATOM      3  N   UNL     1       2.200   6.386  19.083  0.00  0.00    +0.000 N 
ATOM      4  H   UNL     1       1.471   6.498  19.774  0.00  0.00    +0.000 HD
ENDROOT
BRANCH   3   5
ATOM      5  C   UNL     1       2.778   5.029  18.973  0.00  0.00    +0.000 C 
ATOM      6  C   UNL     1       2.521   4.342  17.601  0.00  0.00    +0.000 C 
ATOM      7  C   UNL     1       3.319   3.033  17.518  0.00  0.00    +0.000 C 
ATOM      8  C   UNL     1       2.925   2.086  18.684  0.00  0.00    +0.000 C 
ATOM      9  O   UNL     1       3.842   0.979  18.750  0.00  0.00    +0.000 OA
ATOM     10  C   UNL     1       4.823   1.363  19.722  0.00  0.00    +0.000 C 
ATOM     11  O   UNL     1       4.504   2.685  20.207  0.00  0.00    +0.000 OA
ATOM     12  C   UNL     1       3.080   2.723  20.051  0.00  0.00    +0.000 C 
ATOM     13  C   UNL     1       2.451   4.114  20.181  0.00  0.00    +0.000 C 
BRANCH   6  14
ATOM     14  O   UNL     1       1.156   4.017  17.361  0.00  0.00    +0.000 OA
ATOM     15  H   UNL     1       0.800   4.635  16.690  0.00  0.00    +0.000 HD
ENDBRANCH   6  14
BRANCH   7  16
ATOM     16  O   UNL     1       4.719   3.352  17.471  0.00  0.00    +0.000 OA
ATOM     17  H   UNL     1       4.853   4.050  16.804  0.00  0.00    +0.000 HD
ENDBRANCH   7  16
BRANCH  13  18
ATOM     18  O   UNL     1       1.050   3.913  20.398  0.00  0.00    +0.000 OA
ATOM     19  H   UNL     1       0.821   2.979  20.218  0.00  0.00    +0.000 HD
ENDBRANCH  13  18
ENDBRANCH   3   5
BRANCH   1  21
ATOM     20  C   UNL     1       1.043   8.719  19.716  0.00  0.00    +0.000 C 
ATOM     21  C   UNL     1       1.890   8.765  18.665  0.00  0.00    +0.000 C 
ATOM     22  C   UNL     1       2.235   9.953  17.820  0.00  0.00    +0.000 C 
BRANCH  20  26
ATOM     23  C   UNL     1      -1.485  11.926  21.198  0.00  0.00    +0.000 A 
ATOM     24  C   UNL     1      -1.438  11.567  19.840  0.00  0.00    +0.000 A 
ATOM     25  C   UNL     1      -0.633  10.515  19.371  0.00  0.00    +0.000 A 
ATOM     26  C   UNL     1       0.181   9.792  20.248  0.00  0.00    +0.000 A 
ATOM     27  C   UNL     1       0.199  10.175  21.585  0.00  0.00    +0.000 A 
ATOM     28  C   UNL     1      -0.649  11.182  22.055  0.00  0.00    +0.000 A 
BRANCH  28  29
ATOM     29  O   UNL     1      -0.673  11.398  23.412  0.00  0.00    +0.000 OA
ATOM     30  H   UNL     1      -0.880  10.556  23.847  0.00  0.00    +0.000 HD
ENDBRANCH  28  29
BRANCH  23  31
ATOM     31  N   UNL     1      -2.319  12.950  21.668  0.00  0.00    +0.000 N 
BRANCH  31  32
ATOM     32  C   UNL     1      -1.853  14.337  21.469  0.00  0.00    +0.000 C 
ATOM     33  C   UNL     1      -0.958  14.832  22.601  0.00  0.00    +0.000 C 
ENDBRANCH  31  32
BRANCH  31  34
ATOM     34  C   UNL     1      -3.773  12.760  21.776  0.00  0.00    +0.000 C 
BRANCH  34  36
ATOM     35  C   UNL     1      -3.979  12.469  24.309  0.00  0.00    +0.000 C 
ATOM     36  C   UNL     1      -4.353  13.302  23.091  0.00  0.00    +0.000 C 
ENDBRANCH  34  36
ENDBRANCH  31  34
ENDBRANCH  23  31
ENDBRANCH  20  26
ENDBRANCH   1  21
TORSDOF 11
ENDMDL
MODEL 3
REMARK VINA RESULT:      -7.2      0.619      1.691
REMARK  Name = 
REMARK  14 active torsions:
REMARK  status: ('A' for Active; 'I' for Inactive)
REMARK    1  A    between atoms: C_1  and  C_2
REMARK    2  A    between atoms: C_2  and  C_3
REMARK    3  A    between atoms: C_3  and  N_4
REMARK    4  A    between atoms: N_4  and  C_5
REMARK    5  A    between atoms: N_4  and  C_7
REMARK    6  A    between atoms: C_5  and  C_6
REMARK    7  A    between atoms: C_10  and  C_11
REMARK    8  A    between atoms: C_12  and  C_13
REMARK    9  A    between atoms: C_12  and  C_14
REMARK   10  A    between atoms: N_16  and  C_17
REMARK   11  A    between atoms: C_18  and  O_19
REMARK   12  A    between atoms: C_20  and  O_21
REMARK   13  A    between atoms: C_27  and  O_28
REMARK   14  A    between atoms: C_30  and  O_31
REMARK                            x       y       z     vdW  Elec       q    Type
REMARK                         _______ _______ _______ _____ _____    ______ ____
ROOT
ATOM      1  C   UNL     1       2.378   7.519  18.692  0.00  0.00    +0.000 C 
ATOM      2  O   UNL     1       3.218   7.489  17.796  0.00  0.00    +0.000 OA
ATOM      3  N   UNL     1       2.052   6.398  19.404  0.00  0.00    +0.000 N 
ATOM      4  H   UNL     1       1.388   6.482  20.163  0.00  0.00    +0.000 HD
ENDROOT
BRANCH   3   5
ATOM      5  C   UNL     1       2.635   5.053  19.207  0.00  0.00    +0.000 C 
ATOM      6  C   UNL     1       2.528   4.526  17.747  0.00  0.00    +0.000 C 
ATOM      7  C   UNL     1       3.327   3.223  17.605  0.00  0.00    +0.000 C 
ATOM      8  C   UNL     1       2.806   2.158  18.608  0.00  0.00    +0.000 C 
ATOM      9  O   UNL     1       3.707   1.038  18.649  0.00  0.00    +0.000 OA
ATOM     10  C   UNL     1       4.577   1.297  19.758  0.00  0.00    +0.000 C 
ATOM     11  O   UNL     1       4.210   2.562  20.351  0.00  0.00    +0.000 OA
ATOM     12  C   UNL     1       2.811   2.637  20.047  0.00  0.00    +0.000 C 
ATOM     13  C   UNL     1       2.175   4.014  20.262  0.00  0.00    +0.000 C 
BRANCH   6  14
ATOM     14  O   UNL     1       1.196   4.250  17.326  0.00  0.00    +0.000 OA
ATOM     15  H   UNL     1       0.709   3.845  18.073  0.00  0.00    +0.000 HD
ENDBRANCH   6  14
BRANCH   7  16
ATOM     16  O   UNL     1       4.725   3.525  17.747  0.00  0.00    +0.000 OA
ATOM     17  H   UNL     1       4.966   3.427  18.687  0.00  0.00    +0.000 HD
ENDBRANCH   7  16
BRANCH  13  18
ATOM     18  O   UNL     1       0.759   3.811  20.302  0.00  0.00    +0.000 OA
ATOM     19  H   UNL     1       0.557   2.870  20.126  0.00  0.00    +0.000 HD
ENDBRANCH  13  18
ENDBRANCH   3   5
BRANCH   1  21
ATOM     20  C   UNL     1       1.043   8.739  20.272  0.00  0.00    +0.000 C 
ATOM     21  C   UNL     1       1.673   8.781  19.079  0.00  0.00    +0.000 C 
ATOM     22  C   UNL     1       1.800   9.952  18.153  0.00  0.00    +0.000 C 
BRANCH  20  26
ATOM     23  C   UNL     1      -1.314  11.787  22.280  0.00  0.00    +0.000 A 
ATOM     24  C   UNL     1      -0.669  10.751  22.975  0.00  0.00    +0.000 A 
ATOM     25  C   UNL     1       0.109   9.780  22.322  0.00  0.00    +0.000 A 
ATOM     26  C   UNL     1       0.251   9.796  20.931  0.00  0.00    +0.000 A 
ATOM     27  C   UNL     1      -0.434  10.774  20.217  0.00  0.00    +0.000 A 
ATOM     28  C   UNL     1      -1.157  11.772  20.879  0.00  0.00    +0.000 A 
BRANCH  28  29
ATOM     29  O   UNL     1      -1.681  12.781  20.108  0.00  0.00    +0.000 OA
ATOM     30  H   UNL     1      -2.616  12.581  19.946  0.00  0.00    +0.000 HD
ENDBRANCH  28  29
BRANCH  23  31
ATOM     31  N   UNL     1      -2.056  12.776  22.940  0.00  0.00    +0.000 N 
BRANCH  31  32
ATOM     32  C   UNL     1      -3.393  12.392  23.434  0.00  0.00    +0.000 C 
ATOM     33  C   UNL     1      -4.523  12.879  22.534  0.00  0.00    +0.000 C 
ENDBRANCH  31  32
BRANCH  31  34
ATOM     34  C   UNL     1      -1.394  13.883  23.645  0.00  0.00    +0.000 C 
BRANCH  34  36
ATOM     35  C   UNL     1       0.387  15.002  22.189  0.00  0.00    +0.000 C 
ATOM     36  C   UNL     1      -1.038  15.057  22.721  0.00  0.00    +0.000 C 
ENDBRANCH  34  36
ENDBRANCH  31  34
ENDBRANCH  23  31
ENDBRANCH  20  26
ENDBRANCH   1  21
TORSDOF 11
ENDMDL
MODEL 4
REMARK VINA RESULT:      -7.1      2.892     10.580
REMARK  Name = 
REMARK  14 active torsions:
REMARK  status: ('A' for Active; 'I' for Inactive)
REMARK    1  A    between atoms: C_1  and  C_2
REMARK    2  A    between atoms: C_2  and  C_3
REMARK    3  A    between atoms: C_3  and  N_4
REMARK    4  A    between atoms: N_4  and  C_5
REMARK    5  A    between atoms: N_4  and  C_7
REMARK    6  A    between atoms: C_5  and  C_6
REMARK    7  A    between atoms: C_10  and  C_11
REMARK    8  A    between atoms: C_12  and  C_13
REMARK    9  A    between atoms: C_12  and  C_14
REMARK   10  A    between atoms: N_16  and  C_17
REMARK   11  A    between atoms: C_18  and  O_19
REMARK   12  A    between atoms: C_20  and  O_21
REMARK   13  A    between atoms: C_27  and  O_28
REMARK   14  A    between atoms: C_30  and  O_31
REMARK                            x       y       z     vdW  Elec       q    Type
REMARK                         _______ _______ _______ _____ _____    ______ ____
ROOT
ATOM      1  C   UNL     1       0.458   9.789  19.431  0.00  0.00    +0.000 C 
ATOM      2  O   UNL     1      -0.150  10.130  18.419  0.00  0.00    +0.000 OA
ATOM      3  N   UNL     1       0.268  10.424  20.627  0.00  0.00    +0.000 N 
ATOM      4  H   UNL     1       0.757  10.078  21.442  0.00  0.00    +0.000 HD
ENDROOT
BRANCH   3   5
ATOM      5  C   UNL     1      -0.653  11.557  20.864  0.00  0.00    +0.000 C 
ATOM      6  C   UNL     1      -0.003  12.954  20.649  0.00  0.00    +0.000 C 
ATOM      7  C   UNL     1      -1.081  14.045  20.726  0.00  0.00    +0.000 C 
ATOM      8  C   UNL     1      -1.809  13.988  22.096  0.00  0.00    +0.000 C 
ATOM      9  O   UNL     1      -2.972  14.835  22.071  0.00  0.00    +0.000 OA
ATOM     10  C   UNL     1      -4.061  13.967  21.735  0.00  0.00    +0.000 C 
ATOM     11  O   UNL     1      -3.548  12.631  21.543  0.00  0.00    +0.000 OA
ATOM     12  C   UNL     1      -2.402  12.627  22.403  0.00  0.00    +0.000 C 
ATOM     13  C   UNL     1      -1.440  11.451  22.195  0.00  0.00    +0.000 C 
BRANCH   6  14
ATOM     14  O   UNL     1       0.997  13.282  21.608  0.00  0.00    +0.000 OA
ATOM     15  H   UNL     1       0.670  14.022  22.161  0.00  0.00    +0.000 HD
ENDBRANCH   6  14
BRANCH   7  16
ATOM     16  O   UNL     1      -1.954  13.908  19.593  0.00  0.00    +0.000 OA
ATOM     17  H   UNL     1      -1.406  13.849  18.789  0.00  0.00    +0.000 HD
ENDBRANCH   7  16
BRANCH  13  18
ATOM     18  O   UNL     1      -0.611  11.388  23.360  0.00  0.00    +0.000 OA
ATOM     19  H   UNL     1       0.286  11.089  23.107  0.00  0.00    +0.000 HD
ENDBRANCH  13  18
ENDBRANCH   3   5
BRANCH   1  21
ATOM     20  C   UNL     1       2.053   8.435  18.252  0.00  0.00    +0.000 C 
ATOM     21  C   UNL     1       1.428   8.650  19.429  0.00  0.00    +0.000 C 
ATOM     22  C   UNL     1       1.648   7.931  20.726  0.00  0.00    +0.000 C 
BRANCH  20  26
ATOM     23  C   UNL     1       4.982   5.413  17.170  0.00  0.00    +0.000 A 
ATOM     24  C   UNL     1       5.044   6.733  16.690  0.00  0.00    +0.000 A 
ATOM     25  C   UNL     1       4.105   7.710  17.060  0.00  0.00    +0.000 A 
ATOM     26  C   UNL     1       3.044   7.395  17.914  0.00  0.00    +0.000 A 
ATOM     27  C   UNL     1       2.926   6.078  18.347  0.00  0.00    +0.000 A 
ATOM     28  C   UNL     1       3.898   5.126  18.024  0.00  0.00    +0.000 A 
BRANCH  28  29
ATOM     29  O   UNL     1       3.782   3.889  18.611  0.00  0.00    +0.000 OA
ATOM     30  H   UNL     1       3.861   4.003  19.571  0.00  0.00    +0.000 HD
ENDBRANCH  28  29
BRANCH  23  31
ATOM     31  N   UNL     1       5.943   4.452  16.830  0.00  0.00    +0.000 N 
BRANCH  31  32
ATOM     32  C   UNL     1       5.713   3.686  15.588  0.00  0.00    +0.000 C 
ATOM     33  C   UNL     1       6.524   4.209  14.407  0.00  0.00    +0.000 C 
ENDBRANCH  31  32
BRANCH  31  34
ATOM     34  C   UNL     1       7.341   4.584  17.265  0.00  0.00    +0.000 C 
BRANCH  34  36
ATOM     35  C   UNL     1       7.677   5.567  19.603  0.00  0.00    +0.000 C 
ATOM     36  C   UNL     1       7.592   5.843  18.108  0.00  0.00    +0.000 C 
ENDBRANCH  34  36
ENDBRANCH  31  34
ENDBRANCH  23  31
ENDBRANCH  20  26
ENDBRANCH   1  21
TORSDOF 11
ENDMDL
MODEL 5
REMARK VINA RESULT:      -7.0      2.878     10.602
REMARK  Name = 
REMARK  14 active torsions:
REMARK  status: ('A' for Active; 'I' for Inactive)
REMARK    1  A    between atoms: C_1  and  C_2
REMARK    2  A    between atoms: C_2  and  C_3
REMARK    3  A    between atoms: C_3  and  N_4
REMARK    4  A    between atoms: N_4  and  C_5
REMARK    5  A    between atoms: N_4  and  C_7
REMARK    6  A    between atoms: C_5  and  C_6
REMARK    7  A    between atoms: C_10  and  C_11
REMARK    8  A    between atoms: C_12  and  C_13
REMARK    9  A    between atoms: C_12  and  C_14
REMARK   10  A    between atoms: N_16  and  C_17
REMARK   11  A    between atoms: C_18  and  O_19
REMARK   12  A    between atoms: C_20  and  O_21
REMARK   13  A    between atoms: C_27  and  O_28
REMARK   14  A    between atoms: C_30  and  O_31
REMARK                            x       y       z     vdW  Elec       q    Type
REMARK                         _______ _______ _______ _____ _____    ______ ____
ROOT
ATOM      1  C   UNL     1       0.440   9.794  20.151  0.00  0.00    +0.000 C 
ATOM      2  O   UNL     1      -0.319   9.155  20.874  0.00  0.00    +0.000 OA
ATOM      3  N   UNL     1       0.470  11.161  20.177  0.00  0.00    +0.000 N 
ATOM      4  H   UNL     1       1.144  11.642  19.597  0.00  0.00    +0.000 HD
ENDROOT
BRANCH   3   5
ATOM      5  C   UNL     1      -0.368  12.025  21.038  0.00  0.00    +0.000 C 
ATOM      6  C   UNL     1      -1.816  12.229  20.509  0.00  0.00    +0.000 C 
ATOM      7  C   UNL     1      -2.654  12.970  21.561  0.00  0.00    +0.000 C 
ATOM      8  C   UNL     1      -2.002  14.336  21.906  0.00  0.00    +0.000 C 
ATOM      9  O   UNL     1      -2.642  14.909  23.060  0.00  0.00    +0.000 OA
ATOM     10  C   UNL     1      -1.827  14.519  24.172  0.00  0.00    +0.000 C 
ATOM     11  O   UNL     1      -0.734  13.710  23.688  0.00  0.00    +0.000 OA
ATOM     12  C   UNL     1      -0.559  14.214  22.357  0.00  0.00    +0.000 C 
ATOM     13  C   UNL     1       0.322  13.351  21.448  0.00  0.00    +0.000 C 
BRANCH   6  14
ATOM     14  O   UNL     1      -1.892  12.984  19.304  0.00  0.00    +0.000 OA
ATOM     15  H   UNL     1      -2.693  13.547  19.336  0.00  0.00    +0.000 HD
ENDBRANCH   6  14
BRANCH   7  16
ATOM     16  O   UNL     1      -2.835  12.105  22.694  0.00  0.00    +0.000 OA
ATOM     17  H   UNL     1      -3.357  12.583  23.365  0.00  0.00    +0.000 HD
ENDBRANCH   7  16
BRANCH  13  18
ATOM     18  O   UNL     1       0.705  14.175  20.343  0.00  0.00    +0.000 OA
ATOM     19  H   UNL     1       0.770  15.107  20.635  0.00  0.00    +0.000 HD
ENDBRANCH  13  18
ENDBRANCH   3   5
BRANCH   1  21
ATOM     20  C   UNL     1       1.917   7.964  19.661  0.00  0.00    +0.000 C 
ATOM     21  C   UNL     1       1.395   9.126  19.212  0.00  0.00    +0.000 C 
ATOM     22  C   UNL     1       1.607   9.767  17.875  0.00  0.00    +0.000 C 
BRANCH  20  26
ATOM     23  C   UNL     1       4.745   5.380  17.612  0.00  0.00    +0.000 A 
ATOM     24  C   UNL     1       4.334   6.617  17.087  0.00  0.00    +0.000 A 
ATOM     25  C   UNL     1       3.434   7.457  17.765  0.00  0.00    +0.000 A 
ATOM     26  C   UNL     1       2.889   7.076  18.995  0.00  0.00    +0.000 A 
ATOM     27  C   UNL     1       3.231   5.826  19.499  0.00  0.00    +0.000 A 
ATOM     28  C   UNL     1       4.173   5.022  18.849  0.00  0.00    +0.000 A 
BRANCH  28  29
ATOM     29  O   UNL     1       4.561   3.870  19.490  0.00  0.00    +0.000 OA
ATOM     30  H   UNL     1       3.771   3.453  19.866  0.00  0.00    +0.000 HD
ENDBRANCH  28  29
BRANCH  23  31
ATOM     31  N   UNL     1       5.673   4.564  16.951  0.00  0.00    +0.000 N 
BRANCH  31  32
ATOM     32  C   UNL     1       5.289   4.057  15.618  0.00  0.00    +0.000 C 
ATOM     33  C   UNL     1       6.192   4.574  14.503  0.00  0.00    +0.000 C 
ENDBRANCH  31  32
BRANCH  31  34
ATOM     34  C   UNL     1       7.114   4.680  17.214  0.00  0.00    +0.000 C 
BRANCH  34  36
ATOM     35  C   UNL     1       7.877   5.750  19.409  0.00  0.00    +0.000 C 
ATOM     36  C   UNL     1       7.488   5.973  17.954  0.00  0.00    +0.000 C 
ENDBRANCH  34  36
ENDBRANCH  31  34
ENDBRANCH  23  31
ENDBRANCH  20  26
ENDBRANCH   1  21
TORSDOF 11
ENDMDL
MODEL 6
REMARK VINA RESULT:      -6.9      2.660     11.016
REMARK  Name = 
REMARK  14 active torsions:
REMARK  status: ('A' for Active; 'I' for Inactive)
REMARK    1  A    between atoms: C_1  and  C_2
REMARK    2  A    between atoms: C_2  and  C_3
REMARK    3  A    between atoms: C_3  and  N_4
REMARK    4  A    between atoms: N_4  and  C_5
REMARK    5  A    between atoms: N_4  and  C_7
REMARK    6  A    between atoms: C_5  and  C_6
REMARK    7  A    between atoms: C_10  and  C_11
REMARK    8  A    between atoms: C_12  and  C_13
REMARK    9  A    between atoms: C_12  and  C_14
REMARK   10  A    between atoms: N_16  and  C_17
REMARK   11  A    between atoms: C_18  and  O_19
REMARK   12  A    between atoms: C_20  and  O_21
REMARK   13  A    between atoms: C_27  and  O_28
REMARK   14  A    between atoms: C_30  and  O_31
REMARK                            x       y       z     vdW  Elec       q    Type
REMARK                         _______ _______ _______ _____ _____    ______ ____
ROOT
ATOM      1  C   UNL     1      -0.980  11.583  21.681  0.00  0.00    +0.000 C 
ATOM      2  O   UNL     1      -0.373  11.774  22.732  0.00  0.00    +0.000 OA
ATOM      3  N   UNL     1      -2.154  12.230  21.406  0.00  0.00    +0.000 N 
ATOM      4  H   UNL     1      -2.594  12.075  20.509  0.00  0.00    +0.000 HD
ENDROOT
BRANCH   3   5
ATOM      5  C   UNL     1      -2.827  13.205  22.292  0.00  0.00    +0.000 C 
ATOM      6  C   UNL     1      -4.121  12.661  22.962  0.00  0.00    +0.000 C 
ATOM      7  C   UNL     1      -4.631  13.669  24.002  0.00  0.00    +0.000 C 
ATOM      8  C   UNL     1      -4.900  15.044  23.333  0.00  0.00    +0.000 C 
ATOM      9  O   UNL     1      -5.134  16.044  24.341  0.00  0.00    +0.000 OA
ATOM     10  C   UNL     1      -3.863  16.672  24.548  0.00  0.00    +0.000 C 
ATOM     11  O   UNL     1      -2.887  16.039  23.692  0.00  0.00    +0.000 OA
ATOM     12  C   UNL     1      -3.697  15.597  22.595  0.00  0.00    +0.000 C 
ATOM     13  C   UNL     1      -3.018  14.602  21.648  0.00  0.00    +0.000 C 
BRANCH   6  14
ATOM     14  O   UNL     1      -5.189  12.420  22.051  0.00  0.00    +0.000 OA
ATOM     15  H   UNL     1      -5.814  13.173  22.095  0.00  0.00    +0.000 HD
ENDBRANCH   6  14
BRANCH   7  16
ATOM     16  O   UNL     1      -3.693  13.721  25.088  0.00  0.00    +0.000 OA
ATOM     17  H   UNL     1      -3.617  12.827  25.472  0.00  0.00    +0.000 HD
ENDBRANCH   7  16
BRANCH  13  18
ATOM     18  O   UNL     1      -3.790  14.588  20.443  0.00  0.00    +0.000 OA
ATOM     19  H   UNL     1      -4.487  13.904  20.508  0.00  0.00    +0.000 HD
ENDBRANCH  13  18
ENDBRANCH   3   5
BRANCH   1  21
ATOM     20  C   UNL     1       0.517   9.823  21.026  0.00  0.00    +0.000 C 
ATOM     21  C   UNL     1      -0.472  10.651  20.627  0.00  0.00    +0.000 C 
ATOM     22  C   UNL     1      -1.150  10.688  19.291  0.00  0.00    +0.000 C 
BRANCH  20  26
ATOM     23  C   UNL     1       2.594   6.860  18.622  0.00  0.00    +0.000 A 
ATOM     24  C   UNL     1       2.175   8.096  18.102  0.00  0.00    +0.000 A 
ATOM     25  C   UNL     1       1.522   9.059  18.891  0.00  0.00    +0.000 A 
ATOM     26  C   UNL     1       1.239   8.807  20.237  0.00  0.00    +0.000 A 
ATOM     27  C   UNL     1       1.585   7.563  20.753  0.00  0.00    +0.000 A 
ATOM     28  C   UNL     1       2.289   6.634  19.979  0.00  0.00    +0.000 A 
BRANCH  28  29
ATOM     29  O   UNL     1       2.719   5.492  20.610  0.00  0.00    +0.000 OA
ATOM     30  H   UNL     1       3.622   5.644  20.926  0.00  0.00    +0.000 HD
ENDBRANCH  28  29
BRANCH  23  31
ATOM     31  N   UNL     1       3.280   5.920  17.842  0.00  0.00    +0.000 N 
BRANCH  31  32
ATOM     32  C   UNL     1       4.749   6.055  17.768  0.00  0.00    +0.000 C 
ATOM     33  C   UNL     1       5.230   6.596  16.426  0.00  0.00    +0.000 C 
ENDBRANCH  31  32
BRANCH  31  34
ATOM     34  C   UNL     1       2.738   4.571  17.620  0.00  0.00    +0.000 C 
BRANCH  34  36
ATOM     35  C   UNL     1       3.455   2.409  18.784  0.00  0.00    +0.000 C 
ATOM     36  C   UNL     1       3.800   3.468  17.746  0.00  0.00    +0.000 C 
ENDBRANCH  34  36
ENDBRANCH  31  34
ENDBRANCH  23  31
ENDBRANCH  20  26
ENDBRANCH   1  21
TORSDOF 11
ENDMDL
MODEL 7
REMARK VINA RESULT:      -6.9      2.163      3.182
REMARK  Name = 
REMARK  14 active torsions:
REMARK  status: ('A' for Active; 'I' for Inactive)
REMARK    1  A    between atoms: C_1  and  C_2
REMARK    2  A    between atoms: C_2  and  C_3
REMARK    3  A    between atoms: C_3  and  N_4
REMARK    4  A    between atoms: N_4  and  C_5
REMARK    5  A    between atoms: N_4  and  C_7
REMARK    6  A    between atoms: C_5  and  C_6
REMARK    7  A    between atoms: C_10  and  C_11
REMARK    8  A    between atoms: C_12  and  C_13
REMARK    9  A    between atoms: C_12  and  C_14
REMARK   10  A    between atoms: N_16  and  C_17
REMARK   11  A    between atoms: C_18  and  O_19
REMARK   12  A    between atoms: C_20  and  O_21
REMARK   13  A    between atoms: C_27  and  O_28
REMARK   14  A    between atoms: C_30  and  O_31
REMARK                            x       y       z     vdW  Elec       q    Type
REMARK                         _______ _______ _______ _____ _____    ______ ____
ROOT
ATOM      1  C   UNL     1       2.332   7.480  18.905  0.00  0.00    +0.000 C 
ATOM      2  O   UNL     1       3.075   7.491  17.927  0.00  0.00    +0.000 OA
ATOM      3  N   UNL     1       2.090   6.331  19.607  0.00  0.00    +0.000 N 
ATOM      4  H   UNL     1       1.508   6.380  20.432  0.00  0.00    +0.000 HD
ENDROOT
BRANCH   3   5
ATOM      5  C   UNL     1       2.660   5.000  19.302  0.00  0.00    +0.000 C 
ATOM      6  C   UNL     1       2.521   4.579  17.811  0.00  0.00    +0.000 C 
ATOM      7  C   UNL     1       3.308   3.285  17.561  0.00  0.00    +0.000 C 
ATOM      8  C   UNL     1       2.800   2.155  18.496  0.00  0.00    +0.000 C 
ATOM      9  O   UNL     1       3.695   1.030  18.439  0.00  0.00    +0.000 OA
ATOM     10  C   UNL     1       4.588   1.205  19.546  0.00  0.00    +0.000 C 
ATOM     11  O   UNL     1       4.242   2.426  20.234  0.00  0.00    +0.000 OA
ATOM     12  C   UNL     1       2.838   2.530  19.964  0.00  0.00    +0.000 C 
ATOM     13  C   UNL     1       2.215   3.892  20.290  0.00  0.00    +0.000 C 
BRANCH   6  14
ATOM     14  O   UNL     1       1.179   4.341  17.399  0.00  0.00    +0.000 OA
ATOM     15  H   UNL     1       0.972   4.935  16.648  0.00  0.00    +0.000 HD
ENDBRANCH   6  14
BRANCH   7  16
ATOM     16  O   UNL     1       4.710   3.569  17.695  0.00  0.00    +0.000 OA
ATOM     17  H   UNL     1       4.861   4.499  17.442  0.00  0.00    +0.000 HD
ENDBRANCH   7  16
BRANCH  13  18
ATOM     18  O   UNL     1       0.799   3.694  20.344  0.00  0.00    +0.000 OA
ATOM     19  H   UNL     1       0.550   3.339  21.222  0.00  0.00    +0.000 HD
ENDBRANCH  13  18
ENDBRANCH   3   5
BRANCH   1  21
ATOM     20  C   UNL     1       1.566   9.721  18.507  0.00  0.00    +0.000 C 
ATOM     21  C   UNL     1       1.661   8.719  19.407  0.00  0.00    +0.000 C 
ATOM     22  C   UNL     1       1.114   8.689  20.802  0.00  0.00    +0.000 C 
BRANCH  20  26
ATOM     23  C   UNL     1      -0.082  13.698  19.094  0.00  0.00    +0.000 A 
ATOM     24  C   UNL     1       1.298  13.438  19.137  0.00  0.00    +0.000 A 
ATOM     25  C   UNL     1       1.826  12.152  18.926  0.00  0.00    +0.000 A 
ATOM     26  C   UNL     1       0.982  11.064  18.685  0.00  0.00    +0.000 A 
ATOM     27  C   UNL     1      -0.391  11.288  18.706  0.00  0.00    +0.000 A 
ATOM     28  C   UNL     1      -0.906  12.580  18.857  0.00  0.00    +0.000 A 
BRANCH  28  29
ATOM     29  O   UNL     1      -2.265  12.732  18.720  0.00  0.00    +0.000 OA
ATOM     30  H   UNL     1      -2.508  13.600  19.076  0.00  0.00    +0.000 HD
ENDBRANCH  28  29
BRANCH  23  31
ATOM     31  N   UNL     1      -0.601  14.988  19.266  0.00  0.00    +0.000 N 
BRANCH  31  32
ATOM     32  C   UNL     1      -0.972  15.383  20.639  0.00  0.00    +0.000 C 
ATOM     33  C   UNL     1      -2.420  15.847  20.754  0.00  0.00    +0.000 C 
ENDBRANCH  31  32
BRANCH  31  34
ATOM     34  C   UNL     1      -0.250  16.080  18.346  0.00  0.00    +0.000 C 
BRANCH  34  36
ATOM     35  C   UNL     1       2.093  17.070  18.070  0.00  0.00    +0.000 C 
ATOM     36  C   UNL     1       0.825  17.020  18.912  0.00  0.00    +0.000 C 
ENDBRANCH  34  36
ENDBRANCH  31  34
ENDBRANCH  23  31
ENDBRANCH  20  26
ENDBRANCH   1  21
TORSDOF 11
ENDMDL
MODEL 8
REMARK VINA RESULT:      -6.9      2.987     10.530
REMARK  Name = 
REMARK  14 active torsions:
REMARK  status: ('A' for Active; 'I' for Inactive)
REMARK    1  A    between atoms: C_1  and  C_2
REMARK    2  A    between atoms: C_2  and  C_3
REMARK    3  A    between atoms: C_3  and  N_4
REMARK    4  A    between atoms: N_4  and  C_5
REMARK    5  A    between atoms: N_4  and  C_7
REMARK    6  A    between atoms: C_5  and  C_6
REMARK    7  A    between atoms: C_10  and  C_11
REMARK    8  A    between atoms: C_12  and  C_13
REMARK    9  A    between atoms: C_12  and  C_14
REMARK   10  A    between atoms: N_16  and  C_17
REMARK   11  A    between atoms: C_18  and  O_19
REMARK   12  A    between atoms: C_20  and  O_21
REMARK   13  A    between atoms: C_27  and  O_28
REMARK   14  A    between atoms: C_30  and  O_31
REMARK                            x       y       z     vdW  Elec       q    Type
REMARK                         _______ _______ _______ _____ _____    ______ ____
ROOT
ATOM      1  C   UNL     1       0.222   9.667  20.134  0.00  0.00    +0.000 C 
ATOM      2  O   UNL     1      -0.214   9.020  21.082  0.00  0.00    +0.000 OA
ATOM      3  N   UNL     1      -0.199  10.945  19.887  0.00  0.00    +0.000 N 
ATOM      4  H   UNL     1       0.222  11.455  19.121  0.00  0.00    +0.000 HD
ENDROOT
BRANCH   3   5
ATOM      5  C   UNL     1      -1.190  11.695  20.689  0.00  0.00    +0.000 C 
ATOM      6  C   UNL     1      -1.984  12.759  19.877  0.00  0.00    +0.000 C 
ATOM      7  C   UNL     1      -3.112  13.338  20.744  0.00  0.00    +0.000 C 
ATOM      8  C   UNL     1      -2.529  13.965  22.039  0.00  0.00    +0.000 C 
ATOM      9  O   UNL     1      -3.592  14.278  22.956  0.00  0.00    +0.000 OA
ATOM     10  C   UNL     1      -3.675  13.149  23.834  0.00  0.00    +0.000 C 
ATOM     11  O   UNL     1      -2.690  12.173  23.431  0.00  0.00    +0.000 OA
ATOM     12  C   UNL     1      -1.678  12.999  22.841  0.00  0.00    +0.000 C 
ATOM     13  C   UNL     1      -0.624  12.247  22.022  0.00  0.00    +0.000 C 
BRANCH   6  14
ATOM     14  O   UNL     1      -1.194  13.854  19.428  0.00  0.00    +0.000 OA
ATOM     15  H   UNL     1      -0.347  13.852  19.920  0.00  0.00    +0.000 HD
ENDBRANCH   6  14
BRANCH   7  16
ATOM     16  O   UNL     1      -4.084  12.307  20.979  0.00  0.00    +0.000 OA
ATOM     17  H   UNL     1      -4.898  12.724  21.320  0.00  0.00    +0.000 HD
ENDBRANCH   7  16
BRANCH  13  18
ATOM     18  O   UNL     1       0.484  13.139  21.860  0.00  0.00    +0.000 OA
ATOM     19  H   UNL     1       0.222  13.886  21.284  0.00  0.00    +0.000 HD
ENDBRANCH  13  18
ENDBRANCH   3   5
BRANCH   1  21
ATOM     20  C   UNL     1       1.799   7.941  19.584  0.00  0.00    +0.000 C 
ATOM     21  C   UNL     1       1.251   9.114  19.199  0.00  0.00    +0.000 C 
ATOM     22  C   UNL     1       1.505   9.869  17.930  0.00  0.00    +0.000 C 
BRANCH  20  26
ATOM     23  C   UNL     1       4.899   5.573  17.671  0.00  0.00    +0.000 A 
ATOM     24  C   UNL     1       4.281   5.182  18.871  0.00  0.00    +0.000 A 
ATOM     25  C   UNL     1       3.265   5.943  19.474  0.00  0.00    +0.000 A 
ATOM     26  C   UNL     1       2.841   7.147  18.905  0.00  0.00    +0.000 A 
ATOM     27  C   UNL     1       3.486   7.586  17.753  0.00  0.00    +0.000 A 
ATOM     28  C   UNL     1       4.454   6.795  17.126  0.00  0.00    +0.000 A 
BRANCH  28  29
ATOM     29  O   UNL     1       4.935   7.234  15.917  0.00  0.00    +0.000 OA
ATOM     30  H   UNL     1       5.895   7.105  15.909  0.00  0.00    +0.000 HD
ENDBRANCH  28  29
BRANCH  23  31
ATOM     31  N   UNL     1       5.884   4.792  17.053  0.00  0.00    +0.000 N 
BRANCH  31  32
ATOM     32  C   UNL     1       7.158   4.621  17.781  0.00  0.00    +0.000 C 
ATOM     33  C   UNL     1       7.706   5.932  18.336  0.00  0.00    +0.000 C 
ENDBRANCH  31  32
BRANCH  31  34
ATOM     34  C   UNL     1       5.529   3.727  16.104  0.00  0.00    +0.000 C 
BRANCH  34  36
ATOM     35  C   UNL     1       6.924   4.826  14.263  0.00  0.00    +0.000 C 
ATOM     36  C   UNL     1       5.597   4.182  14.638  0.00  0.00    +0.000 C 
ENDBRANCH  34  36
ENDBRANCH  31  34
ENDBRANCH  23  31
ENDBRANCH  20  26
ENDBRANCH   1  21
TORSDOF 11
ENDMDL
MODEL 9
REMARK VINA RESULT:      -6.9      1.045      2.035
REMARK  Name = 
REMARK  14 active torsions:
REMARK  status: ('A' for Active; 'I' for Inactive)
REMARK    1  A    between atoms: C_1  and  C_2
REMARK    2  A    between atoms: C_2  and  C_3
REMARK    3  A    between atoms: C_3  and  N_4
REMARK    4  A    between atoms: N_4  and  C_5
REMARK    5  A    between atoms: N_4  and  C_7
REMARK    6  A    between atoms: C_5  and  C_6
REMARK    7  A    between atoms: C_10  and  C_11
REMARK    8  A    between atoms: C_12  and  C_13
REMARK    9  A    between atoms: C_12  and  C_14
REMARK   10  A    between atoms: N_16  and  C_17
REMARK   11  A    between atoms: C_18  and  O_19
REMARK   12  A    between atoms: C_20  and  O_21
REMARK   13  A    between atoms: C_27  and  O_28
REMARK   14  A    between atoms: C_30  and  O_31
REMARK                            x       y       z     vdW  Elec       q    Type
REMARK                         _______ _______ _______ _____ _____    ______ ____
ROOT
ATOM      1  C   UNL     1       2.599   7.525  18.340  0.00  0.00    +0.000 C 
ATOM      2  O   UNL     1       3.517   7.442  17.529  0.00  0.00    +0.000 OA
ATOM      3  N   UNL     1       2.175   6.437  19.054  0.00  0.00    +0.000 N 
ATOM      4  H   UNL     1       1.447   6.564  19.744  0.00  0.00    +0.000 HD
ENDROOT
BRANCH   3   5
ATOM      5  C   UNL     1       2.735   5.071  18.955  0.00  0.00    +0.000 C 
ATOM      6  C   UNL     1       2.510   4.395  17.573  0.00  0.00    +0.000 C 
ATOM      7  C   UNL     1       3.289   3.074  17.508  0.00  0.00    +0.000 C 
ATOM      8  C   UNL     1       2.846   2.128  18.656  0.00  0.00    +0.000 C 
ATOM      9  O   UNL     1       3.743   1.007  18.745  0.00  0.00    +0.000 OA
ATOM     10  C   UNL     1       4.700   1.371  19.748  0.00  0.00    +0.000 C 
ATOM     11  O   UNL     1       4.387   2.696  20.230  0.00  0.00    +0.000 OA
ATOM     12  C   UNL     1       2.969   2.756  20.031  0.00  0.00    +0.000 C 
ATOM     13  C   UNL     1       2.357   4.156  20.149  0.00  0.00    +0.000 C 
BRANCH   6  14
ATOM     14  O   UNL     1       1.147   4.093  17.291  0.00  0.00    +0.000 OA
ATOM     15  H   UNL     1       0.605   4.888  17.474  0.00  0.00    +0.000 HD
ENDBRANCH   6  14
BRANCH   7  16
ATOM     16  O   UNL     1       4.695   3.371  17.505  0.00  0.00    +0.000 OA
ATOM     17  H   UNL     1       4.823   4.255  17.897  0.00  0.00    +0.000 HD
ENDBRANCH   7  16
BRANCH  13  18
ATOM     18  O   UNL     1       0.948   3.977  20.322  0.00  0.00    +0.000 OA
ATOM     19  H   UNL     1       0.596   4.681  20.902  0.00  0.00    +0.000 HD
ENDBRANCH  13  18
ENDBRANCH   3   5
BRANCH   1  21
ATOM     20  C   UNL     1       1.006   8.774  19.632  0.00  0.00    +0.000 C 
ATOM     21  C   UNL     1       1.898   8.817  18.619  0.00  0.00    +0.000 C 
ATOM     22  C   UNL     1       2.304  10.009  17.808  0.00  0.00    +0.000 C 
BRANCH  20  26
ATOM     23  C   UNL     1      -1.521  12.010  21.052  0.00  0.00    +0.000 A 
ATOM     24  C   UNL     1      -1.528  11.577  19.716  0.00  0.00    +0.000 A 
ATOM     25  C   UNL     1      -0.723  10.516  19.267  0.00  0.00    +0.000 A 
ATOM     26  C   UNL     1       0.146   9.858  20.144  0.00  0.00    +0.000 A 
ATOM     27  C   UNL     1       0.217  10.316  21.455  0.00  0.00    +0.000 A 
ATOM     28  C   UNL     1      -0.631  11.332  21.909  0.00  0.00    +0.000 A 
BRANCH  28  29
ATOM     29  O   UNL     1      -0.597  11.623  23.251  0.00  0.00    +0.000 OA
ATOM     30  H   UNL     1      -0.660  10.789  23.742  0.00  0.00    +0.000 HD
ENDBRANCH  28  29
BRANCH  23  31
ATOM     31  N   UNL     1      -2.355  13.042  21.503  0.00  0.00    +0.000 N 
BRANCH  31  32
ATOM     32  C   UNL     1      -3.601  12.645  22.189  0.00  0.00    +0.000 C 
ATOM     33  C   UNL     1      -3.642  13.083  23.650  0.00  0.00    +0.000 C 
ENDBRANCH  31  32
BRANCH  31  34
ATOM     34  C   UNL     1      -1.813  14.364  21.850  0.00  0.00    +0.000 C 
BRANCH  34  36
ATOM     35  C   UNL     1      -1.009  15.849  19.928  0.00  0.00    +0.000 C 
ATOM     36  C   UNL     1      -2.173  15.449  20.824  0.00  0.00    +0.000 C 
ENDBRANCH  34  36
ENDBRANCH  31  34
ENDBRANCH  23  31
ENDBRANCH  20  26
ENDBRANCH   1  21
TORSDOF 11
ENDMDL
