MODEL 1
REMARK VINA RESULT:      -8.4      0.000      0.000
REMARK  Name = 
REMARK  7 active torsions:
REMARK  status: ('A' for Active; 'I' for Inactive)
REMARK    1  A    between atoms: C_1  and  C_2
REMARK    2  A    between atoms: C_2  and  O_4
REMARK    3  A    between atoms: O_4  and  C_5
REMARK    4  A    between atoms: C_9  and  C_10
REMARK    5  A    between atoms: N_12  and  C_13
REMARK    6  A    between atoms: N_21  and  C_22
REMARK    7  A    between atoms: C_22  and  C_23
REMARK                            x       y       z     vdW  Elec       q    Type
REMARK                         _______ _______ _______ _____ _____    ______ ____
ROOT
ATOM      1  C   UNL     1       2.017   7.590  19.214  0.00  0.00    +0.000 A 
ATOM      2  C   UNL     1       1.630   7.054  20.464  0.00  0.00    +0.000 A 
ATOM      3  C   UNL     1       0.946   7.846  21.405  0.00  0.00    +0.000 A 
ATOM      4  C   UNL     1       0.613   9.129  21.013  0.00  0.00    +0.000 A 
ATOM      5  C   UNL     1       0.744   9.525  19.699  0.00  0.00    +0.000 A 
ATOM      6  C   UNL     1       1.493   8.811  18.791  0.00  0.00    +0.000 A 
ATOM      7  C   UNL     1       0.263  10.887  19.583  0.00  0.00    +0.000 C 
ATOM      8  O   UNL     1      -0.159  11.379  18.556  0.00  0.00    +0.000 OA
ATOM      9  N   UNL     1       0.342  11.385  20.853  0.00  0.00    +0.000 N 
ATOM     10  C   UNL     1       0.392  10.371  21.781  0.00  0.00    +0.000 C 
ATOM     11  O   UNL     1       0.374  10.437  22.994  0.00  0.00    +0.000 OA
ENDROOT
BRANCH   1  14
ATOM     12  C   UNL     1       3.043   5.789  17.836  0.00  0.00    +0.000 C 
ATOM     13  O   UNL     1       2.099   5.006  17.761  0.00  0.00    +0.000 OA
ATOM     14  N   UNL     1       3.035   7.036  18.411  0.00  0.00    +0.000 N 
ATOM     15  H   UNL     1       3.860   7.610  18.275  0.00  0.00    +0.000 HD
BRANCH  12  20
ATOM     16  C   UNL     1       6.554   6.063  16.576  0.00  0.00    +0.000 A 
ATOM     17  C   UNL     1       6.749   4.831  15.949  0.00  0.00    +0.000 A 
ATOM     18  C   UNL     1       5.721   3.884  15.943  0.00  0.00    +0.000 A 
ATOM     19  C   UNL     1       4.503   4.167  16.571  0.00  0.00    +0.000 A 
ATOM     20  C   UNL     1       4.317   5.414  17.181  0.00  0.00    +0.000 A 
ATOM     21  C   UNL     1       5.327   6.375  17.150  0.00  0.00    +0.000 A 
BRANCH  16  22
ATOM     22  O   UNL     1       7.616   6.985  16.530  0.00  0.00    +0.000 OA
BRANCH  22  24
ATOM     23  C   UNL     1       8.192   6.830  18.811  0.00  0.00    +0.000 C 
ATOM     24  C   UNL     1       7.903   7.749  17.664  0.00  0.00    +0.000 C 
ATOM     25  O   UNL     1       7.900   8.969  17.751  0.00  0.00    +0.000 OA
ENDBRANCH  22  24
ENDBRANCH  16  22
ENDBRANCH  12  20
ENDBRANCH   1  14
BRANCH   9  26
ATOM     26  C   UNL     1       0.475  12.814  21.084  0.00  0.00    +0.000 C 
BRANCH  26  27
ATOM     27  C   UNL     1      -0.864  13.460  21.555  0.00  0.00    +0.000 C 
ATOM     28  C   UNL     1      -0.923  13.665  23.064  0.00  0.00    +0.000 C 
ATOM     29  C   UNL     1      -2.388  13.487  23.393  0.00  0.00    +0.000 C 
ATOM     30  C   UNL     1      -2.827  12.454  22.385  0.00  0.00    +0.000 C 
ATOM     31  O   UNL     1      -2.017  12.659  21.222  0.00  0.00    +0.000 OA
ENDBRANCH  26  27
ENDBRANCH   9  26
TORSDOF 6
ENDMDL
MODEL 2
REMARK VINA RESULT:      -8.2      1.432      2.284
REMARK  Name = 
REMARK  7 active torsions:
REMARK  status: ('A' for Active; 'I' for Inactive)
REMARK    1  A    between atoms: C_1  and  C_2
REMARK    2  A    between atoms: C_2  and  O_4
REMARK    3  A    between atoms: O_4  and  C_5
REMARK    4  A    between atoms: C_9  and  C_10
REMARK    5  A    between atoms: N_12  and  C_13
REMARK    6  A    between atoms: N_21  and  C_22
REMARK    7  A    between atoms: C_22  and  C_23
REMARK                            x       y       z     vdW  Elec       q    Type
REMARK                         _______ _______ _______ _____ _____    ______ ____
ROOT
ATOM      1  C   UNL     1       2.160   7.558  19.518  0.00  0.00    +0.000 A 
ATOM      2  C   UNL     1       1.573   7.028  20.690  0.00  0.00    +0.000 A 
ATOM      3  C   UNL     1       0.773   7.833  21.520  0.00  0.00    +0.000 A 
ATOM      4  C   UNL     1       0.535   9.126  21.091  0.00  0.00    +0.000 A 
ATOM      5  C   UNL     1       0.875   9.522  19.815  0.00  0.00    +0.000 A 
ATOM      6  C   UNL     1       1.737   8.793  19.028  0.00  0.00    +0.000 A 
ATOM      7  C   UNL     1       0.451  10.897  19.637  0.00  0.00    +0.000 C 
ATOM      8  O   UNL     1       0.202  11.402  18.561  0.00  0.00    +0.000 OA
ATOM      9  N   UNL     1       0.347  11.388  20.908  0.00  0.00    +0.000 N 
ATOM     10  C   UNL     1       0.230  10.370  21.825  0.00  0.00    +0.000 C 
ATOM     11  O   UNL     1       0.028  10.433  23.022  0.00  0.00    +0.000 OA
ENDROOT
BRANCH   1  14
ATOM     12  C   UNL     1       3.330   5.750  18.269  0.00  0.00    +0.000 C 
ATOM     13  O   UNL     1       2.382   5.012  18.013  0.00  0.00    +0.000 OA
ATOM     14  N   UNL     1       3.274   6.981  18.875  0.00  0.00    +0.000 N 
ATOM     15  H   UNL     1       4.132   7.522  18.896  0.00  0.00    +0.000 HD
BRANCH  12  20
ATOM     16  C   UNL     1       6.013   4.250  16.138  0.00  0.00    +0.000 A 
ATOM     17  C   UNL     1       7.165   4.484  16.891  0.00  0.00    +0.000 A 
ATOM     18  C   UNL     1       7.072   5.154  18.114  0.00  0.00    +0.000 A 
ATOM     19  C   UNL     1       5.828   5.595  18.579  0.00  0.00    +0.000 A 
ATOM     20  C   UNL     1       4.679   5.337  17.821  0.00  0.00    +0.000 A 
ATOM     21  C   UNL     1       4.767   4.633  16.621  0.00  0.00    +0.000 A 
BRANCH  16  22
ATOM     22  O   UNL     1       6.165   3.552  14.926  0.00  0.00    +0.000 OA
BRANCH  22  24
ATOM     23  C   UNL     1       6.075   3.540  12.570  0.00  0.00    +0.000 C 
ATOM     24  C   UNL     1       6.584   4.246  13.789  0.00  0.00    +0.000 C 
ATOM     25  O   UNL     1       7.279   5.253  13.754  0.00  0.00    +0.000 OA
ENDBRANCH  22  24
ENDBRANCH  16  22
ENDBRANCH  12  20
ENDBRANCH   1  14
BRANCH   9  26
ATOM     26  C   UNL     1       0.478  12.813  21.166  0.00  0.00    +0.000 C 
BRANCH  26  27
ATOM     27  C   UNL     1      -0.885  13.469  21.545  0.00  0.00    +0.000 C 
ATOM     28  C   UNL     1      -1.035  13.699  23.044  0.00  0.00    +0.000 C 
ATOM     29  C   UNL     1      -2.518  13.529  23.286  0.00  0.00    +0.000 C 
ATOM     30  C   UNL     1      -2.897  12.480  22.272  0.00  0.00    +0.000 C 
ATOM     31  O   UNL     1      -2.019  12.664  21.157  0.00  0.00    +0.000 OA
ENDBRANCH  26  27
ENDBRANCH   9  26
TORSDOF 6
ENDMDL
MODEL 3
REMARK VINA RESULT:      -8.2      0.863      1.084
REMARK  Name = 
REMARK  7 active torsions:
REMARK  status: ('A' for Active; 'I' for Inactive)
REMARK    1  A    between atoms: C_1  and  C_2
REMARK    2  A    between atoms: C_2  and  O_4
REMARK    3  A    between atoms: O_4  and  C_5
REMARK    4  A    between atoms: C_9  and  C_10
REMARK    5  A    between atoms: N_12  and  C_13
REMARK    6  A    between atoms: N_21  and  C_22
REMARK    7  A    between atoms: C_22  and  C_23
REMARK                            x       y       z     vdW  Elec       q    Type
REMARK                         _______ _______ _______ _____ _____    ______ ____
ROOT
ATOM      1  C   UNL     1       2.082   7.490  19.187  0.00  0.00    +0.000 A 
ATOM      2  C   UNL     1       1.706   6.895  20.413  0.00  0.00    +0.000 A 
ATOM      3  C   UNL     1       1.022   7.637  21.392  0.00  0.00    +0.000 A 
ATOM      4  C   UNL     1       0.678   8.935  21.062  0.00  0.00    +0.000 A 
ATOM      5  C   UNL     1       0.799   9.391  19.767  0.00  0.00    +0.000 A 
ATOM      6  C   UNL     1       1.548   8.726  18.823  0.00  0.00    +0.000 A 
ATOM      7  C   UNL     1       0.309  10.755  19.717  0.00  0.00    +0.000 C 
ATOM      8  O   UNL     1      -0.123  11.290  18.716  0.00  0.00    +0.000 OA
ATOM      9  N   UNL     1       0.391  11.194  21.008  0.00  0.00    +0.000 N 
ATOM     10  C   UNL     1       0.453  10.138  21.888  0.00  0.00    +0.000 C 
ATOM     11  O   UNL     1       0.441  10.148  23.103  0.00  0.00    +0.000 OA
ENDROOT
BRANCH   1  14
ATOM     12  C   UNL     1       3.146   5.735  17.778  0.00  0.00    +0.000 C 
ATOM     13  O   UNL     1       2.236   4.911  17.731  0.00  0.00    +0.000 OA
ATOM     14  N   UNL     1       3.099   6.982  18.354  0.00  0.00    +0.000 N 
ATOM     15  H   UNL     1       3.894   7.591  18.193  0.00  0.00    +0.000 HD
BRANCH  12  20
ATOM     16  C   UNL     1       6.677   6.074  16.591  0.00  0.00    +0.000 A 
ATOM     17  C   UNL     1       6.842   4.937  15.800  0.00  0.00    +0.000 A 
ATOM     18  C   UNL     1       5.786   4.032  15.655  0.00  0.00    +0.000 A 
ATOM     19  C   UNL     1       4.571   4.262  16.308  0.00  0.00    +0.000 A 
ATOM     20  C   UNL     1       4.415   5.417  17.085  0.00  0.00    +0.000 A 
ATOM     21  C   UNL     1       5.453   6.340  17.196  0.00  0.00    +0.000 A 
BRANCH  16  22
ATOM     22  O   UNL     1       7.766   6.961  16.682  0.00  0.00    +0.000 OA
BRANCH  22  24
ATOM     23  C   UNL     1       8.002   9.042  17.764  0.00  0.00    +0.000 C 
ATOM     24  C   UNL     1       8.060   7.553  17.913  0.00  0.00    +0.000 C 
ATOM     25  O   UNL     1       8.352   6.982  18.954  0.00  0.00    +0.000 OA
ENDBRANCH  22  24
ENDBRANCH  16  22
ENDBRANCH  12  20
ENDBRANCH   1  14
BRANCH   9  26
ATOM     26  C   UNL     1       0.515  12.611  21.304  0.00  0.00    +0.000 C 
BRANCH  26  27
ATOM     27  C   UNL     1      -0.816  13.218  21.844  0.00  0.00    +0.000 C 
ATOM     28  C   UNL     1      -1.010  14.673  21.435  0.00  0.00    +0.000 C 
ATOM     29  C   UNL     1      -1.769  15.274  22.598  0.00  0.00    +0.000 C 
ATOM     30  C   UNL     1      -1.225  14.505  23.776  0.00  0.00    +0.000 C 
ATOM     31  O   UNL     1      -0.892  13.202  23.285  0.00  0.00    +0.000 OA
ENDBRANCH  26  27
ENDBRANCH   9  26
TORSDOF 6
ENDMDL
MODEL 4
REMARK VINA RESULT:      -8.2      1.600      2.439
REMARK  Name = 
REMARK  7 active torsions:
REMARK  status: ('A' for Active; 'I' for Inactive)
REMARK    1  A    between atoms: C_1  and  C_2
REMARK    2  A    between atoms: C_2  and  O_4
REMARK    3  A    between atoms: O_4  and  C_5
REMARK    4  A    between atoms: C_9  and  C_10
REMARK    5  A    between atoms: N_12  and  C_13
REMARK    6  A    between atoms: N_21  and  C_22
REMARK    7  A    between atoms: C_22  and  C_23
REMARK                            x       y       z     vdW  Elec       q    Type
REMARK                         _______ _______ _______ _____ _____    ______ ____
ROOT
ATOM      1  C   UNL     1       1.907   7.990  19.143  0.00  0.00    +0.000 A 
ATOM      2  C   UNL     1       1.770   7.837  20.542  0.00  0.00    +0.000 A 
ATOM      3  C   UNL     1       1.095   8.804  21.308  0.00  0.00    +0.000 A 
ATOM      4  C   UNL     1       0.517   9.853  20.617  0.00  0.00    +0.000 A 
ATOM      5  C   UNL     1       0.418   9.825  19.242  0.00  0.00    +0.000 A 
ATOM      6  C   UNL     1       1.149   8.949  18.473  0.00  0.00    +0.000 A 
ATOM      7  C   UNL     1      -0.282  11.020  18.812  0.00  0.00    +0.000 C 
ATOM      8  O   UNL     1      -0.903  11.113  17.773  0.00  0.00    +0.000 OA
ATOM      9  N   UNL     1      -0.123  11.899  19.846  0.00  0.00    +0.000 N 
ATOM     10  C   UNL     1       0.203  11.242  21.010  0.00  0.00    +0.000 C 
ATOM     11  O   UNL     1       0.328  11.685  22.134  0.00  0.00    +0.000 OA
ENDROOT
BRANCH   1  14
ATOM     12  C   UNL     1       2.869   6.016  17.971  0.00  0.00    +0.000 C 
ATOM     13  O   UNL     1       1.918   5.240  18.033  0.00  0.00    +0.000 OA
ATOM     14  N   UNL     1       2.889   7.327  18.380  0.00  0.00    +0.000 N 
ATOM     15  H   UNL     1       3.712   7.870  18.139  0.00  0.00    +0.000 HD
BRANCH  12  20
ATOM     16  C   UNL     1       6.371   6.054  16.658  0.00  0.00    +0.000 A 
ATOM     17  C   UNL     1       6.497   4.784  16.093  0.00  0.00    +0.000 A 
ATOM     18  C   UNL     1       5.424   3.890  16.146  0.00  0.00    +0.000 A 
ATOM     19  C   UNL     1       4.231   4.263  16.773  0.00  0.00    +0.000 A 
ATOM     20  C   UNL     1       4.114   5.547  17.321  0.00  0.00    +0.000 A 
ATOM     21  C   UNL     1       5.169   6.454  17.230  0.00  0.00    +0.000 A 
BRANCH  16  22
ATOM     22  O   UNL     1       7.476   6.919  16.554  0.00  0.00    +0.000 OA
BRANCH  22  24
ATOM     23  C   UNL     1       8.218   6.870  18.792  0.00  0.00    +0.000 C 
ATOM     24  C   UNL     1       7.806   7.734  17.640  0.00  0.00    +0.000 C 
ATOM     25  O   UNL     1       7.752   8.955  17.688  0.00  0.00    +0.000 OA
ENDBRANCH  22  24
ENDBRANCH  16  22
ENDBRANCH  12  20
ENDBRANCH   1  14
BRANCH   9  26
ATOM     26  C   UNL     1      -0.188  13.333  19.619  0.00  0.00    +0.000 C 
BRANCH  26  27
ATOM     27  C   UNL     1       0.980  13.839  18.718  0.00  0.00    +0.000 C 
ATOM     28  C   UNL     1       2.338  13.301  19.153  0.00  0.00    +0.000 C 
ATOM     29  C   UNL     1       3.295  14.417  18.800  0.00  0.00    +0.000 C 
ATOM     30  C   UNL     1       2.457  15.651  19.022  0.00  0.00    +0.000 C 
ATOM     31  O   UNL     1       1.107  15.277  18.725  0.00  0.00    +0.000 OA
ENDBRANCH  26  27
ENDBRANCH   9  26
TORSDOF 6
ENDMDL
MODEL 5
REMARK VINA RESULT:      -8.1      1.432      2.176
REMARK  Name = 
REMARK  7 active torsions:
REMARK  status: ('A' for Active; 'I' for Inactive)
REMARK    1  A    between atoms: C_1  and  C_2
REMARK    2  A    between atoms: C_2  and  O_4
REMARK    3  A    between atoms: O_4  and  C_5
REMARK    4  A    between atoms: C_9  and  C_10
REMARK    5  A    between atoms: N_12  and  C_13
REMARK    6  A    between atoms: N_21  and  C_22
REMARK    7  A    between atoms: C_22  and  C_23
REMARK                            x       y       z     vdW  Elec       q    Type
REMARK                         _______ _______ _______ _____ _____    ______ ____
ROOT
ATOM      1  C   UNL     1       1.893   7.893  19.217  0.00  0.00    +0.000 A 
ATOM      2  C   UNL     1       1.522   7.412  20.494  0.00  0.00    +0.000 A 
ATOM      3  C   UNL     1       0.815   8.230  21.393  0.00  0.00    +0.000 A 
ATOM      4  C   UNL     1       0.442   9.481  20.936  0.00  0.00    +0.000 A 
ATOM      5  C   UNL     1       0.562   9.811  19.602  0.00  0.00    +0.000 A 
ATOM      6  C   UNL     1       1.332   9.075  18.732  0.00  0.00    +0.000 A 
ATOM      7  C   UNL     1       0.040  11.151  19.417  0.00  0.00    +0.000 C 
ATOM      8  O   UNL     1      -0.397  11.576  18.366  0.00  0.00    +0.000 OA
ATOM      9  N   UNL     1       0.104  11.716  20.659  0.00  0.00    +0.000 N 
ATOM     10  C   UNL     1       0.185  10.754  21.638  0.00  0.00    +0.000 C 
ATOM     11  O   UNL     1       0.164  10.882  22.846  0.00  0.00    +0.000 OA
ENDROOT
BRANCH   1  14
ATOM     12  C   UNL     1       2.977   6.053  17.939  0.00  0.00    +0.000 C 
ATOM     13  O   UNL     1       2.060   5.235  17.913  0.00  0.00    +0.000 OA
ATOM     14  N   UNL     1       2.927   7.330  18.442  0.00  0.00    +0.000 N 
ATOM     15  H   UNL     1       3.731   7.923  18.270  0.00  0.00    +0.000 HD
BRANCH  12  20
ATOM     16  C   UNL     1       6.511   6.336  16.747  0.00  0.00    +0.000 A 
ATOM     17  C   UNL     1       6.713   5.114  16.104  0.00  0.00    +0.000 A 
ATOM     18  C   UNL     1       5.682   4.171  16.063  0.00  0.00    +0.000 A 
ATOM     19  C   UNL     1       4.454   4.448  16.674  0.00  0.00    +0.000 A 
ATOM     20  C   UNL     1       4.261   5.685  17.301  0.00  0.00    +0.000 A 
ATOM     21  C   UNL     1       5.274   6.642  17.304  0.00  0.00    +0.000 A 
BRANCH  16  22
ATOM     22  O   UNL     1       7.576   7.255  16.736  0.00  0.00    +0.000 OA
BRANCH  22  24
ATOM     23  C   UNL     1       8.160   9.233  17.880  0.00  0.00    +0.000 C 
ATOM     24  C   UNL     1       8.069   7.740  17.950  0.00  0.00    +0.000 C 
ATOM     25  O   UNL     1       8.410   7.081  18.922  0.00  0.00    +0.000 OA
ENDBRANCH  22  24
ENDBRANCH  16  22
ENDBRANCH  12  20
ENDBRANCH   1  14
BRANCH   9  26
ATOM     26  C   UNL     1       0.194  13.159  20.816  0.00  0.00    +0.000 C 
BRANCH  26  27
ATOM     27  C   UNL     1       1.577  13.714  20.358  0.00  0.00    +0.000 C 
ATOM     28  C   UNL     1       2.247  14.578  21.419  0.00  0.00    +0.000 C 
ATOM     29  C   UNL     1       3.016  15.602  20.614  0.00  0.00    +0.000 C 
ATOM     30  C   UNL     1       2.137  15.796  19.405  0.00  0.00    +0.000 C 
ATOM     31  O   UNL     1       1.482  14.543  19.179  0.00  0.00    +0.000 OA
ENDBRANCH  26  27
ENDBRANCH   9  26
TORSDOF 6
ENDMDL
MODEL 6
REMARK VINA RESULT:      -8.1      2.724      8.819
REMARK  Name = 
REMARK  7 active torsions:
REMARK  status: ('A' for Active; 'I' for Inactive)
REMARK    1  A    between atoms: C_1  and  C_2
REMARK    2  A    between atoms: C_2  and  O_4
REMARK    3  A    between atoms: O_4  and  C_5
REMARK    4  A    between atoms: C_9  and  C_10
REMARK    5  A    between atoms: N_12  and  C_13
REMARK    6  A    between atoms: N_21  and  C_22
REMARK    7  A    between atoms: C_22  and  C_23
REMARK                            x       y       z     vdW  Elec       q    Type
REMARK                         _______ _______ _______ _____ _____    ______ ____
ROOT
ATOM      1  C   UNL     1       2.819   7.702  17.791  0.00  0.00    +0.000 A 
ATOM      2  C   UNL     1       4.196   7.902  17.538  0.00  0.00    +0.000 A 
ATOM      3  C   UNL     1       5.081   6.811  17.479  0.00  0.00    +0.000 A 
ATOM      4  C   UNL     1       4.525   5.551  17.601  0.00  0.00    +0.000 A 
ATOM      5  C   UNL     1       3.159   5.373  17.556  0.00  0.00    +0.000 A 
ATOM      6  C   UNL     1       2.278   6.419  17.712  0.00  0.00    +0.000 A 
ATOM      7  C   UNL     1       2.881   3.953  17.647  0.00  0.00    +0.000 C 
ATOM      8  O   UNL     1       1.875   3.423  17.220  0.00  0.00    +0.000 OA
ATOM      9  N   UNL     1       4.001   3.423  18.223  0.00  0.00    +0.000 N 
ATOM     10  C   UNL     1       5.077   4.271  18.088  0.00  0.00    +0.000 C 
ATOM     11  O   UNL     1       6.239   4.092  18.393  0.00  0.00    +0.000 OA
ENDROOT
BRANCH   1  14
ATOM     12  C   UNL     1       1.402   8.786  19.527  0.00  0.00    +0.000 C 
ATOM     13  O   UNL     1       1.690   8.099  20.505  0.00  0.00    +0.000 OA
ATOM     14  N   UNL     1       1.961   8.711  18.275  0.00  0.00    +0.000 N 
ATOM     15  H   UNL     1       1.705   9.437  17.614  0.00  0.00    +0.000 HD
BRANCH  12  20
ATOM     16  C   UNL     1      -1.161  11.370  18.663  0.00  0.00    +0.000 A 
ATOM     17  C   UNL     1      -1.455  11.933  19.905  0.00  0.00    +0.000 A 
ATOM     18  C   UNL     1      -0.814  11.458  21.053  0.00  0.00    +0.000 A 
ATOM     19  C   UNL     1       0.112  10.415  20.958  0.00  0.00    +0.000 A 
ATOM     20  C   UNL     1       0.409   9.871  19.702  0.00  0.00    +0.000 A 
ATOM     21  C   UNL     1      -0.198  10.373  18.552  0.00  0.00    +0.000 A 
BRANCH  16  22
ATOM     22  O   UNL     1      -1.820  11.903  17.540  0.00  0.00    +0.000 OA
BRANCH  22  24
ATOM     23  C   UNL     1      -4.061  11.190  17.374  0.00  0.00    +0.000 C 
ATOM     24  C   UNL     1      -2.681  11.086  16.804  0.00  0.00    +0.000 C 
ATOM     25  O   UNL     1      -2.385  10.366  15.860  0.00  0.00    +0.000 OA
ENDBRANCH  22  24
ENDBRANCH  16  22
ENDBRANCH  12  20
ENDBRANCH   1  14
BRANCH   9  26
ATOM     26  C   UNL     1       3.935   2.177  18.967  0.00  0.00    +0.000 C 
BRANCH  26  27
ATOM     27  C   UNL     1       3.269   2.361  20.365  0.00  0.00    +0.000 C 
ATOM     28  C   UNL     1       1.772   2.075  20.349  0.00  0.00    +0.000 C 
ATOM     29  C   UNL     1       1.216   3.020  21.391  0.00  0.00    +0.000 C 
ATOM     30  C   UNL     1       2.128   4.214  21.271  0.00  0.00    +0.000 C 
ATOM     31  O   UNL     1       3.406   3.705  20.875  0.00  0.00    +0.000 OA
ENDBRANCH  26  27
ENDBRANCH   9  26
TORSDOF 6
ENDMDL
MODEL 7
REMARK VINA RESULT:      -7.9      2.025      3.208
REMARK  Name = 
REMARK  7 active torsions:
REMARK  status: ('A' for Active; 'I' for Inactive)
REMARK    1  A    between atoms: C_1  and  C_2
REMARK    2  A    between atoms: C_2  and  O_4
REMARK    3  A    between atoms: O_4  and  C_5
REMARK    4  A    between atoms: C_9  and  C_10
REMARK    5  A    between atoms: N_12  and  C_13
REMARK    6  A    between atoms: N_21  and  C_22
REMARK    7  A    between atoms: C_22  and  C_23
REMARK                            x       y       z     vdW  Elec       q    Type
REMARK                         _______ _______ _______ _____ _____    ______ ____
ROOT
ATOM      1  C   UNL     1       2.193   7.678  19.447  0.00  0.00    +0.000 A 
ATOM      2  C   UNL     1       1.835   7.458  20.797  0.00  0.00    +0.000 A 
ATOM      3  C   UNL     1       1.020   8.375  21.483  0.00  0.00    +0.000 A 
ATOM      4  C   UNL     1       0.533   9.443  20.753  0.00  0.00    +0.000 A 
ATOM      5  C   UNL     1       0.659   9.478  19.380  0.00  0.00    +0.000 A 
ATOM      6  C   UNL     1       1.528   8.653  18.703  0.00  0.00    +0.000 A 
ATOM      7  C   UNL     1       0.006  10.677  18.893  0.00  0.00    +0.000 C 
ATOM      8  O   UNL     1      -0.441  10.806  17.771  0.00  0.00    +0.000 OA
ATOM      9  N   UNL     1      -0.028  11.510  19.976  0.00  0.00    +0.000 N 
ATOM     10  C   UNL     1       0.122  10.806  21.148  0.00  0.00    +0.000 C 
ATOM     11  O   UNL     1       0.051  11.198  22.295  0.00  0.00    +0.000 OA
ENDROOT
BRANCH   1  14
ATOM     12  C   UNL     1       3.330   5.851  18.196  0.00  0.00    +0.000 C 
ATOM     13  O   UNL     1       2.362   5.155  17.898  0.00  0.00    +0.000 OA
ATOM     14  N   UNL     1       3.304   7.071  18.826  0.00  0.00    +0.000 N 
ATOM     15  H   UNL     1       4.181   7.577  18.883  0.00  0.00    +0.000 HD
BRANCH  12  20
ATOM     16  C   UNL     1       6.012   4.259  16.131  0.00  0.00    +0.000 A 
ATOM     17  C   UNL     1       7.153   4.460  16.908  0.00  0.00    +0.000 A 
ATOM     18  C   UNL     1       7.054   5.137  18.127  0.00  0.00    +0.000 A 
ATOM     19  C   UNL     1       5.815   5.619  18.562  0.00  0.00    +0.000 A 
ATOM     20  C   UNL     1       4.675   5.394  17.780  0.00  0.00    +0.000 A 
ATOM     21  C   UNL     1       4.767   4.683  16.584  0.00  0.00    +0.000 A 
BRANCH  16  22
ATOM     22  O   UNL     1       6.168   3.552  14.924  0.00  0.00    +0.000 OA
BRANCH  22  24
ATOM     23  C   UNL     1       6.096   3.505  12.568  0.00  0.00    +0.000 C 
ATOM     24  C   UNL     1       6.579   4.240  13.780  0.00  0.00    +0.000 C 
ATOM     25  O   UNL     1       7.249   5.263  13.737  0.00  0.00    +0.000 OA
ENDBRANCH  22  24
ENDBRANCH  16  22
ENDBRANCH  12  20
ENDBRANCH   1  14
BRANCH   9  26
ATOM     26  C   UNL     1      -0.094  12.951  19.803  0.00  0.00    +0.000 C 
BRANCH  26  27
ATOM     27  C   UNL     1       1.282  13.638  20.059  0.00  0.00    +0.000 C 
ATOM     28  C   UNL     1       1.258  15.135  19.777  0.00  0.00    +0.000 C 
ATOM     29  C   UNL     1       2.657  15.429  19.283  0.00  0.00    +0.000 C 
ATOM     30  C   UNL     1       3.022  14.159  18.557  0.00  0.00    +0.000 C 
ATOM     31  O   UNL     1       2.336  13.099  19.232  0.00  0.00    +0.000 OA
ENDBRANCH  26  27
ENDBRANCH   9  26
TORSDOF 6
ENDMDL
MODEL 8
REMARK VINA RESULT:      -7.9      2.480      8.794
REMARK  Name = 
REMARK  7 active torsions:
REMARK  status: ('A' for Active; 'I' for Inactive)
REMARK    1  A    between atoms: C_1  and  C_2
REMARK    2  A    between atoms: C_2  and  O_4
REMARK    3  A    between atoms: O_4  and  C_5
REMARK    4  A    between atoms: C_9  and  C_10
REMARK    5  A    between atoms: N_12  and  C_13
REMARK    6  A    between atoms: N_21  and  C_22
REMARK    7  A    between atoms: C_22  and  C_23
REMARK                            x       y       z     vdW  Elec       q    Type
REMARK                         _______ _______ _______ _____ _____    ______ ____
ROOT
ATOM      1  C   UNL     1       2.241   7.840  18.380  0.00  0.00    +0.000 A 
ATOM      2  C   UNL     1       3.521   8.105  17.840  0.00  0.00    +0.000 A 
ATOM      3  C   UNL     1       4.346   7.055  17.399  0.00  0.00    +0.000 A 
ATOM      4  C   UNL     1       3.813   5.780  17.451  0.00  0.00    +0.000 A 
ATOM      5  C   UNL     1       2.472   5.584  17.708  0.00  0.00    +0.000 A 
ATOM      6  C   UNL     1       1.675   6.574  18.233  0.00  0.00    +0.000 A 
ATOM      7  C   UNL     1       2.199   4.162  17.638  0.00  0.00    +0.000 C 
ATOM      8  O   UNL     1       1.111   3.685  17.387  0.00  0.00    +0.000 OA
ATOM      9  N   UNL     1       3.415   3.571  17.839  0.00  0.00    +0.000 N 
ATOM     10  C   UNL     1       4.442   4.451  17.585  0.00  0.00    +0.000 C 
ATOM     11  O   UNL     1       5.640   4.250  17.570  0.00  0.00    +0.000 OA
ENDROOT
BRANCH   1  14
ATOM     12  C   UNL     1       1.194   8.554  20.523  0.00  0.00    +0.000 C 
ATOM     13  O   UNL     1       1.583   7.656  21.267  0.00  0.00    +0.000 OA
ATOM     14  N   UNL     1       1.543   8.743  19.208  0.00  0.00    +0.000 N 
ATOM     15  H   UNL     1       1.239   9.606  18.772  0.00  0.00    +0.000 HD
BRANCH  12  20
ATOM     16  C   UNL     1      -1.081  11.519  20.684  0.00  0.00    +0.000 A 
ATOM     17  C   UNL     1      -1.319  11.644  22.053  0.00  0.00    +0.000 A 
ATOM     18  C   UNL     1      -0.736  10.741  22.946  0.00  0.00    +0.000 A 
ATOM     19  C   UNL     1       0.077   9.708  22.468  0.00  0.00    +0.000 A 
ATOM     20  C   UNL     1       0.320   9.605  21.092  0.00  0.00    +0.000 A 
ATOM     21  C   UNL     1      -0.227  10.531  20.206  0.00  0.00    +0.000 A 
BRANCH  16  22
ATOM     22  O   UNL     1      -1.675  12.470  19.836  0.00  0.00    +0.000 OA
BRANCH  22  24
ATOM     23  C   UNL     1      -2.122  11.661  17.667  0.00  0.00    +0.000 C 
ATOM     24  C   UNL     1      -1.257  12.551  18.505  0.00  0.00    +0.000 C 
ATOM     25  O   UNL     1      -0.323  13.206  18.065  0.00  0.00    +0.000 OA
ENDBRANCH  22  24
ENDBRANCH  16  22
ENDBRANCH  12  20
ENDBRANCH   1  14
BRANCH   9  26
ATOM     26  C   UNL     1       3.506   2.222  18.372  0.00  0.00    +0.000 C 
BRANCH  26  27
ATOM     27  C   UNL     1       3.132   2.161  19.884  0.00  0.00    +0.000 C 
ATOM     28  C   UNL     1       1.637   1.979  20.116  0.00  0.00    +0.000 C 
ATOM     29  C   UNL     1       1.381   2.726  21.406  0.00  0.00    +0.000 C 
ATOM     30  C   UNL     1       2.372   3.860  21.330  0.00  0.00    +0.000 C 
ATOM     31  O   UNL     1       3.496   3.362  20.598  0.00  0.00    +0.000 OA
ENDBRANCH  26  27
ENDBRANCH   9  26
TORSDOF 6
ENDMDL
MODEL 9
REMARK VINA RESULT:      -7.8      2.164      3.224
REMARK  Name = 
REMARK  7 active torsions:
REMARK  status: ('A' for Active; 'I' for Inactive)
REMARK    1  A    between atoms: C_1  and  C_2
REMARK    2  A    between atoms: C_2  and  O_4
REMARK    3  A    between atoms: O_4  and  C_5
REMARK    4  A    between atoms: C_9  and  C_10
REMARK    5  A    between atoms: N_12  and  C_13
REMARK    6  A    between atoms: N_21  and  C_22
REMARK    7  A    between atoms: C_22  and  C_23
REMARK                            x       y       z     vdW  Elec       q    Type
REMARK                         _______ _______ _______ _____ _____    ______ ____
ROOT
ATOM      1  C   UNL     1       1.184   8.527  20.260  0.00  0.00    +0.000 A 
ATOM      2  C   UNL     1       1.420   8.853  21.615  0.00  0.00    +0.000 A 
ATOM      3  C   UNL     1       1.013  10.094  22.138  0.00  0.00    +0.000 A 
ATOM      4  C   UNL     1       0.312  10.928  21.286  0.00  0.00    +0.000 A 
ATOM      5  C   UNL     1      -0.152  10.470  20.071  0.00  0.00    +0.000 A 
ATOM      6  C   UNL     1       0.312   9.307  19.501  0.00  0.00    +0.000 A 
ATOM      7  C   UNL     1      -0.894  11.541  19.435  0.00  0.00    +0.000 C 
ATOM      8  O   UNL     1      -1.767  11.371  18.608  0.00  0.00    +0.000 OA
ATOM      9  N   UNL     1      -0.431  12.678  20.033  0.00  0.00    +0.000 N 
ATOM     10  C   UNL     1       0.169  12.397  21.239  0.00  0.00    +0.000 C 
ATOM     11  O   UNL     1       0.606  13.159  22.077  0.00  0.00    +0.000 OA
ENDROOT
BRANCH   1  14
ATOM     12  C   UNL     1       2.042   6.215  19.919  0.00  0.00    +0.000 C 
ATOM     13  O   UNL     1       1.425   5.621  20.801  0.00  0.00    +0.000 OA
ATOM     14  N   UNL     1       1.900   7.534  19.561  0.00  0.00    +0.000 N 
ATOM     15  H   UNL     1       2.389   7.838  18.726  0.00  0.00    +0.000 HD
BRANCH  12  20
ATOM     16  C   UNL     1       5.251   4.705  18.731  0.00  0.00    +0.000 A 
ATOM     17  C   UNL     1       4.861   4.041  17.567  0.00  0.00    +0.000 A 
ATOM     18  C   UNL     1       3.524   4.075  17.162  0.00  0.00    +0.000 A 
ATOM     19  C   UNL     1       2.577   4.765  17.926  0.00  0.00    +0.000 A 
ATOM     20  C   UNL     1       2.986   5.441  19.082  0.00  0.00    +0.000 A 
ATOM     21  C   UNL     1       4.327   5.443  19.463  0.00  0.00    +0.000 A 
BRANCH  16  22
ATOM     22  O   UNL     1       6.614   4.656  19.077  0.00  0.00    +0.000 OA
BRANCH  22  24
ATOM     23  C   UNL     1       7.647   6.499  18.030  0.00  0.00    +0.000 C 
ATOM     24  C   UNL     1       7.571   5.006  18.121  0.00  0.00    +0.000 C 
ATOM     25  O   UNL     1       8.236   4.245  17.432  0.00  0.00    +0.000 OA
ENDBRANCH  22  24
ENDBRANCH  16  22
ENDBRANCH  12  20
ENDBRANCH   1  14
BRANCH   9  26
ATOM     26  C   UNL     1      -0.498  13.959  19.348  0.00  0.00    +0.000 C 
BRANCH  26  27
ATOM     27  C   UNL     1       0.876  14.373  18.740  0.00  0.00    +0.000 C 
ATOM     28  C   UNL     1       1.694  13.181  18.258  0.00  0.00    +0.000 C 
ATOM     29  C   UNL     1       3.125  13.608  18.495  0.00  0.00    +0.000 C 
ATOM     30  C   UNL     1       3.012  14.460  19.734  0.00  0.00    +0.000 C 
ATOM     31  O   UNL     1       1.717  15.068  19.686  0.00  0.00    +0.000 OA
ENDBRANCH  26  27
ENDBRANCH   9  26
TORSDOF 6
ENDMDL
