MODEL 1
REMARK VINA RESULT:      -6.9      0.000      0.000
REMARK  Name = 
REMARK  4 active torsions:
REMARK  status: ('A' for Active; 'I' for Inactive)
REMARK    1  A    between atoms: CB_1  and  CA_2
REMARK    2  A    between atoms: CA_2  and  C_3
REMARK    3  A    between atoms: CA_2  and  N_5
REMARK    4  A    between atoms: C_3  and  O_4
REMARK                            x       y       z     vdW  Elec       q    Type
REMARK                         _______ _______ _______ _____ _____    ______ ____
ROOT
ATOM      1  N   ALA A   1       3.233   3.896  18.932  0.00  0.00    +0.000 N 
ATOM      2  C   UNK A   0       4.403   4.227  18.289  0.00  0.00    +0.000 C 
ATOM      3  N   UNK A   0       5.268   5.028  18.810  0.00  0.00    +0.000 NA
ATOM      4  S   UNK A   0       6.627   5.388  18.007  0.00  0.00    +0.000 S 
ATOM      5  O   UNK A   0       7.705   4.564  18.515  0.00  0.00    +0.000 OA
ATOM      6  O   UNK A   0       6.766   6.834  17.967  0.00  0.00    +0.000 OA
ATOM      7  C   UNK A   0       6.401   4.891  16.332  0.00  0.00    +0.000 A 
ATOM      8  C   UNK A   0       7.280   5.343  15.344  0.00  0.00    +0.000 A 
ATOM      9  C   UNK A   0       7.096   4.902  14.039  0.00  0.00    +0.000 A 
ATOM     10 CL   UNK A   0       8.149   5.443  12.791  0.00  0.00    +0.000 Cl
ATOM     11  C   UNK A   0       6.063   4.016  13.733  0.00  0.00    +0.000 A 
ATOM     12  C   UNK A   0       5.189   3.584  14.739  0.00  0.00    +0.000 A 
ATOM     13  C   UNK A   0       5.332   4.048  16.053  0.00  0.00    +0.000 A 
ATOM     14  N   UNK A   0       4.452   3.635  17.055  0.00  0.00    +0.000 N 
ATOM     15  H   ALA A   1       2.801   3.025  18.638  0.00  0.00    +0.000 HD
ATOM     16  H   UNK A   0       3.618   3.166  16.735  0.00  0.00    +0.000 HD
ENDROOT
BRANCH   1  18
ATOM     17  CB  ALA A   1       1.866   5.014  20.599  0.00  0.00    +0.000 C 
ATOM     18  CA  ALA A   1       3.056   4.078  20.378  0.00  0.00    +0.000 C 
BRANCH  18  19
ATOM     19  C   ALA A   1       2.806   2.703  21.030  0.00  0.00    +0.000 C 
BRANCH  19  20
ATOM     20  O   ALA A   1       1.930   2.827  22.157  0.00  0.00    +0.000 OA
ATOM     21  H   ALA A   1       1.999   3.744  22.477  0.00  0.00    +0.000 HD
ENDBRANCH  19  20
ENDBRANCH  18  19
ENDBRANCH   1  18
TORSDOF 3
ENDMDL
MODEL 2
REMARK VINA RESULT:      -6.7      1.051      1.051
REMARK  Name = 
REMARK  4 active torsions:
REMARK  status: ('A' for Active; 'I' for Inactive)
REMARK    1  A    between atoms: CB_1  and  CA_2
REMARK    2  A    between atoms: CA_2  and  C_3
REMARK    3  A    between atoms: CA_2  and  N_5
REMARK    4  A    between atoms: C_3  and  O_4
REMARK                            x       y       z     vdW  Elec       q    Type
REMARK                         _______ _______ _______ _____ _____    ______ ____
ROOT
ATOM      1  N   ALA A   1       3.483   3.413  18.765  0.00  0.00    +0.000 N 
ATOM      2  C   UNK A   0       4.624   3.855  18.137  0.00  0.00    +0.000 C 
ATOM      3  N   UNK A   0       5.440   4.678  18.702  0.00  0.00    +0.000 NA
ATOM      4  S   UNK A   0       6.767   5.170  17.916  0.00  0.00    +0.000 S 
ATOM      5  O   UNK A   0       7.899   4.389  18.371  0.00  0.00    +0.000 OA
ATOM      6  O   UNK A   0       6.814   6.622  17.960  0.00  0.00    +0.000 OA
ATOM      7  C   UNK A   0       6.561   4.757  16.216  0.00  0.00    +0.000 A 
ATOM      8  C   UNK A   0       7.403   5.322  15.252  0.00  0.00    +0.000 A 
ATOM      9  C   UNK A   0       7.238   4.947  13.925  0.00  0.00    +0.000 A 
ATOM     10 CL   UNK A   0       8.245   5.625  12.707  0.00  0.00    +0.000 Cl
ATOM     11  C   UNK A   0       6.262   4.016  13.572  0.00  0.00    +0.000 A 
ATOM     12  C   UNK A   0       5.424   3.471  14.553  0.00  0.00    +0.000 A 
ATOM     13  C   UNK A   0       5.547   3.865  15.891  0.00  0.00    +0.000 A 
ATOM     14  N   UNK A   0       4.702   3.340  16.871  0.00  0.00    +0.000 N 
ATOM     15  H   ALA A   1       3.104   2.535  18.421  0.00  0.00    +0.000 HD
ATOM     16  H   UNK A   0       3.897   2.838  16.527  0.00  0.00    +0.000 HD
ENDROOT
BRANCH   1  18
ATOM     17  CB  ALA A   1       1.810   3.654  20.508  0.00  0.00    +0.000 C 
ATOM     18  CA  ALA A   1       3.305   3.499  20.219  0.00  0.00    +0.000 C 
BRANCH  18  19
ATOM     19  C   ALA A   1       3.864   2.217  20.870  0.00  0.00    +0.000 C 
BRANCH  19  20
ATOM     20  O   ALA A   1       5.061   1.791  20.208  0.00  0.00    +0.000 OA
ATOM     21  H   ALA A   1       4.872   0.932  19.792  0.00  0.00    +0.000 HD
ENDBRANCH  19  20
ENDBRANCH  18  19
ENDBRANCH   1  18
TORSDOF 3
ENDMDL
MODEL 3
REMARK VINA RESULT:      -6.7      3.565      6.411
REMARK  Name = 
REMARK  4 active torsions:
REMARK  status: ('A' for Active; 'I' for Inactive)
REMARK    1  A    between atoms: CB_1  and  CA_2
REMARK    2  A    between atoms: CA_2  and  C_3
REMARK    3  A    between atoms: CA_2  and  N_5
REMARK    4  A    between atoms: C_3  and  O_4
REMARK                            x       y       z     vdW  Elec       q    Type
REMARK                         _______ _______ _______ _____ _____    ______ ____
ROOT
ATOM      1  N   ALA A   1       5.859   5.353  14.349  0.00  0.00    +0.000 N 
ATOM      2  C   UNK A   0       5.444   5.260  15.656  0.00  0.00    +0.000 C 
ATOM      3  N   UNK A   0       5.525   4.159  16.323  0.00  0.00    +0.000 NA
ATOM      4  S   UNK A   0       5.017   4.103  17.859  0.00  0.00    +0.000 S 
ATOM      5  O   UNK A   0       6.161   4.232  18.738  0.00  0.00    +0.000 OA
ATOM      6  O   UNK A   0       4.108   2.978  18.000  0.00  0.00    +0.000 OA
ATOM      7  C   UNK A   0       4.036   5.538  18.146  0.00  0.00    +0.000 A 
ATOM      8  C   UNK A   0       3.221   5.613  19.280  0.00  0.00    +0.000 A 
ATOM      9  C   UNK A   0       2.489   6.774  19.497  0.00  0.00    +0.000 A 
ATOM     10 CL   UNK A   0       1.467   6.902  20.874  0.00  0.00    +0.000 Cl
ATOM     11  C   UNK A   0       2.583   7.842  18.605  0.00  0.00    +0.000 A 
ATOM     12  C   UNK A   0       3.398   7.741  17.471  0.00  0.00    +0.000 A 
ATOM     13  C   UNK A   0       4.114   6.564  17.213  0.00  0.00    +0.000 A 
ATOM     14  N   UNK A   0       4.914   6.451  16.075  0.00  0.00    +0.000 N 
ATOM     15  H   ALA A   1       6.090   6.289  14.026  0.00  0.00    +0.000 HD
ATOM     16  H   UNK A   0       4.779   7.166  15.375  0.00  0.00    +0.000 HD
ENDROOT
BRANCH   1  18
ATOM     17  CB  ALA A   1       5.950   3.412  12.893  0.00  0.00    +0.000 C 
ATOM     18  CA  ALA A   1       6.776   4.378  13.746  0.00  0.00    +0.000 C 
BRANCH  18  19
ATOM     19  C   ALA A   1       7.813   5.127  12.886  0.00  0.00    +0.000 C 
BRANCH  19  20
ATOM     20  O   ALA A   1       8.644   5.961  13.703  0.00  0.00    +0.000 OA
ATOM     21  H   ALA A   1       8.855   5.458  14.509  0.00  0.00    +0.000 HD
ENDBRANCH  19  20
ENDBRANCH  18  19
ENDBRANCH   1  18
TORSDOF 3
ENDMDL
MODEL 4
REMARK VINA RESULT:      -6.5      3.714      6.252
REMARK  Name = 
REMARK  4 active torsions:
REMARK  status: ('A' for Active; 'I' for Inactive)
REMARK    1  A    between atoms: CB_1  and  CA_2
REMARK    2  A    between atoms: CA_2  and  C_3
REMARK    3  A    between atoms: CA_2  and  N_5
REMARK    4  A    between atoms: C_3  and  O_4
REMARK                            x       y       z     vdW  Elec       q    Type
REMARK                         _______ _______ _______ _____ _____    ______ ____
ROOT
ATOM      1  N   ALA A   1       5.139   5.317  15.305  0.00  0.00    +0.000 N 
ATOM      2  C   UNK A   0       4.725   5.523  16.600  0.00  0.00    +0.000 C 
ATOM      3  N   UNK A   0       4.830   4.611  17.505  0.00  0.00    +0.000 NA
ATOM      4  S   UNK A   0       4.323   4.905  19.014  0.00  0.00    +0.000 S 
ATOM      5  O   UNK A   0       5.464   5.261  19.833  0.00  0.00    +0.000 OA
ATOM      6  O   UNK A   0       3.440   3.824  19.419  0.00  0.00    +0.000 OA
ATOM      7  C   UNK A   0       3.310   6.346  18.963  0.00  0.00    +0.000 A 
ATOM      8  C   UNK A   0       2.493   6.665  20.052  0.00  0.00    +0.000 A 
ATOM      9  C   UNK A   0       1.735   7.829  19.994  0.00  0.00    +0.000 A 
ATOM     10 CL   UNK A   0       0.710   8.253  21.307  0.00  0.00    +0.000 Cl
ATOM     11  C   UNK A   0       1.805   8.661  18.877  0.00  0.00    +0.000 A 
ATOM     12  C   UNK A   0       2.624   8.315  17.794  0.00  0.00    +0.000 A 
ATOM     13  C   UNK A   0       3.365   7.126  17.815  0.00  0.00    +0.000 A 
ATOM     14  N   UNK A   0       4.168   6.767  16.731  0.00  0.00    +0.000 N 
ATOM     15  H   ALA A   1       5.349   6.157  14.772  0.00  0.00    +0.000 HD
ATOM     16  H   UNK A   0       4.018   7.296  15.884  0.00  0.00    +0.000 HD
ENDROOT
BRANCH   1  18
ATOM     17  CB  ALA A   1       5.865   3.907  13.467  0.00  0.00    +0.000 C 
ATOM     18  CA  ALA A   1       6.078   4.248  14.943  0.00  0.00    +0.000 C 
BRANCH  18  19
ATOM     19  C   ALA A   1       7.518   4.737  15.195  0.00  0.00    +0.000 C 
BRANCH  19  20
ATOM     20  O   ALA A   1       7.918   4.468  16.545  0.00  0.00    +0.000 OA
ATOM     21  H   ALA A   1       7.133   4.590  17.108  0.00  0.00    +0.000 HD
ENDBRANCH  19  20
ENDBRANCH  18  19
ENDBRANCH   1  18
TORSDOF 3
ENDMDL
MODEL 5
REMARK VINA RESULT:      -6.1      3.541      6.243
REMARK  Name = 
REMARK  4 active torsions:
REMARK  status: ('A' for Active; 'I' for Inactive)
REMARK    1  A    between atoms: CB_1  and  CA_2
REMARK    2  A    between atoms: CA_2  and  C_3
REMARK    3  A    between atoms: CA_2  and  N_5
REMARK    4  A    between atoms: C_3  and  O_4
REMARK                            x       y       z     vdW  Elec       q    Type
REMARK                         _______ _______ _______ _____ _____    ______ ____
ROOT
ATOM      1  N   ALA A   1       5.433   3.970  15.244  0.00  0.00    +0.000 N 
ATOM      2  C   UNK A   0       4.804   4.258  16.433  0.00  0.00    +0.000 C 
ATOM      3  N   UNK A   0       5.237   5.172  17.232  0.00  0.00    +0.000 NA
ATOM      4  S   UNK A   0       4.460   5.468  18.621  0.00  0.00    +0.000 S 
ATOM      5  O   UNK A   0       3.599   6.619  18.443  0.00  0.00    +0.000 OA
ATOM      6  O   UNK A   0       5.429   5.439  19.704  0.00  0.00    +0.000 OA
ATOM      7  C   UNK A   0       3.378   4.111  18.923  0.00  0.00    +0.000 A 
ATOM      8  C   UNK A   0       2.804   3.941  20.187  0.00  0.00    +0.000 A 
ATOM      9  C   UNK A   0       1.926   2.882  20.382  0.00  0.00    +0.000 A 
ATOM     10 CL   UNK A   0       1.207   2.633  21.924  0.00  0.00    +0.000 Cl
ATOM     11  C   UNK A   0       1.617   2.021  19.329  0.00  0.00    +0.000 A 
ATOM     12  C   UNK A   0       2.212   2.204  18.074  0.00  0.00    +0.000 A 
ATOM     13  C   UNK A   0       3.130   3.241  17.868  0.00  0.00    +0.000 A 
ATOM     14  N   UNK A   0       3.740   3.418  16.624  0.00  0.00    +0.000 N 
ATOM     15  H   ALA A   1       4.857   3.518  14.540  0.00  0.00    +0.000 HD
ATOM     16  H   UNK A   0       3.635   2.652  15.976  0.00  0.00    +0.000 HD
ENDROOT
BRANCH   1  18
ATOM     17  CB  ALA A   1       7.598   5.041  15.497  0.00  0.00    +0.000 C 
ATOM     18  CA  ALA A   1       6.363   4.908  14.603  0.00  0.00    +0.000 C 
BRANCH  18  19
ATOM     19  C   ALA A   1       6.745   4.364  13.211  0.00  0.00    +0.000 C 
BRANCH  19  20
ATOM     20  O   ALA A   1       6.214   3.047  13.017  0.00  0.00    +0.000 OA
ATOM     21  H   ALA A   1       5.852   2.753  13.871  0.00  0.00    +0.000 HD
ENDBRANCH  19  20
ENDBRANCH  18  19
ENDBRANCH   1  18
TORSDOF 3
ENDMDL
MODEL 6
REMARK VINA RESULT:      -6.1      3.368      6.176
REMARK  Name = 
REMARK  4 active torsions:
REMARK  status: ('A' for Active; 'I' for Inactive)
REMARK    1  A    between atoms: CB_1  and  CA_2
REMARK    2  A    between atoms: CA_2  and  C_3
REMARK    3  A    between atoms: CA_2  and  N_5
REMARK    4  A    between atoms: C_3  and  O_4
REMARK                            x       y       z     vdW  Elec       q    Type
REMARK                         _______ _______ _______ _____ _____    ______ ____
ROOT
ATOM      1  N   ALA A   1       5.328   3.557  15.380  0.00  0.00    +0.000 N 
ATOM      2  C   UNK A   0       4.855   3.849  16.638  0.00  0.00    +0.000 C 
ATOM      3  N   UNK A   0       5.575   4.464  17.513  0.00  0.00    +0.000 NA
ATOM      4  S   UNK A   0       4.970   4.780  18.981  0.00  0.00    +0.000 S 
ATOM      5  O   UNK A   0       4.505   6.152  19.014  0.00  0.00    +0.000 OA
ATOM      6  O   UNK A   0       5.915   4.304  19.978  0.00  0.00    +0.000 OA
ATOM      7  C   UNK A   0       3.529   3.787  19.187  0.00  0.00    +0.000 A 
ATOM      8  C   UNK A   0       2.970   3.621  20.458  0.00  0.00    +0.000 A 
ATOM      9  C   UNK A   0       1.812   2.863  20.580  0.00  0.00    +0.000 A 
ATOM     10 CL   UNK A   0       1.098   2.626  22.126  0.00  0.00    +0.000 Cl
ATOM     11  C   UNK A   0       1.219   2.295  19.452  0.00  0.00    +0.000 A 
ATOM     12  C   UNK A   0       1.803   2.467  18.191  0.00  0.00    +0.000 A 
ATOM     13  C   UNK A   0       2.992   3.195  18.051  0.00  0.00    +0.000 A 
ATOM     14  N   UNK A   0       3.589   3.354  16.799  0.00  0.00    +0.000 N 
ATOM     15  H   ALA A   1       4.619   3.406  14.668  0.00  0.00    +0.000 HD
ATOM     16  H   UNK A   0       3.231   2.757  16.068  0.00  0.00    +0.000 HD
ENDROOT
BRANCH   1  18
ATOM     17  CB  ALA A   1       6.503   3.961  13.294  0.00  0.00    +0.000 C 
ATOM     18  CA  ALA A   1       6.483   4.249  14.797  0.00  0.00    +0.000 C 
BRANCH  18  19
ATOM     19  C   ALA A   1       6.352   5.761  15.068  0.00  0.00    +0.000 C 
BRANCH  19  20
ATOM     20  O   ALA A   1       7.388   6.212  15.949  0.00  0.00    +0.000 OA
ATOM     21  H   ALA A   1       8.079   6.620  15.398  0.00  0.00    +0.000 HD
ENDBRANCH  19  20
ENDBRANCH  18  19
ENDBRANCH   1  18
TORSDOF 3
ENDMDL
MODEL 7
REMARK VINA RESULT:      -5.9      3.695      4.743
REMARK  Name = 
REMARK  4 active torsions:
REMARK  status: ('A' for Active; 'I' for Inactive)
REMARK    1  A    between atoms: CB_1  and  CA_2
REMARK    2  A    between atoms: CA_2  and  C_3
REMARK    3  A    between atoms: CA_2  and  N_5
REMARK    4  A    between atoms: C_3  and  O_4
REMARK                            x       y       z     vdW  Elec       q    Type
REMARK                         _______ _______ _______ _____ _____    ______ ____
ROOT
ATOM      1  N   ALA A   1       1.849   8.494  20.034  0.00  0.00    +0.000 N 
ATOM      2  C   UNK A   0       2.221   7.322  19.416  0.00  0.00    +0.000 C 
ATOM      3  N   UNK A   0       1.992   6.169  19.944  0.00  0.00    +0.000 NA
ATOM      4  S   UNK A   0       2.455   4.821  19.176  0.00  0.00    +0.000 S 
ATOM      5  O   UNK A   0       1.316   4.262  18.478  0.00  0.00    +0.000 OA
ATOM      6  O   UNK A   0       3.218   4.003  20.105  0.00  0.00    +0.000 OA
ATOM      7  C   UNK A   0       3.596   5.292  17.919  0.00  0.00    +0.000 A 
ATOM      8  C   UNK A   0       4.389   4.323  17.295  0.00  0.00    +0.000 A 
ATOM      9  C   UNK A   0       5.251   4.722  16.281  0.00  0.00    +0.000 A 
ATOM     10 CL   UNK A   0       6.250   3.564  15.496  0.00  0.00    +0.000 Cl
ATOM     11  C   UNK A   0       5.308   6.060  15.891  0.00  0.00    +0.000 A 
ATOM     12  C   UNK A   0       4.511   7.014  16.536  0.00  0.00    +0.000 A 
ATOM     13  C   UNK A   0       3.664   6.639  17.587  0.00  0.00    +0.000 A 
ATOM     14  N   UNK A   0       2.882   7.589  18.247  0.00  0.00    +0.000 N 
ATOM     15  H   ALA A   1       1.741   9.298  19.422  0.00  0.00    +0.000 HD
ATOM     16  H   UNK A   0       3.118   8.552  18.060  0.00  0.00    +0.000 HD
ENDROOT
BRANCH   1  18
ATOM     17  CB  ALA A   1       1.503   9.038  22.375  0.00  0.00    +0.000 C 
ATOM     18  CA  ALA A   1       0.835   8.533  21.094  0.00  0.00    +0.000 C 
BRANCH  18  19
ATOM     19  C   ALA A   1      -0.310   9.471  20.661  0.00  0.00    +0.000 C 
BRANCH  19  20
ATOM     20  O   ALA A   1      -0.071   9.990  19.346  0.00  0.00    +0.000 OA
ATOM     21  H   ALA A   1       0.837  10.340  19.334  0.00  0.00    +0.000 HD
ENDBRANCH  19  20
ENDBRANCH  18  19
ENDBRANCH   1  18
TORSDOF 3
ENDMDL
MODEL 8
REMARK VINA RESULT:      -5.9      6.402      8.746
REMARK  Name = 
REMARK  4 active torsions:
REMARK  status: ('A' for Active; 'I' for Inactive)
REMARK    1  A    between atoms: CB_1  and  CA_2
REMARK    2  A    between atoms: CA_2  and  C_3
REMARK    3  A    between atoms: CA_2  and  N_5
REMARK    4  A    between atoms: C_3  and  O_4
REMARK                            x       y       z     vdW  Elec       q    Type
REMARK                         _______ _______ _______ _____ _____    ______ ____
ROOT
ATOM      1  N   ALA A   1       2.521   6.731  20.077  0.00  0.00    +0.000 N 
ATOM      2  C   UNK A   0       1.746   7.865  20.009  0.00  0.00    +0.000 C 
ATOM      3  N   UNK A   0       1.825   8.689  19.021  0.00  0.00    +0.000 NA
ATOM      4  S   UNK A   0       0.892  10.012  18.992  0.00  0.00    +0.000 S 
ATOM      5  O   UNK A   0      -0.257   9.759  18.146  0.00  0.00    +0.000 OA
ATOM      6  O   UNK A   0       1.740  11.166  18.749  0.00  0.00    +0.000 OA
ATOM      7  C   UNK A   0       0.243  10.238  20.615  0.00  0.00    +0.000 A 
ATOM      8  C   UNK A   0      -0.348  11.455  20.968  0.00  0.00    +0.000 A 
ATOM      9  C   UNK A   0      -0.884  11.588  22.243  0.00  0.00    +0.000 A 
ATOM     10 CL   UNK A   0      -1.611  13.072  22.721  0.00  0.00    +0.000 Cl
ATOM     11  C   UNK A   0      -0.841  10.521  23.140  0.00  0.00    +0.000 A 
ATOM     12  C   UNK A   0      -0.234   9.315  22.767  0.00  0.00    +0.000 A 
ATOM     13  C   UNK A   0       0.347   9.173  21.501  0.00  0.00    +0.000 A 
ATOM     14  N   UNK A   0       0.969   7.979  21.130  0.00  0.00    +0.000 N 
ATOM     15  H   ALA A   1       2.161   5.987  20.668  0.00  0.00    +0.000 HD
ATOM     16  H   UNK A   0       1.146   7.330  21.882  0.00  0.00    +0.000 HD
ENDROOT
BRANCH   1  18
ATOM     17  CB  ALA A   1       4.447   5.441  19.354  0.00  0.00    +0.000 C 
ATOM     18  CA  ALA A   1       3.175   6.157  18.895  0.00  0.00    +0.000 C 
BRANCH  18  19
ATOM     19  C   ALA A   1       2.204   5.173  18.211  0.00  0.00    +0.000 C 
BRANCH  19  20
ATOM     20  O   ALA A   1       2.921   4.224  17.412  0.00  0.00    +0.000 OA
ATOM     21  H   ALA A   1       2.270   3.593  17.059  0.00  0.00    +0.000 HD
ENDBRANCH  19  20
ENDBRANCH  18  19
ENDBRANCH   1  18
TORSDOF 3
ENDMDL
MODEL 9
REMARK VINA RESULT:      -5.8      5.408      7.638
REMARK  Name = 
REMARK  4 active torsions:
REMARK  status: ('A' for Active; 'I' for Inactive)
REMARK    1  A    between atoms: CB_1  and  CA_2
REMARK    2  A    between atoms: CA_2  and  C_3
REMARK    3  A    between atoms: CA_2  and  N_5
REMARK    4  A    between atoms: C_3  and  O_4
REMARK                            x       y       z     vdW  Elec       q    Type
REMARK                         _______ _______ _______ _____ _____    ______ ____
ROOT
ATOM      1  N   ALA A   1       3.410   5.924  19.838  0.00  0.00    +0.000 N 
ATOM      2  C   UNK A   0       2.613   7.012  19.568  0.00  0.00    +0.000 C 
ATOM      3  N   UNK A   0       2.671   7.640  18.444  0.00  0.00    +0.000 NA
ATOM      4  S   UNK A   0       1.712   8.918  18.179  0.00  0.00    +0.000 S 
ATOM      5  O   UNK A   0       0.564   8.492  17.405  0.00  0.00    +0.000 OA
ATOM      6  O   UNK A   0       2.537  10.023  17.720  0.00  0.00    +0.000 OA
ATOM      7  C   UNK A   0       1.067   9.429  19.737  0.00  0.00    +0.000 A 
ATOM      8  C   UNK A   0       0.454  10.679  19.864  0.00  0.00    +0.000 A 
ATOM      9  C   UNK A   0      -0.077  11.036  21.098  0.00  0.00    +0.000 A 
ATOM     10 CL   UNK A   0      -0.831  12.569  21.299  0.00  0.00    +0.000 Cl
ATOM     11  C   UNK A   0      -0.009  10.154  22.176  0.00  0.00    +0.000 A 
ATOM     12  C   UNK A   0       0.619   8.911  22.028  0.00  0.00    +0.000 A 
ATOM     13  C   UNK A   0       1.196   8.548  20.804  0.00  0.00    +0.000 A 
ATOM     14  N   UNK A   0       1.840   7.318  20.655  0.00  0.00    +0.000 N 
ATOM     15  H   ALA A   1       3.068   5.297  20.559  0.00  0.00    +0.000 HD
ATOM     16  H   UNK A   0       2.034   6.822  21.513  0.00  0.00    +0.000 HD
ENDROOT
BRANCH   1  18
ATOM     17  CB  ALA A   1       5.555   5.522  18.772  0.00  0.00    +0.000 C 
ATOM     18  CA  ALA A   1       4.070   5.154  18.777  0.00  0.00    +0.000 C 
BRANCH  18  19
ATOM     19  C   ALA A   1       3.874   3.649  19.053  0.00  0.00    +0.000 C 
BRANCH  19  20
ATOM     20  O   ALA A   1       5.126   3.022  19.361  0.00  0.00    +0.000 OA
ATOM     21  H   ALA A   1       5.786   3.730  19.460  0.00  0.00    +0.000 HD
ENDBRANCH  19  20
ENDBRANCH  18  19
ENDBRANCH   1  18
TORSDOF 3
ENDMDL
