MODEL 1
REMARK VINA RESULT:      -8.5      0.000      0.000
REMARK  Name = 
REMARK  3 active torsions:
REMARK  status: ('A' for Active; 'I' for Inactive)
REMARK    1  A    between atoms: S_2  and  N_4
REMARK    2  A    between atoms: S_2  and  C_12
REMARK    3  A    between atoms: N_4  and  C_5
REMARK                            x       y       z     vdW  Elec       q    Type
REMARK                         _______ _______ _______ _____ _____    ______ ____
ROOT
ATOM      1  C   UNL     1       4.557   6.502  17.631  0.00  0.00    +0.000 A 
ATOM      2  C   UNL     1       4.665   5.471  18.565  0.00  0.00    +0.000 A 
ATOM      3  C   UNL     1       3.768   5.389  19.637  0.00  0.00    +0.000 A 
ATOM      4  C   UNL     1       2.777   6.373  19.728  0.00  0.00    +0.000 A 
ATOM      5  N   UNL     1       1.785   6.548  20.663  0.00  0.00    +0.000 N 
ATOM      6  C   UNL     1       1.084   7.703  20.416  0.00  0.00    +0.000 A 
ATOM      7  C   UNL     1       1.544   8.232  19.217  0.00  0.00    +0.000 A 
ATOM      8  C   UNL     1       2.644   7.406  18.804  0.00  0.00    +0.000 A 
ATOM      9  C   UNL     1       3.548   7.468  17.726  0.00  0.00    +0.000 A 
ATOM     10  C   UNL     1       1.109   9.467  18.472  0.00  0.00    +0.000 C 
ATOM     11  C   UNL     1      -0.035  10.287  19.063  0.00  0.00    +0.000 C 
ATOM     12  C   UNL     1       0.316  11.154  20.279  0.00  0.00    +0.000 C 
ATOM     13  C   UNL     1       1.218  10.552  21.357  0.00  0.00    +0.000 C 
ATOM     14  C   UNL     1       0.610   9.410  22.180  0.00  0.00    +0.000 C 
ATOM     15  C   UNL     1       0.082   8.205  21.401  0.00  0.00    +0.000 C 
ATOM     16  H   UNL     1       1.640   5.942  21.458  0.00  0.00    +0.000 HD
ENDROOT
BRANCH   1  18
ATOM     17  O   UNL     1       6.930   7.040  16.637  0.00  0.00    +0.000 OA
ATOM     18  S   UNL     1       5.641   6.538  16.223  0.00  0.00    +0.000 S 
ATOM     19  O   UNL     1       4.914   7.162  15.134  0.00  0.00    +0.000 OA
BRANCH  18  20
ATOM     20  N   UNL     1       5.781   4.905  15.790  0.00  0.00    +0.000 N 
ATOM     21  H   UNL     1       4.982   4.389  16.159  0.00  0.00    +0.000 HD
BRANCH  20  22
ATOM     22  C   UNL     1       6.184   4.604  14.460  0.00  0.00    +0.000 A 
ATOM     23  C   UNL     1       7.394   5.099  13.968  0.00  0.00    +0.000 A 
ATOM     24  C   UNL     1       7.806   4.775  12.674  0.00  0.00    +0.000 A 
ATOM     25  C   UNL     1       7.012   3.947  11.879  0.00  0.00    +0.000 A 
ATOM     26  C   UNL     1       5.813   3.445  12.383  0.00  0.00    +0.000 A 
ATOM     27 CL   UNL     1       4.843   2.412  11.407  0.00  0.00    +0.000 Cl
ATOM     28  C   UNL     1       5.394   3.769  13.673  0.00  0.00    +0.000 A 
ENDBRANCH  20  22
ENDBRANCH  18  20
ENDBRANCH   1  18
TORSDOF 3
ENDMDL
MODEL 2
REMARK VINA RESULT:      -8.0      5.120      8.493
REMARK  Name = 
REMARK  3 active torsions:
REMARK  status: ('A' for Active; 'I' for Inactive)
REMARK    1  A    between atoms: S_2  and  N_4
REMARK    2  A    between atoms: S_2  and  C_12
REMARK    3  A    between atoms: N_4  and  C_5
REMARK                            x       y       z     vdW  Elec       q    Type
REMARK                         _______ _______ _______ _____ _____    ______ ____
ROOT
ATOM      1  C   UNL     1       0.782  10.250  19.998  0.00  0.00    +0.000 A 
ATOM      2  C   UNL     1       0.154   9.893  21.192  0.00  0.00    +0.000 A 
ATOM      3  C   UNL     1       0.314   8.607  21.720  0.00  0.00    +0.000 A 
ATOM      4  C   UNL     1       1.119   7.711  21.008  0.00  0.00    +0.000 A 
ATOM      5  N   UNL     1       1.440   6.402  21.278  0.00  0.00    +0.000 N 
ATOM      6  C   UNL     1       2.192   5.868  20.260  0.00  0.00    +0.000 A 
ATOM      7  C   UNL     1       2.478   6.887  19.362  0.00  0.00    +0.000 A 
ATOM      8  C   UNL     1       1.763   8.045  19.821  0.00  0.00    +0.000 A 
ATOM      9  C   UNL     1       1.600   9.347  19.307  0.00  0.00    +0.000 A 
ATOM     10  C   UNL     1       3.281   6.860  18.087  0.00  0.00    +0.000 C 
ATOM     11  C   UNL     1       3.936   5.540  17.688  0.00  0.00    +0.000 C 
ATOM     12  C   UNL     1       2.998   4.472  17.110  0.00  0.00    +0.000 C 
ATOM     13  C   UNL     1       1.638   4.269  17.778  0.00  0.00    +0.000 C 
ATOM     14  C   UNL     1       1.665   3.671  19.189  0.00  0.00    +0.000 C 
ATOM     15  C   UNL     1       2.503   4.409  20.234  0.00  0.00    +0.000 C 
ATOM     16  H   UNL     1       1.110   5.890  22.083  0.00  0.00    +0.000 HD
ENDROOT
BRANCH   1  18
ATOM     17  O   UNL     1       1.976  12.438  19.164  0.00  0.00    +0.000 OA
ATOM     18  S   UNL     1       0.649  11.915  19.390  0.00  0.00    +0.000 S 
ATOM     19  O   UNL     1      -0.291  12.613  20.244  0.00  0.00    +0.000 OA
BRANCH  18  20
ATOM     20  N   UNL     1      -0.147  11.730  17.905  0.00  0.00    +0.000 N 
ATOM     21  H   UNL     1       0.482  11.282  17.238  0.00  0.00    +0.000 HD
BRANCH  20  22
ATOM     22  C   UNL     1      -1.494  11.275  17.926  0.00  0.00    +0.000 A 
ATOM     23  C   UNL     1      -1.816  10.023  17.396  0.00  0.00    +0.000 A 
ATOM     24  C   UNL     1      -3.132   9.560  17.449  0.00  0.00    +0.000 A 
ATOM     25  C   UNL     1      -4.121  10.347  18.040  0.00  0.00    +0.000 A 
ATOM     26  C   UNL     1      -3.789  11.589  18.579  0.00  0.00    +0.000 A 
ATOM     27 CL   UNL     1      -5.007  12.551  19.321  0.00  0.00    +0.000 Cl
ATOM     28  C   UNL     1      -2.477  12.058  18.526  0.00  0.00    +0.000 A 
ENDBRANCH  20  22
ENDBRANCH  18  20
ENDBRANCH   1  18
TORSDOF 3
ENDMDL
MODEL 3
REMARK VINA RESULT:      -7.9      4.722      8.362
REMARK  Name = 
REMARK  3 active torsions:
REMARK  status: ('A' for Active; 'I' for Inactive)
REMARK    1  A    between atoms: S_2  and  N_4
REMARK    2  A    between atoms: S_2  and  C_12
REMARK    3  A    between atoms: N_4  and  C_5
REMARK                            x       y       z     vdW  Elec       q    Type
REMARK                         _______ _______ _______ _____ _____    ______ ____
ROOT
ATOM      1  C   UNL     1       0.908   9.419  19.940  0.00  0.00    +0.000 A 
ATOM      2  C   UNL     1       0.404   8.912  21.140  0.00  0.00    +0.000 A 
ATOM      3  C   UNL     1       0.784   7.641  21.586  0.00  0.00    +0.000 A 
ATOM      4  C   UNL     1       1.675   6.914  20.788  0.00  0.00    +0.000 A 
ATOM      5  N   UNL     1       2.203   5.659  20.968  0.00  0.00    +0.000 N 
ATOM      6  C   UNL     1       2.971   5.296  19.888  0.00  0.00    +0.000 A 
ATOM      7  C   UNL     1       3.053   6.391  19.038  0.00  0.00    +0.000 A 
ATOM      8  C   UNL     1       2.198   7.401  19.594  0.00  0.00    +0.000 A 
ATOM      9  C   UNL     1       1.814   8.687  19.163  0.00  0.00    +0.000 A 
ATOM     10  C   UNL     1       3.783   6.549  17.730  0.00  0.00    +0.000 C 
ATOM     11  C   UNL     1       4.606   5.366  17.227  0.00  0.00    +0.000 C 
ATOM     12  C   UNL     1       3.810   4.198  16.632  0.00  0.00    +0.000 C 
ATOM     13  C   UNL     1       2.533   3.756  17.347  0.00  0.00    +0.000 C 
ATOM     14  C   UNL     1       2.725   3.100  18.719  0.00  0.00    +0.000 C 
ATOM     15  C   UNL     1       3.496   3.905  19.766  0.00  0.00    +0.000 C 
ATOM     16  H   UNL     1       1.996   5.063  21.757  0.00  0.00    +0.000 HD
ENDROOT
BRANCH   1  18
ATOM     17  O   UNL     1       0.831  11.232  18.040  0.00  0.00    +0.000 OA
ATOM     18  S   UNL     1       0.494  11.072  19.435  0.00  0.00    +0.000 S 
ATOM     19  O   UNL     1       1.023  11.976  20.437  0.00  0.00    +0.000 OA
BRANCH  18  20
ATOM     20  N   UNL     1      -1.190  11.132  19.620  0.00  0.00    +0.000 N 
ATOM     21  H   UNL     1      -1.434  11.913  20.229  0.00  0.00    +0.000 HD
BRANCH  20  22
ATOM     22  C   UNL     1      -1.992  10.943  18.462  0.00  0.00    +0.000 A 
ATOM     23  C   UNL     1      -1.614  10.007  17.496  0.00  0.00    +0.000 A 
ATOM     24  C   UNL     1      -2.420   9.796  16.375  0.00  0.00    +0.000 A 
ATOM     25  C   UNL     1      -3.607  10.514  16.229  0.00  0.00    +0.000 A 
ATOM     26  C   UNL     1      -3.985  11.436  17.204  0.00  0.00    +0.000 A 
ATOM     27 CL   UNL     1      -5.457  12.309  17.029  0.00  0.00    +0.000 Cl
ATOM     28  C   UNL     1      -3.182  11.654  18.323  0.00  0.00    +0.000 A 
ENDBRANCH  20  22
ENDBRANCH  18  20
ENDBRANCH   1  18
TORSDOF 3
ENDMDL
MODEL 4
REMARK VINA RESULT:      -7.9      3.329      8.588
REMARK  Name = 
REMARK  3 active torsions:
REMARK  status: ('A' for Active; 'I' for Inactive)
REMARK    1  A    between atoms: S_2  and  N_4
REMARK    2  A    between atoms: S_2  and  C_12
REMARK    3  A    between atoms: N_4  and  C_5
REMARK                            x       y       z     vdW  Elec       q    Type
REMARK                         _______ _______ _______ _____ _____    ______ ____
ROOT
ATOM      1  C   UNL     1       4.993   4.283  17.593  0.00  0.00    +0.000 A 
ATOM      2  C   UNL     1       6.262   4.771  17.910  0.00  0.00    +0.000 A 
ATOM      3  C   UNL     1       7.194   5.030  16.900  0.00  0.00    +0.000 A 
ATOM      4  C   UNL     1       6.804   4.781  15.579  0.00  0.00    +0.000 A 
ATOM      5  N   UNL     1       7.503   4.931  14.406  0.00  0.00    +0.000 N 
ATOM      6  C   UNL     1       6.761   4.482  13.339  0.00  0.00    +0.000 A 
ATOM      7  C   UNL     1       5.498   4.149  13.809  0.00  0.00    +0.000 A 
ATOM      8  C   UNL     1       5.542   4.304  15.236  0.00  0.00    +0.000 A 
ATOM      9  C   UNL     1       4.611   4.057  16.264  0.00  0.00    +0.000 A 
ATOM     10  C   UNL     1       4.294   3.629  13.068  0.00  0.00    +0.000 C 
ATOM     11  C   UNL     1       4.411   3.454  11.556  0.00  0.00    +0.000 C 
ATOM     12  C   UNL     1       5.218   2.238  11.081  0.00  0.00    +0.000 C 
ATOM     13  C   UNL     1       6.522   1.909  11.808  0.00  0.00    +0.000 C 
ATOM     14  C   UNL     1       7.667   2.910  11.619  0.00  0.00    +0.000 C 
ATOM     15  C   UNL     1       7.377   4.366  11.985  0.00  0.00    +0.000 C 
ATOM     16  H   UNL     1       8.455   5.263  14.349  0.00  0.00    +0.000 HD
ENDROOT
BRANCH   1  18
ATOM     17  O   UNL     1       4.177   2.921  19.687  0.00  0.00    +0.000 OA
ATOM     18  S   UNL     1       3.786   4.050  18.877  0.00  0.00    +0.000 S 
ATOM     19  O   UNL     1       2.478   4.102  18.255  0.00  0.00    +0.000 OA
BRANCH  18  20
ATOM     20  N   UNL     1       3.904   5.472  19.792  0.00  0.00    +0.000 N 
ATOM     21  H   UNL     1       4.878   5.626  20.051  0.00  0.00    +0.000 HD
BRANCH  20  22
ATOM     22  C   UNL     1       3.166   6.606  19.353  0.00  0.00    +0.000 A 
ATOM     23  C   UNL     1       3.353   7.103  18.061  0.00  0.00    +0.000 A 
ATOM     24  C   UNL     1       2.604   8.195  17.618  0.00  0.00    +0.000 A 
ATOM     25  C   UNL     1       1.663   8.781  18.465  0.00  0.00    +0.000 A 
ATOM     26  C   UNL     1       1.472   8.270  19.749  0.00  0.00    +0.000 A 
ATOM     27 CL   UNL     1       0.301   8.984  20.786  0.00  0.00    +0.000 Cl
ATOM     28  C   UNL     1       2.220   7.183  20.198  0.00  0.00    +0.000 A 
ENDBRANCH  20  22
ENDBRANCH  18  20
ENDBRANCH   1  18
TORSDOF 3
ENDMDL
MODEL 5
REMARK VINA RESULT:      -7.9      3.060      8.641
REMARK  Name = 
REMARK  3 active torsions:
REMARK  status: ('A' for Active; 'I' for Inactive)
REMARK    1  A    between atoms: S_2  and  N_4
REMARK    2  A    between atoms: S_2  and  C_12
REMARK    3  A    between atoms: N_4  and  C_5
REMARK                            x       y       z     vdW  Elec       q    Type
REMARK                         _______ _______ _______ _____ _____    ______ ____
ROOT
ATOM      1  C   UNL     1       5.400   4.256  17.620  0.00  0.00    +0.000 A 
ATOM      2  C   UNL     1       6.654   4.829  17.837  0.00  0.00    +0.000 A 
ATOM      3  C   UNL     1       7.486   5.143  16.756  0.00  0.00    +0.000 A 
ATOM      4  C   UNL     1       7.012   4.859  15.470  0.00  0.00    +0.000 A 
ATOM      5  N   UNL     1       7.606   5.047  14.246  0.00  0.00    +0.000 N 
ATOM      6  C   UNL     1       6.816   4.542  13.242  0.00  0.00    +0.000 A 
ATOM      7  C   UNL     1       5.619   4.128  13.809  0.00  0.00    +0.000 A 
ATOM      8  C   UNL     1       5.762   4.297  15.228  0.00  0.00    +0.000 A 
ATOM      9  C   UNL     1       4.932   3.996  16.326  0.00  0.00    +0.000 A 
ATOM     10  C   UNL     1       4.398   3.524  13.164  0.00  0.00    +0.000 C 
ATOM     11  C   UNL     1       4.409   3.346  11.649  0.00  0.00    +0.000 C 
ATOM     12  C   UNL     1       5.256   2.184  11.114  0.00  0.00    +0.000 C 
ATOM     13  C   UNL     1       6.632   1.947  11.739  0.00  0.00    +0.000 C 
ATOM     14  C   UNL     1       7.689   3.021  11.459  0.00  0.00    +0.000 C 
ATOM     15  C   UNL     1       7.332   4.458  11.844  0.00  0.00    +0.000 C 
ATOM     16  H   UNL     1       8.526   5.441  14.115  0.00  0.00    +0.000 HD
ENDROOT
BRANCH   1  18
ATOM     17  O   UNL     1       4.769   4.723  20.127  0.00  0.00    +0.000 OA
ATOM     18  S   UNL     1       4.314   3.952  18.994  0.00  0.00    +0.000 S 
ATOM     19  O   UNL     1       4.134   2.517  19.094  0.00  0.00    +0.000 OA
BRANCH  18  20
ATOM     20  N   UNL     1       2.823   4.555  18.461  0.00  0.00    +0.000 N 
ATOM     21  H   UNL     1       2.142   3.796  18.435  0.00  0.00    +0.000 HD
BRANCH  20  22
ATOM     22  C   UNL     1       2.381   5.799  18.992  0.00  0.00    +0.000 A 
ATOM     23  C   UNL     1       1.905   5.868  20.303  0.00  0.00    +0.000 A 
ATOM     24  C   UNL     1       1.504   7.095  20.837  0.00  0.00    +0.000 A 
ATOM     25  C   UNL     1       1.591   8.250  20.060  0.00  0.00    +0.000 A 
ATOM     26  C   UNL     1       2.081   8.175  18.756  0.00  0.00    +0.000 A 
ATOM     27 CL   UNL     1       2.201   9.604  17.806  0.00  0.00    +0.000 Cl
ATOM     28  C   UNL     1       2.478   6.952  18.217  0.00  0.00    +0.000 A 
ENDBRANCH  20  22
ENDBRANCH  18  20
ENDBRANCH   1  18
TORSDOF 3
ENDMDL
MODEL 6
REMARK VINA RESULT:      -7.7      4.905      8.453
REMARK  Name = 
REMARK  3 active torsions:
REMARK  status: ('A' for Active; 'I' for Inactive)
REMARK    1  A    between atoms: S_2  and  N_4
REMARK    2  A    between atoms: S_2  and  C_12
REMARK    3  A    between atoms: N_4  and  C_5
REMARK                            x       y       z     vdW  Elec       q    Type
REMARK                         _______ _______ _______ _____ _____    ______ ____
ROOT
ATOM      1  C   UNL     1       1.480   8.650  19.909  0.00  0.00    +0.000 A 
ATOM      2  C   UNL     1       2.098   8.985  18.702  0.00  0.00    +0.000 A 
ATOM      3  C   UNL     1       2.624   7.986  17.875  0.00  0.00    +0.000 A 
ATOM      4  C   UNL     1       2.507   6.660  18.306  0.00  0.00    +0.000 A 
ATOM      5  N   UNL     1       2.935   5.496  17.715  0.00  0.00    +0.000 N 
ATOM      6  C   UNL     1       2.688   4.419  18.532  0.00  0.00    +0.000 A 
ATOM      7  C   UNL     1       1.968   4.872  19.628  0.00  0.00    +0.000 A 
ATOM      8  C   UNL     1       1.889   6.300  19.500  0.00  0.00    +0.000 A 
ATOM      9  C   UNL     1       1.354   7.316  20.317  0.00  0.00    +0.000 A 
ATOM     10  C   UNL     1       1.422   4.114  20.811  0.00  0.00    +0.000 C 
ATOM     11  C   UNL     1       1.635   2.603  20.846  0.00  0.00    +0.000 C 
ATOM     12  C   UNL     1       3.050   2.132  21.207  0.00  0.00    +0.000 C 
ATOM     13  C   UNL     1       4.236   2.873  20.590  0.00  0.00    +0.000 C 
ATOM     14  C   UNL     1       4.422   2.702  19.078  0.00  0.00    +0.000 C 
ATOM     15  C   UNL     1       3.232   3.072  18.191  0.00  0.00    +0.000 C 
ATOM     16  H   UNL     1       3.422   5.452  16.832  0.00  0.00    +0.000 HD
ENDROOT
BRANCH   1  18
ATOM     17  O   UNL     1       1.696  10.390  21.866  0.00  0.00    +0.000 OA
ATOM     18  S   UNL     1       0.730   9.919  20.902  0.00  0.00    +0.000 S 
ATOM     19  O   UNL     1      -0.566   9.425  21.327  0.00  0.00    +0.000 OA
BRANCH  18  20
ATOM     20  N   UNL     1       0.397  11.149  19.785  0.00  0.00    +0.000 N 
ATOM     21  H   UNL     1       1.173  11.227  19.128  0.00  0.00    +0.000 HD
BRANCH  20  22
ATOM     22  C   UNL     1      -0.916  11.216  19.243  0.00  0.00    +0.000 A 
ATOM     23  C   UNL     1      -1.875  12.043  19.834  0.00  0.00    +0.000 A 
ATOM     24  C   UNL     1      -3.154  12.135  19.281  0.00  0.00    +0.000 A 
ATOM     25  C   UNL     1      -3.467  11.407  18.133  0.00  0.00    +0.000 A 
ATOM     26  C   UNL     1      -2.501  10.594  17.541  0.00  0.00    +0.000 A 
ATOM     27 CL   UNL     1      -2.885   9.710  16.116  0.00  0.00    +0.000 Cl
ATOM     28  C   UNL     1      -1.223  10.496  18.091  0.00  0.00    +0.000 A 
ENDBRANCH  20  22
ENDBRANCH  18  20
ENDBRANCH   1  18
TORSDOF 3
ENDMDL
MODEL 7
REMARK VINA RESULT:      -7.7      5.346      8.548
REMARK  Name = 
REMARK  3 active torsions:
REMARK  status: ('A' for Active; 'I' for Inactive)
REMARK    1  A    between atoms: S_2  and  N_4
REMARK    2  A    between atoms: S_2  and  C_12
REMARK    3  A    between atoms: N_4  and  C_5
REMARK                            x       y       z     vdW  Elec       q    Type
REMARK                         _______ _______ _______ _____ _____    ______ ____
ROOT
ATOM      1  C   UNL     1       1.438   8.868  19.631  0.00  0.00    +0.000 A 
ATOM      2  C   UNL     1       2.199   9.167  18.499  0.00  0.00    +0.000 A 
ATOM      3  C   UNL     1       2.801   8.142  17.761  0.00  0.00    +0.000 A 
ATOM      4  C   UNL     1       2.609   6.827  18.202  0.00  0.00    +0.000 A 
ATOM      5  N   UNL     1       3.082   5.643  17.689  0.00  0.00    +0.000 N 
ATOM      6  C   UNL     1       2.722   4.589  18.493  0.00  0.00    +0.000 A 
ATOM      7  C   UNL     1       1.886   5.078  19.487  0.00  0.00    +0.000 A 
ATOM      8  C   UNL     1       1.848   6.504  19.321  0.00  0.00    +0.000 A 
ATOM      9  C   UNL     1       1.240   7.546  20.048  0.00  0.00    +0.000 A 
ATOM     10  C   UNL     1       1.191   4.356  20.612  0.00  0.00    +0.000 C 
ATOM     11  C   UNL     1       1.370   2.843  20.703  0.00  0.00    +0.000 C 
ATOM     12  C   UNL     1       2.724   2.357  21.238  0.00  0.00    +0.000 C 
ATOM     13  C   UNL     1       3.988   3.065  20.751  0.00  0.00    +0.000 C 
ATOM     14  C   UNL     1       4.347   2.857  19.275  0.00  0.00    +0.000 C 
ATOM     15  C   UNL     1       3.277   3.226  18.247  0.00  0.00    +0.000 C 
ATOM     16  H   UNL     1       3.669   5.572  16.870  0.00  0.00    +0.000 HD
ENDROOT
BRANCH   1  18
ATOM     17  O   UNL     1       1.541  10.832  21.374  0.00  0.00    +0.000 OA
ATOM     18  S   UNL     1       0.599  10.171  20.503  0.00  0.00    +0.000 S 
ATOM     19  O   UNL     1      -0.635   9.617  21.024  0.00  0.00    +0.000 OA
BRANCH  18  20
ATOM     20  N   UNL     1       0.128  11.233  19.269  0.00  0.00    +0.000 N 
ATOM     21  H   UNL     1       0.913  11.383  18.635  0.00  0.00    +0.000 HD
BRANCH  20  22
ATOM     22  C   UNL     1      -1.150  11.036  18.676  0.00  0.00    +0.000 A 
ATOM     23  C   UNL     1      -1.314  10.073  17.676  0.00  0.00    +0.000 A 
ATOM     24  C   UNL     1      -2.576   9.855  17.119  0.00  0.00    +0.000 A 
ATOM     25  C   UNL     1      -3.671  10.593  17.569  0.00  0.00    +0.000 A 
ATOM     26  C   UNL     1      -3.501  11.541  18.577  0.00  0.00    +0.000 A 
ATOM     27 CL   UNL     1      -4.855  12.439  19.143  0.00  0.00    +0.000 Cl
ATOM     28  C   UNL     1      -2.243  11.766  19.135  0.00  0.00    +0.000 A 
ENDBRANCH  20  22
ENDBRANCH  18  20
ENDBRANCH   1  18
TORSDOF 3
ENDMDL
MODEL 8
REMARK VINA RESULT:      -7.7      5.536      9.819
REMARK  Name = 
REMARK  3 active torsions:
REMARK  status: ('A' for Active; 'I' for Inactive)
REMARK    1  A    between atoms: S_2  and  N_4
REMARK    2  A    between atoms: S_2  and  C_12
REMARK    3  A    between atoms: N_4  and  C_5
REMARK                            x       y       z     vdW  Elec       q    Type
REMARK                         _______ _______ _______ _____ _____    ______ ____
ROOT
ATOM      1  C   UNL     1       1.177   8.841  20.818  0.00  0.00    +0.000 A 
ATOM      2  C   UNL     1       1.339   9.582  19.646  0.00  0.00    +0.000 A 
ATOM      3  C   UNL     1       1.813   8.969  18.480  0.00  0.00    +0.000 A 
ATOM      4  C   UNL     1       2.114   7.603  18.544  0.00  0.00    +0.000 A 
ATOM      5  N   UNL     1       2.598   6.757  17.576  0.00  0.00    +0.000 N 
ATOM      6  C   UNL     1       2.834   5.508  18.097  0.00  0.00    +0.000 A 
ATOM      7  C   UNL     1       2.373   5.500  19.406  0.00  0.00    +0.000 A 
ATOM      8  C   UNL     1       1.953   6.842  19.697  0.00  0.00    +0.000 A 
ATOM      9  C   UNL     1       1.465   7.471  20.859  0.00  0.00    +0.000 A 
ATOM     10  C   UNL     1       2.363   4.389  20.424  0.00  0.00    +0.000 C 
ATOM     11  C   UNL     1       2.900   3.026  19.993  0.00  0.00    +0.000 C 
ATOM     12  C   UNL     1       4.426   2.907  19.890  0.00  0.00    +0.000 C 
ATOM     13  C   UNL     1       5.199   4.064  19.257  0.00  0.00    +0.000 C 
ATOM     14  C   UNL     1       4.980   4.274  17.753  0.00  0.00    +0.000 C 
ATOM     15  C   UNL     1       3.537   4.471  17.287  0.00  0.00    +0.000 C 
ATOM     16  H   UNL     1       2.813   7.039  16.630  0.00  0.00    +0.000 HD
ENDROOT
BRANCH   1  18
ATOM     17  O   UNL     1       1.449   9.553  23.333  0.00  0.00    +0.000 OA
ATOM     18  S   UNL     1       0.482   9.610  22.262  0.00  0.00    +0.000 S 
ATOM     19  O   UNL     1      -0.853   9.074  22.437  0.00  0.00    +0.000 OA
BRANCH  18  20
ATOM     20  N   UNL     1       0.260  11.221  21.784  0.00  0.00    +0.000 N 
ATOM     21  H   UNL     1       0.828  11.409  20.958  0.00  0.00    +0.000 HD
BRANCH  20  22
ATOM     22  C   UNL     1      -1.065  11.737  21.787  0.00  0.00    +0.000 A 
ATOM     23  C   UNL     1      -1.689  12.064  20.580  0.00  0.00    +0.000 A 
ATOM     24  C   UNL     1      -3.003  12.538  20.579  0.00  0.00    +0.000 A 
ATOM     25  C   UNL     1      -3.692  12.673  21.784  0.00  0.00    +0.000 A 
ATOM     26  C   UNL     1      -3.067  12.331  22.984  0.00  0.00    +0.000 A 
ATOM     27 CL   UNL     1      -3.925  12.484  24.467  0.00  0.00    +0.000 Cl
ATOM     28  C   UNL     1      -1.754  11.861  22.991  0.00  0.00    +0.000 A 
ENDBRANCH  20  22
ENDBRANCH  18  20
ENDBRANCH   1  18
TORSDOF 3
ENDMDL
MODEL 9
REMARK VINA RESULT:      -7.7      5.021      8.828
REMARK  Name = 
REMARK  3 active torsions:
REMARK  status: ('A' for Active; 'I' for Inactive)
REMARK    1  A    between atoms: S_2  and  N_4
REMARK    2  A    between atoms: S_2  and  C_12
REMARK    3  A    between atoms: N_4  and  C_5
REMARK                            x       y       z     vdW  Elec       q    Type
REMARK                         _______ _______ _______ _____ _____    ______ ____
ROOT
ATOM      1  C   UNL     1       1.175   9.817  19.590  0.00  0.00    +0.000 A 
ATOM      2  C   UNL     1       0.721   9.643  20.899  0.00  0.00    +0.000 A 
ATOM      3  C   UNL     1       0.911   8.423  21.558  0.00  0.00    +0.000 A 
ATOM      4  C   UNL     1       1.563   7.403  20.856  0.00  0.00    +0.000 A 
ATOM      5  N   UNL     1       1.871   6.120  21.241  0.00  0.00    +0.000 N 
ATOM      6  C   UNL     1       2.439   5.425  20.201  0.00  0.00    +0.000 A 
ATOM      7  C   UNL     1       2.624   6.311  19.148  0.00  0.00    +0.000 A 
ATOM      8  C   UNL     1       2.032   7.555  19.555  0.00  0.00    +0.000 A 
ATOM      9  C   UNL     1       1.843   8.792  18.909  0.00  0.00    +0.000 A 
ATOM     10  C   UNL     1       3.224   6.085  17.784  0.00  0.00    +0.000 C 
ATOM     11  C   UNL     1       3.759   4.691  17.466  0.00  0.00    +0.000 C 
ATOM     12  C   UNL     1       2.705   3.616  17.171  0.00  0.00    +0.000 C 
ATOM     13  C   UNL     1       1.454   3.573  18.050  0.00  0.00    +0.000 C 
ATOM     14  C   UNL     1       1.673   3.149  19.507  0.00  0.00    +0.000 C 
ATOM     15  C   UNL     1       2.686   3.958  20.317  0.00  0.00    +0.000 C 
ATOM     16  H   UNL     1       1.647   5.728  22.145  0.00  0.00    +0.000 HD
ENDROOT
BRANCH   1  18
ATOM     17  O   UNL     1      -0.317  11.520  18.256  0.00  0.00    +0.000 OA
ATOM     18  S   UNL     1       1.015  11.401  18.800  0.00  0.00    +0.000 S 
ATOM     19  O   UNL     1       2.181  11.585  17.959  0.00  0.00    +0.000 OA
BRANCH  18  20
ATOM     20  N   UNL     1       1.205  12.500  20.077  0.00  0.00    +0.000 N 
ATOM     21  H   UNL     1       1.799  12.085  20.794  0.00  0.00    +0.000 HD
BRANCH  20  22
ATOM     22  C   UNL     1       1.448  13.862  19.749  0.00  0.00    +0.000 A 
ATOM     23  C   UNL     1       2.719  14.410  19.939  0.00  0.00    +0.000 A 
ATOM     24  C   UNL     1       2.967  15.738  19.584  0.00  0.00    +0.000 A 
ATOM     25  C   UNL     1       1.946  16.511  19.031  0.00  0.00    +0.000 A 
ATOM     26  C   UNL     1       0.683  15.952  18.831  0.00  0.00    +0.000 A 
ATOM     27 CL   UNL     1      -0.571  16.903  18.135  0.00  0.00    +0.000 Cl
ATOM     28  C   UNL     1       0.429  14.629  19.187  0.00  0.00    +0.000 A 
ENDBRANCH  20  22
ENDBRANCH  18  20
ENDBRANCH   1  18
TORSDOF 3
ENDMDL
