MODEL 1
REMARK VINA RESULT:      -7.7      0.000      0.000
REMARK  Name = 
REMARK  12 active torsions:
REMARK  status: ('A' for Active; 'I' for Inactive)
REMARK    1  A    between atoms: C_1  and  C_2
REMARK    2  A    between atoms: C_2  and  C_3
REMARK    3  A    between atoms: C_3  and  C_4
REMARK    4  A    between atoms: C_4  and  C_5
REMARK    5  A    between atoms: C_5  and  C_6
REMARK    6  A    between atoms: C_6  and  S_7
REMARK    7  A    between atoms: S_7  and  C_8
REMARK    8  A    between atoms: N_17  and  C_18
REMARK    9  A    between atoms: C_21  and  C_22
REMARK   10  A    between atoms: C_21  and  C_24
REMARK   11  A    between atoms: C_22  and  O_23
REMARK   12  A    between atoms: C_24  and  O_25
REMARK                            x       y       z     vdW  Elec       q    Type
REMARK                         _______ _______ _______ _____ _____    ______ ____
ROOT
ATOM      1  C   UNL     1       6.670   5.321  16.532  0.00  0.00    +0.000 A 
ATOM      2  N   UNL     1       7.582   5.840  17.393  0.00  0.00    +0.000 NA
ATOM      3  C   UNL     1       7.481   5.524  18.688  0.00  0.00    +0.000 A 
ATOM      4  N   UNL     1       8.430   6.031  19.552  0.00  0.00    +0.000 N 
ATOM      5  N   UNL     1       6.522   4.787  19.265  0.00  0.00    +0.000 NA
ATOM      6  C   UNL     1       5.637   4.291  18.381  0.00  0.00    +0.000 A 
ATOM      7  C   UNL     1       5.640   4.501  17.013  0.00  0.00    +0.000 A 
ATOM      8  N   UNL     1       4.610   3.810  16.420  0.00  0.00    +0.000 NA
ATOM      9  C   UNL     1       4.013   3.183  17.408  0.00  0.00    +0.000 A 
ATOM     10  N   UNL     1       4.564   3.444  18.646  0.00  0.00    +0.000 N 
ATOM     11  H   UNL     1       8.861   6.847  19.145  0.00  0.00    +0.000 HD
ATOM     12  H   UNL     1       7.977   6.153  20.449  0.00  0.00    +0.000 HD
ENDROOT
BRANCH  10  13
ATOM     13  C   UNL     1       4.147   2.950  19.887  0.00  0.00    +0.000 C 
ATOM     14  C   UNL     1       2.955   3.139  20.458  0.00  0.00    +0.000 C 
ATOM     15  C   UNL     1       2.184   2.828  21.588  0.00  0.00    +0.000 C 
ATOM     16  C   UNL     1       1.648   3.702  20.388  0.00  0.00    +0.000 C 
BRANCH  16  17
ATOM     17  C   UNL     1       1.415   5.181  20.645  0.00  0.00    +0.000 C 
BRANCH  17  18
ATOM     18  O   UNL     1       2.551   5.978  20.311  0.00  0.00    +0.000 OA
ATOM     19  H   UNL     1       2.517   6.774  20.868  0.00  0.00    +0.000 HD
ENDBRANCH  17  18
ENDBRANCH  16  17
BRANCH  16  20
ATOM     20  C   UNL     1       0.641   3.038  19.466  0.00  0.00    +0.000 C 
BRANCH  20  21
ATOM     21  O   UNL     1       0.906   3.345  18.102  0.00  0.00    +0.000 OA
ATOM     22  H   UNL     1       0.144   3.040  17.579  0.00  0.00    +0.000 HD
ENDBRANCH  20  21
ENDBRANCH  16  20
ENDBRANCH  10  13
BRANCH   1  23
ATOM     23  S   UNL     1       6.949   5.536  14.805  0.00  0.00    +0.000 S 
BRANCH  23  24
ATOM     24  C   UNL     1       6.619   3.851  14.197  0.00  0.00    +0.000 C 
BRANCH  24  25
ATOM     25  C   UNL     1       6.151   3.966  12.746  0.00  0.00    +0.000 C 
BRANCH  25  26
ATOM     26  C   UNL     1       4.780   3.326  12.530  0.00  0.00    +0.000 C 
BRANCH  26  27
ATOM     27  C   UNL     1       4.588   2.926  11.064  0.00  0.00    +0.000 C 
BRANCH  27  29
ATOM     28  C   UNL     1       3.018   4.216   9.577  0.00  0.00    +0.000 C 
ATOM     29  C   UNL     1       3.138   3.116  10.620  0.00  0.00    +0.000 C 
ENDBRANCH  27  29
ENDBRANCH  26  27
ENDBRANCH  25  26
ENDBRANCH  24  25
ENDBRANCH  23  24
ENDBRANCH   1  23
TORSDOF 11
ENDMDL
MODEL 2
REMARK VINA RESULT:      -7.4      1.487      1.993
REMARK  Name = 
REMARK  12 active torsions:
REMARK  status: ('A' for Active; 'I' for Inactive)
REMARK    1  A    between atoms: C_1  and  C_2
REMARK    2  A    between atoms: C_2  and  C_3
REMARK    3  A    between atoms: C_3  and  C_4
REMARK    4  A    between atoms: C_4  and  C_5
REMARK    5  A    between atoms: C_5  and  C_6
REMARK    6  A    between atoms: C_6  and  S_7
REMARK    7  A    between atoms: S_7  and  C_8
REMARK    8  A    between atoms: N_17  and  C_18
REMARK    9  A    between atoms: C_21  and  C_22
REMARK   10  A    between atoms: C_21  and  C_24
REMARK   11  A    between atoms: C_22  and  O_23
REMARK   12  A    between atoms: C_24  and  O_25
REMARK                            x       y       z     vdW  Elec       q    Type
REMARK                         _______ _______ _______ _____ _____    ______ ____
ROOT
ATOM      1  C   UNL     1       6.761   5.655  16.927  0.00  0.00    +0.000 A 
ATOM      2  N   UNL     1       7.748   5.541  17.851  0.00  0.00    +0.000 NA
ATOM      3  C   UNL     1       7.400   5.361  19.129  0.00  0.00    +0.000 A 
ATOM      4  N   UNL     1       8.410   5.215  20.059  0.00  0.00    +0.000 N 
ATOM      5  N   UNL     1       6.157   5.344  19.632  0.00  0.00    +0.000 NA
ATOM      6  C   UNL     1       5.207   5.461  18.687  0.00  0.00    +0.000 A 
ATOM      7  C   UNL     1       5.418   5.612  17.327  0.00  0.00    +0.000 A 
ATOM      8  N   UNL     1       4.217   5.662  16.658  0.00  0.00    +0.000 NA
ATOM      9  C   UNL     1       3.305   5.523  17.594  0.00  0.00    +0.000 A 
ATOM     10  N   UNL     1       3.827   5.420  18.868  0.00  0.00    +0.000 N 
ATOM     11  H   UNL     1       9.264   5.611  19.698  0.00  0.00    +0.000 HD
ATOM     12  H   UNL     1       8.063   5.593  20.931  0.00  0.00    +0.000 HD
ENDROOT
BRANCH  10  13
ATOM     13  C   UNL     1       3.123   5.284  20.070  0.00  0.00    +0.000 C 
ATOM     14  C   UNL     1       2.730   4.141  20.635  0.00  0.00    +0.000 C 
ATOM     15  C   UNL     1       2.075   3.602  21.752  0.00  0.00    +0.000 C 
ATOM     16  C   UNL     1       2.687   2.717  20.598  0.00  0.00    +0.000 C 
BRANCH  16  17
ATOM     17  C   UNL     1       1.719   1.983  19.686  0.00  0.00    +0.000 C 
BRANCH  17  18
ATOM     18  O   UNL     1       1.816   2.415  18.329  0.00  0.00    +0.000 OA
ATOM     19  H   UNL     1       0.935   2.731  18.065  0.00  0.00    +0.000 HD
ENDBRANCH  17  18
ENDBRANCH  16  17
BRANCH  16  20
ATOM     20  C   UNL     1       3.963   1.962  20.930  0.00  0.00    +0.000 C 
BRANCH  20  21
ATOM     21  O   UNL     1       4.999   2.264  20.002  0.00  0.00    +0.000 OA
ATOM     22  H   UNL     1       5.056   1.524  19.374  0.00  0.00    +0.000 HD
ENDBRANCH  20  21
ENDBRANCH  16  20
ENDBRANCH  10  13
BRANCH   1  23
ATOM     23  S   UNL     1       7.218   5.642  15.224  0.00  0.00    +0.000 S 
BRANCH  23  24
ATOM     24  C   UNL     1       6.705   3.960  14.749  0.00  0.00    +0.000 C 
BRANCH  24  25
ATOM     25  C   UNL     1       5.689   4.090  13.613  0.00  0.00    +0.000 C 
BRANCH  25  26
ATOM     26  C   UNL     1       5.978   3.120  12.468  0.00  0.00    +0.000 C 
BRANCH  26  27
ATOM     27  C   UNL     1       5.276   3.567  11.182  0.00  0.00    +0.000 C 
BRANCH  27  29
ATOM     28  C   UNL     1       3.085   3.695   9.949  0.00  0.00    +0.000 C 
ATOM     29  C   UNL     1       3.792   3.204  11.202  0.00  0.00    +0.000 C 
ENDBRANCH  27  29
ENDBRANCH  26  27
ENDBRANCH  25  26
ENDBRANCH  24  25
ENDBRANCH  23  24
ENDBRANCH   1  23
TORSDOF 11
ENDMDL
MODEL 3
REMARK VINA RESULT:      -7.3      1.569      2.066
REMARK  Name = 
REMARK  12 active torsions:
REMARK  status: ('A' for Active; 'I' for Inactive)
REMARK    1  A    between atoms: C_1  and  C_2
REMARK    2  A    between atoms: C_2  and  C_3
REMARK    3  A    between atoms: C_3  and  C_4
REMARK    4  A    between atoms: C_4  and  C_5
REMARK    5  A    between atoms: C_5  and  C_6
REMARK    6  A    between atoms: C_6  and  S_7
REMARK    7  A    between atoms: S_7  and  C_8
REMARK    8  A    between atoms: N_17  and  C_18
REMARK    9  A    between atoms: C_21  and  C_22
REMARK   10  A    between atoms: C_21  and  C_24
REMARK   11  A    between atoms: C_22  and  O_23
REMARK   12  A    between atoms: C_24  and  O_25
REMARK                            x       y       z     vdW  Elec       q    Type
REMARK                         _______ _______ _______ _____ _____    ______ ____
ROOT
ATOM      1  C   UNL     1       6.592   5.275  15.674  0.00  0.00    +0.000 A 
ATOM      2  N   UNL     1       7.338   6.316  16.122  0.00  0.00    +0.000 NA
ATOM      3  C   UNL     1       6.931   6.959  17.222  0.00  0.00    +0.000 A 
ATOM      4  N   UNL     1       7.712   7.997  17.689  0.00  0.00    +0.000 N 
ATOM      5  N   UNL     1       5.808   6.733  17.918  0.00  0.00    +0.000 NA
ATOM      6  C   UNL     1       5.096   5.696  17.444  0.00  0.00    +0.000 A 
ATOM      7  C   UNL     1       5.414   4.918  16.344  0.00  0.00    +0.000 A 
ATOM      8  N   UNL     1       4.479   3.923  16.174  0.00  0.00    +0.000 NA
ATOM      9  C   UNL     1       3.629   4.089  17.162  0.00  0.00    +0.000 A 
ATOM     10  N   UNL     1       3.920   5.168  17.971  0.00  0.00    +0.000 N 
ATOM     11  H   UNL     1       8.291   8.350  16.943  0.00  0.00    +0.000 HD
ATOM     12  H   UNL     1       7.088   8.657  18.134  0.00  0.00    +0.000 HD
ENDROOT
BRANCH  10  13
ATOM     13  C   UNL     1       3.202   5.618  19.085  0.00  0.00    +0.000 C 
ATOM     14  C   UNL     1       2.475   4.869  19.917  0.00  0.00    +0.000 C 
ATOM     15  C   UNL     1       1.681   4.913  21.072  0.00  0.00    +0.000 C 
ATOM     16  C   UNL     1       1.999   3.580  20.292  0.00  0.00    +0.000 C 
BRANCH  16  17
ATOM     17  C   UNL     1       0.857   2.914  19.541  0.00  0.00    +0.000 C 
BRANCH  17  18
ATOM     18  O   UNL     1       1.296   1.811  18.749  0.00  0.00    +0.000 OA
ATOM     19  H   UNL     1       0.625   1.668  18.061  0.00  0.00    +0.000 HD
ENDBRANCH  17  18
ENDBRANCH  16  17
BRANCH  16  20
ATOM     20  C   UNL     1       2.980   2.627  20.952  0.00  0.00    +0.000 C 
BRANCH  20  21
ATOM     21  O   UNL     1       4.006   2.231  20.049  0.00  0.00    +0.000 OA
ATOM     22  H   UNL     1       4.460   1.464  20.438  0.00  0.00    +0.000 HD
ENDBRANCH  20  21
ENDBRANCH  16  20
ENDBRANCH  10  13
BRANCH   1  23
ATOM     23  S   UNL     1       7.256   4.279  14.380  0.00  0.00    +0.000 S 
BRANCH  23  24
ATOM     24  C   UNL     1       5.766   3.995  13.373  0.00  0.00    +0.000 C 
BRANCH  24  25
ATOM     25  C   UNL     1       6.209   3.327  12.070  0.00  0.00    +0.000 C 
BRANCH  25  26
ATOM     26  C   UNL     1       5.119   2.429  11.483  0.00  0.00    +0.000 C 
BRANCH  26  27
ATOM     27  C   UNL     1       3.801   3.195  11.335  0.00  0.00    +0.000 C 
BRANCH  27  29
ATOM     28  C   UNL     1       2.539   4.199   9.401  0.00  0.00    +0.000 C 
ATOM     29  C   UNL     1       3.854   4.175  10.164  0.00  0.00    +0.000 C 
ENDBRANCH  27  29
ENDBRANCH  26  27
ENDBRANCH  25  26
ENDBRANCH  24  25
ENDBRANCH  23  24
ENDBRANCH   1  23
TORSDOF 11
ENDMDL
MODEL 4
REMARK VINA RESULT:      -7.2      1.092      1.527
REMARK  Name = 
REMARK  12 active torsions:
REMARK  status: ('A' for Active; 'I' for Inactive)
REMARK    1  A    between atoms: C_1  and  C_2
REMARK    2  A    between atoms: C_2  and  C_3
REMARK    3  A    between atoms: C_3  and  C_4
REMARK    4  A    between atoms: C_4  and  C_5
REMARK    5  A    between atoms: C_5  and  C_6
REMARK    6  A    between atoms: C_6  and  S_7
REMARK    7  A    between atoms: S_7  and  C_8
REMARK    8  A    between atoms: N_17  and  C_18
REMARK    9  A    between atoms: C_21  and  C_22
REMARK   10  A    between atoms: C_21  and  C_24
REMARK   11  A    between atoms: C_22  and  O_23
REMARK   12  A    between atoms: C_24  and  O_25
REMARK                            x       y       z     vdW  Elec       q    Type
REMARK                         _______ _______ _______ _____ _____    ______ ____
ROOT
ATOM      1  C   UNL     1       6.758   4.864  16.628  0.00  0.00    +0.000 A 
ATOM      2  N   UNL     1       7.582   5.555  17.456  0.00  0.00    +0.000 NA
ATOM      3  C   UNL     1       7.388   5.450  18.774  0.00  0.00    +0.000 A 
ATOM      4  N   UNL     1       8.249   6.132  19.610  0.00  0.00    +0.000 N 
ATOM      5  N   UNL     1       6.409   4.776  19.394  0.00  0.00    +0.000 NA
ATOM      6  C   UNL     1       5.613   4.105  18.542  0.00  0.00    +0.000 A 
ATOM      7  C   UNL     1       5.719   4.089  17.161  0.00  0.00    +0.000 A 
ATOM      8  N   UNL     1       4.761   3.267  16.616  0.00  0.00    +0.000 NA
ATOM      9  C   UNL     1       4.106   2.784  17.649  0.00  0.00    +0.000 A 
ATOM     10  N   UNL     1       4.548   3.267  18.863  0.00  0.00    +0.000 N 
ATOM     11  H   UNL     1       8.686   6.888  19.106  0.00  0.00    +0.000 HD
ATOM     12  H   UNL     1       7.722   6.379  20.438  0.00  0.00    +0.000 HD
ENDROOT
BRANCH  10  13
ATOM     13  C   UNL     1       4.049   2.964  20.135  0.00  0.00    +0.000 C 
ATOM     14  C   UNL     1       2.870   3.338  20.636  0.00  0.00    +0.000 C 
ATOM     15  C   UNL     1       2.041   3.240  21.763  0.00  0.00    +0.000 C 
ATOM     16  C   UNL     1       1.632   4.020  20.454  0.00  0.00    +0.000 C 
BRANCH  16  17
ATOM     17  C   UNL     1       1.549   5.535  20.534  0.00  0.00    +0.000 C 
BRANCH  17  18
ATOM     18  O   UNL     1       2.740   6.171  20.068  0.00  0.00    +0.000 OA
ATOM     19  H   UNL     1       2.875   6.962  20.617  0.00  0.00    +0.000 HD
ENDBRANCH  17  18
ENDBRANCH  16  17
BRANCH  16  20
ATOM     20  C   UNL     1       0.584   3.361  19.574  0.00  0.00    +0.000 C 
BRANCH  20  21
ATOM     21  O   UNL     1       0.961   3.399  18.202  0.00  0.00    +0.000 OA
ATOM     22  H   UNL     1       1.679   4.049  18.112  0.00  0.00    +0.000 HD
ENDBRANCH  20  21
ENDBRANCH  16  20
ENDBRANCH  10  13
BRANCH   1  23
ATOM     23  S   UNL     1       7.167   4.806  14.914  0.00  0.00    +0.000 S 
BRANCH  23  24
ATOM     24  C   UNL     1       5.529   5.073  14.166  0.00  0.00    +0.000 C 
BRANCH  24  25
ATOM     25  C   UNL     1       5.137   3.786  13.439  0.00  0.00    +0.000 C 
BRANCH  25  26
ATOM     26  C   UNL     1       6.126   3.427  12.330  0.00  0.00    +0.000 C 
BRANCH  26  27
ATOM     27  C   UNL     1       5.580   2.294  11.457  0.00  0.00    +0.000 C 
BRANCH  27  29
ATOM     28  C   UNL     1       6.135  -0.156  11.275  0.00  0.00    +0.000 C 
ATOM     29  C   UNL     1       6.664   1.263  11.140  0.00  0.00    +0.000 C 
ENDBRANCH  27  29
ENDBRANCH  26  27
ENDBRANCH  25  26
ENDBRANCH  24  25
ENDBRANCH  23  24
ENDBRANCH   1  23
TORSDOF 11
ENDMDL
MODEL 5
REMARK VINA RESULT:      -7.2      3.242      5.989
REMARK  Name = 
REMARK  12 active torsions:
REMARK  status: ('A' for Active; 'I' for Inactive)
REMARK    1  A    between atoms: C_1  and  C_2
REMARK    2  A    between atoms: C_2  and  C_3
REMARK    3  A    between atoms: C_3  and  C_4
REMARK    4  A    between atoms: C_4  and  C_5
REMARK    5  A    between atoms: C_5  and  C_6
REMARK    6  A    between atoms: C_6  and  S_7
REMARK    7  A    between atoms: S_7  and  C_8
REMARK    8  A    between atoms: N_17  and  C_18
REMARK    9  A    between atoms: C_21  and  C_22
REMARK   10  A    between atoms: C_21  and  C_24
REMARK   11  A    between atoms: C_22  and  O_23
REMARK   12  A    between atoms: C_24  and  O_25
REMARK                            x       y       z     vdW  Elec       q    Type
REMARK                         _______ _______ _______ _____ _____    ______ ____
ROOT
ATOM      1  C   UNL     1       7.173   5.920  17.607  0.00  0.00    +0.000 A 
ATOM      2  N   UNL     1       7.379   5.702  16.284  0.00  0.00    +0.000 NA
ATOM      3  C   UNL     1       6.507   4.930  15.627  0.00  0.00    +0.000 A 
ATOM      4  N   UNL     1       6.706   4.738  14.275  0.00  0.00    +0.000 N 
ATOM      5  N   UNL     1       5.459   4.275  16.146  0.00  0.00    +0.000 NA
ATOM      6  C   UNL     1       5.288   4.516  17.459  0.00  0.00    +0.000 A 
ATOM      7  C   UNL     1       6.085   5.320  18.255  0.00  0.00    +0.000 A 
ATOM      8  N   UNL     1       5.591   5.365  19.538  0.00  0.00    +0.000 NA
ATOM      9  C   UNL     1       4.509   4.619  19.507  0.00  0.00    +0.000 A 
ATOM     10  N   UNL     1       4.267   4.041  18.278  0.00  0.00    +0.000 N 
ATOM     11  H   UNL     1       7.671   4.919  14.043  0.00  0.00    +0.000 HD
ATOM     12  H   UNL     1       6.348   3.818  14.052  0.00  0.00    +0.000 HD
ENDROOT
BRANCH  10  13
ATOM     13  C   UNL     1       3.216   3.186  17.929  0.00  0.00    +0.000 C 
ATOM     14  C   UNL     1       2.166   2.866  18.689  0.00  0.00    +0.000 C 
ATOM     15  C   UNL     1       0.976   2.125  18.714  0.00  0.00    +0.000 C 
ATOM     16  C   UNL     1       1.463   3.019  19.919  0.00  0.00    +0.000 C 
BRANCH  16  17
ATOM     17  C   UNL     1       1.922   2.309  21.181  0.00  0.00    +0.000 C 
BRANCH  17  18
ATOM     18  O   UNL     1       3.285   2.591  21.500  0.00  0.00    +0.000 OA
ATOM     19  H   UNL     1       3.287   3.361  22.093  0.00  0.00    +0.000 HD
ENDBRANCH  17  18
ENDBRANCH  16  17
BRANCH  16  20
ATOM     20  C   UNL     1       0.708   4.317  20.145  0.00  0.00    +0.000 C 
BRANCH  20  21
ATOM     21  O   UNL     1       1.495   5.254  20.873  0.00  0.00    +0.000 OA
ATOM     22  H   UNL     1       2.082   4.749  21.462  0.00  0.00    +0.000 HD
ENDBRANCH  20  21
ENDBRANCH  16  20
ENDBRANCH  10  13
BRANCH   1  23
ATOM     23  S   UNL     1       8.175   7.129  18.410  0.00  0.00    +0.000 S 
BRANCH  23  24
ATOM     24  C   UNL     1       7.495   8.660  17.695  0.00  0.00    +0.000 C 
BRANCH  24  25
ATOM     25  C   UNL     1       8.588   9.727  17.765  0.00  0.00    +0.000 C 
BRANCH  25  26
ATOM     26  C   UNL     1       9.086   9.950  19.193  0.00  0.00    +0.000 C 
BRANCH  26  27
ATOM     27  C   UNL     1      10.138  11.062  19.239  0.00  0.00    +0.000 C 
BRANCH  27  29
ATOM     28  C   UNL     1      10.210  13.021  17.659  0.00  0.00    +0.000 C 
ATOM     29  C   UNL     1      10.505  11.540  17.834  0.00  0.00    +0.000 C 
ENDBRANCH  27  29
ENDBRANCH  26  27
ENDBRANCH  25  26
ENDBRANCH  24  25
ENDBRANCH  23  24
ENDBRANCH   1  23
TORSDOF 11
ENDMDL
MODEL 6
REMARK VINA RESULT:      -7.1      3.842      5.381
REMARK  Name = 
REMARK  12 active torsions:
REMARK  status: ('A' for Active; 'I' for Inactive)
REMARK    1  A    between atoms: C_1  and  C_2
REMARK    2  A    between atoms: C_2  and  C_3
REMARK    3  A    between atoms: C_3  and  C_4
REMARK    4  A    between atoms: C_4  and  C_5
REMARK    5  A    between atoms: C_5  and  C_6
REMARK    6  A    between atoms: C_6  and  S_7
REMARK    7  A    between atoms: S_7  and  C_8
REMARK    8  A    between atoms: N_17  and  C_18
REMARK    9  A    between atoms: C_21  and  C_22
REMARK   10  A    between atoms: C_21  and  C_24
REMARK   11  A    between atoms: C_22  and  O_23
REMARK   12  A    between atoms: C_24  and  O_25
REMARK                            x       y       z     vdW  Elec       q    Type
REMARK                         _______ _______ _______ _____ _____    ______ ____
ROOT
ATOM      1  C   UNL     1       3.490   4.416  18.800  0.00  0.00    +0.000 A 
ATOM      2  N   UNL     1       3.199   3.584  19.831  0.00  0.00    +0.000 NA
ATOM      3  C   UNL     1       2.482   4.067  20.852  0.00  0.00    +0.000 A 
ATOM      4  N   UNL     1       2.164   3.205  21.882  0.00  0.00    +0.000 N 
ATOM      5  N   UNL     1       2.060   5.329  21.014  0.00  0.00    +0.000 NA
ATOM      6  C   UNL     1       2.368   6.123  19.973  0.00  0.00    +0.000 A 
ATOM      7  C   UNL     1       3.067   5.752  18.837  0.00  0.00    +0.000 A 
ATOM      8  N   UNL     1       3.164   6.812  17.966  0.00  0.00    +0.000 NA
ATOM      9  C   UNL     1       2.521   7.794  18.559  0.00  0.00    +0.000 A 
ATOM     10  N   UNL     1       2.025   7.462  19.803  0.00  0.00    +0.000 N 
ATOM     11  H   UNL     1       2.808   2.429  21.889  0.00  0.00    +0.000 HD
ATOM     12  H   UNL     1       2.110   3.762  22.725  0.00  0.00    +0.000 HD
ENDROOT
BRANCH  10  13
ATOM     13  C   UNL     1       1.317   8.285  20.686  0.00  0.00    +0.000 C 
ATOM     14  C   UNL     1       0.765   9.467  20.403  0.00  0.00    +0.000 C 
ATOM     15  C   UNL     1       0.013  10.519  20.944  0.00  0.00    +0.000 C 
ATOM     16  C   UNL     1       0.489  10.480  19.440  0.00  0.00    +0.000 C 
BRANCH  16  17
ATOM     17  C   UNL     1       1.558  11.473  19.015  0.00  0.00    +0.000 C 
BRANCH  17  18
ATOM     18  O   UNL     1       2.068  11.199  17.710  0.00  0.00    +0.000 OA
ATOM     19  H   UNL     1       1.488  11.652  17.075  0.00  0.00    +0.000 HD
ENDBRANCH  17  18
ENDBRANCH  16  17
BRANCH  16  20
ATOM     20  C   UNL     1      -0.580  10.196  18.399  0.00  0.00    +0.000 C 
BRANCH  20  21
ATOM     21  O   UNL     1      -0.968  11.383  17.717  0.00  0.00    +0.000 OA
ATOM     22  H   UNL     1      -1.779  11.713  18.141  0.00  0.00    +0.000 HD
ENDBRANCH  20  21
ENDBRANCH  16  20
ENDBRANCH  10  13
BRANCH   1  23
ATOM     23  S   UNL     1       4.214   3.717  17.353  0.00  0.00    +0.000 S 
BRANCH  23  24
ATOM     24  C   UNL     1       5.668   4.795  17.147  0.00  0.00    +0.000 C 
BRANCH  24  25
ATOM     25  C   UNL     1       6.640   4.085  16.204  0.00  0.00    +0.000 C 
BRANCH  25  26
ATOM     26  C   UNL     1       6.725   4.772  14.841  0.00  0.00    +0.000 C 
BRANCH  26  27
ATOM     27  C   UNL     1       5.620   4.271  13.906  0.00  0.00    +0.000 C 
BRANCH  27  29
ATOM     28  C   UNL     1       5.108   3.064  11.756  0.00  0.00    +0.000 C 
ATOM     29  C   UNL     1       6.201   3.505  12.718  0.00  0.00    +0.000 C 
ENDBRANCH  27  29
ENDBRANCH  26  27
ENDBRANCH  25  26
ENDBRANCH  24  25
ENDBRANCH  23  24
ENDBRANCH   1  23
TORSDOF 11
ENDMDL
MODEL 7
REMARK VINA RESULT:      -7.1      3.684      6.816
REMARK  Name = 
REMARK  12 active torsions:
REMARK  status: ('A' for Active; 'I' for Inactive)
REMARK    1  A    between atoms: C_1  and  C_2
REMARK    2  A    between atoms: C_2  and  C_3
REMARK    3  A    between atoms: C_3  and  C_4
REMARK    4  A    between atoms: C_4  and  C_5
REMARK    5  A    between atoms: C_5  and  C_6
REMARK    6  A    between atoms: C_6  and  S_7
REMARK    7  A    between atoms: S_7  and  C_8
REMARK    8  A    between atoms: N_17  and  C_18
REMARK    9  A    between atoms: C_21  and  C_22
REMARK   10  A    between atoms: C_21  and  C_24
REMARK   11  A    between atoms: C_22  and  O_23
REMARK   12  A    between atoms: C_24  and  O_25
REMARK                            x       y       z     vdW  Elec       q    Type
REMARK                         _______ _______ _______ _____ _____    ______ ____
ROOT
ATOM      1  C   UNL     1       7.592   7.559  17.976  0.00  0.00    +0.000 A 
ATOM      2  N   UNL     1       8.224   7.003  19.040  0.00  0.00    +0.000 NA
ATOM      3  C   UNL     1       7.952   5.729  19.342  0.00  0.00    +0.000 A 
ATOM      4  N   UNL     1       8.622   5.162  20.408  0.00  0.00    +0.000 N 
ATOM      5  N   UNL     1       7.058   4.931  18.742  0.00  0.00    +0.000 NA
ATOM      6  C   UNL     1       6.452   5.517  17.693  0.00  0.00    +0.000 A 
ATOM      7  C   UNL     1       6.661   6.810  17.243  0.00  0.00    +0.000 A 
ATOM      8  N   UNL     1       5.899   7.057  16.126  0.00  0.00    +0.000 NA
ATOM      9  C   UNL     1       5.260   5.931  15.898  0.00  0.00    +0.000 A 
ATOM     10  N   UNL     1       5.523   4.946  16.828  0.00  0.00    +0.000 N 
ATOM     11  H   UNL     1       8.961   5.886  21.022  0.00  0.00    +0.000 HD
ATOM     12  H   UNL     1       8.001   4.473  20.812  0.00  0.00    +0.000 HD
ENDROOT
BRANCH  10  13
ATOM     13  C   UNL     1       4.990   3.653  16.875  0.00  0.00    +0.000 C 
ATOM     14  C   UNL     1       3.925   3.258  17.576  0.00  0.00    +0.000 C 
ATOM     15  C   UNL     1       3.111   2.153  17.863  0.00  0.00    +0.000 C 
ATOM     16  C   UNL     1       2.859   3.591  18.460  0.00  0.00    +0.000 C 
BRANCH  16  17
ATOM     17  C   UNL     1       3.103   3.788  19.947  0.00  0.00    +0.000 C 
BRANCH  17  18
ATOM     18  O   UNL     1       3.471   5.131  20.265  0.00  0.00    +0.000 OA
ATOM     19  H   UNL     1       2.647   5.640  20.355  0.00  0.00    +0.000 HD
ENDBRANCH  17  18
ENDBRANCH  16  17
BRANCH  16  20
ATOM     20  C   UNL     1       1.682   4.363  17.890  0.00  0.00    +0.000 C 
BRANCH  20  21
ATOM     21  O   UNL     1       1.956   5.759  17.833  0.00  0.00    +0.000 OA
ATOM     22  H   UNL     1       1.185   6.225  18.201  0.00  0.00    +0.000 HD
ENDBRANCH  20  21
ENDBRANCH  16  20
ENDBRANCH  10  13
BRANCH   1  23
ATOM     23  S   UNL     1       8.131   9.148  17.433  0.00  0.00    +0.000 S 
BRANCH  23  24
ATOM     24  C   UNL     1       8.984   9.745  18.927  0.00  0.00    +0.000 C 
BRANCH  24  25
ATOM     25  C   UNL     1       9.751  11.012  18.547  0.00  0.00    +0.000 C 
BRANCH  25  26
ATOM     26  C   UNL     1       9.509  12.151  19.536  0.00  0.00    +0.000 C 
BRANCH  26  27
ATOM     27  C   UNL     1      10.025  11.783  20.930  0.00  0.00    +0.000 C 
BRANCH  27  29
ATOM     28  C   UNL     1       8.221  11.740  22.686  0.00  0.00    +0.000 C 
ATOM     29  C   UNL     1       9.302  12.575  22.020  0.00  0.00    +0.000 C 
ENDBRANCH  27  29
ENDBRANCH  26  27
ENDBRANCH  25  26
ENDBRANCH  24  25
ENDBRANCH  23  24
ENDBRANCH   1  23
TORSDOF 11
ENDMDL
MODEL 8
REMARK VINA RESULT:      -7.1      3.984      6.206
REMARK  Name = 
REMARK  12 active torsions:
REMARK  status: ('A' for Active; 'I' for Inactive)
REMARK    1  A    between atoms: C_1  and  C_2
REMARK    2  A    between atoms: C_2  and  C_3
REMARK    3  A    between atoms: C_3  and  C_4
REMARK    4  A    between atoms: C_4  and  C_5
REMARK    5  A    between atoms: C_5  and  C_6
REMARK    6  A    between atoms: C_6  and  S_7
REMARK    7  A    between atoms: S_7  and  C_8
REMARK    8  A    between atoms: N_17  and  C_18
REMARK    9  A    between atoms: C_21  and  C_22
REMARK   10  A    between atoms: C_21  and  C_24
REMARK   11  A    between atoms: C_22  and  O_23
REMARK   12  A    between atoms: C_24  and  O_25
REMARK                            x       y       z     vdW  Elec       q    Type
REMARK                         _______ _______ _______ _____ _____    ______ ____
ROOT
ATOM      1  C   UNL     1       3.202   4.526  18.772  0.00  0.00    +0.000 A 
ATOM      2  N   UNL     1       2.974   3.676  19.805  0.00  0.00    +0.000 NA
ATOM      3  C   UNL     1       2.348   4.151  20.887  0.00  0.00    +0.000 A 
ATOM      4  N   UNL     1       2.093   3.273  21.922  0.00  0.00    +0.000 N 
ATOM      5  N   UNL     1       1.965   5.416  21.107  0.00  0.00    +0.000 NA
ATOM      6  C   UNL     1       2.208   6.228  20.062  0.00  0.00    +0.000 A 
ATOM      7  C   UNL     1       2.810   5.868  18.868  0.00  0.00    +0.000 A 
ATOM      8  N   UNL     1       2.861   6.945  18.014  0.00  0.00    +0.000 NA
ATOM      9  C   UNL     1       2.285   7.925  18.674  0.00  0.00    +0.000 A 
ATOM     10  N   UNL     1       1.880   7.576  19.946  0.00  0.00    +0.000 N 
ATOM     11  H   UNL     1       2.720   2.485  21.863  0.00  0.00    +0.000 HD
ATOM     12  H   UNL     1       2.115   3.813  22.778  0.00  0.00    +0.000 HD
ENDROOT
BRANCH  10  13
ATOM     13  C   UNL     1       1.259   8.392  20.897  0.00  0.00    +0.000 C 
ATOM     14  C   UNL     1       0.655   9.560  20.670  0.00  0.00    +0.000 C 
ATOM     15  C   UNL     1      -0.054  10.603  21.285  0.00  0.00    +0.000 C 
ATOM     16  C   UNL     1       0.252  10.560  19.737  0.00  0.00    +0.000 C 
BRANCH  16  17
ATOM     17  C   UNL     1       1.246  11.570  19.188  0.00  0.00    +0.000 C 
BRANCH  17  18
ATOM     18  O   UNL     1       0.659  12.439  18.220  0.00  0.00    +0.000 OA
ATOM     19  H   UNL     1       0.395  11.890  17.463  0.00  0.00    +0.000 HD
ENDBRANCH  17  18
ENDBRANCH  16  17
BRANCH  16  20
ATOM     20  C   UNL     1      -0.921  10.245  18.826  0.00  0.00    +0.000 C 
BRANCH  20  21
ATOM     21  O   UNL     1      -0.486   9.967  17.499  0.00  0.00    +0.000 OA
ATOM     22  H   UNL     1       0.420   9.617  17.555  0.00  0.00    +0.000 HD
ENDBRANCH  20  21
ENDBRANCH  16  20
ENDBRANCH  10  13
BRANCH   1  23
ATOM     23  S   UNL     1       3.798   3.844  17.259  0.00  0.00    +0.000 S 
BRANCH  23  24
ATOM     24  C   UNL     1       5.594   4.058  17.476  0.00  0.00    +0.000 C 
BRANCH  24  25
ATOM     25  C   UNL     1       6.141   4.694  16.197  0.00  0.00    +0.000 C 
BRANCH  25  26
ATOM     26  C   UNL     1       5.591   6.102  15.972  0.00  0.00    +0.000 C 
BRANCH  26  27
ATOM     27  C   UNL     1       6.012   7.041  17.106  0.00  0.00    +0.000 C 
BRANCH  27  29
ATOM     28  C   UNL     1       7.988   8.425  17.827  0.00  0.00    +0.000 C 
ATOM     29  C   UNL     1       7.532   7.093  17.252  0.00  0.00    +0.000 C 
ENDBRANCH  27  29
ENDBRANCH  26  27
ENDBRANCH  25  26
ENDBRANCH  24  25
ENDBRANCH  23  24
ENDBRANCH   1  23
TORSDOF 11
ENDMDL
MODEL 9
REMARK VINA RESULT:      -7.0      3.937      6.682
REMARK  Name = 
REMARK  12 active torsions:
REMARK  status: ('A' for Active; 'I' for Inactive)
REMARK    1  A    between atoms: C_1  and  C_2
REMARK    2  A    between atoms: C_2  and  C_3
REMARK    3  A    between atoms: C_3  and  C_4
REMARK    4  A    between atoms: C_4  and  C_5
REMARK    5  A    between atoms: C_5  and  C_6
REMARK    6  A    between atoms: C_6  and  S_7
REMARK    7  A    between atoms: S_7  and  C_8
REMARK    8  A    between atoms: N_17  and  C_18
REMARK    9  A    between atoms: C_21  and  C_22
REMARK   10  A    between atoms: C_21  and  C_24
REMARK   11  A    between atoms: C_22  and  O_23
REMARK   12  A    between atoms: C_24  and  O_25
REMARK                            x       y       z     vdW  Elec       q    Type
REMARK                         _______ _______ _______ _____ _____    ______ ____
ROOT
ATOM      1  C   UNL     1       7.524   7.582  17.980  0.00  0.00    +0.000 A 
ATOM      2  N   UNL     1       8.180   6.964  18.994  0.00  0.00    +0.000 NA
ATOM      3  C   UNL     1       7.940   5.666  19.205  0.00  0.00    +0.000 A 
ATOM      4  N   UNL     1       8.634   5.037  20.219  0.00  0.00    +0.000 N 
ATOM      5  N   UNL     1       7.055   4.894  18.558  0.00  0.00    +0.000 NA
ATOM      6  C   UNL     1       6.424   5.542  17.561  0.00  0.00    +0.000 A 
ATOM      7  C   UNL     1       6.601   6.868  17.204  0.00  0.00    +0.000 A 
ATOM      8  N   UNL     1       5.820   7.179  16.116  0.00  0.00    +0.000 NA
ATOM      9  C   UNL     1       5.202   6.059  15.814  0.00  0.00    +0.000 A 
ATOM     10  N   UNL     1       5.497   5.014  16.666  0.00  0.00    +0.000 N 
ATOM     11  H   UNL     1       8.965   5.722  20.881  0.00  0.00    +0.000 HD
ATOM     12  H   UNL     1       8.033   4.307  20.579  0.00  0.00    +0.000 HD
ENDROOT
BRANCH  10  13
ATOM     13  C   UNL     1       4.992   3.710  16.624  0.00  0.00    +0.000 C 
ATOM     14  C   UNL     1       4.085   3.182  17.449  0.00  0.00    +0.000 C 
ATOM     15  C   UNL     1       3.349   2.020  17.722  0.00  0.00    +0.000 C 
ATOM     16  C   UNL     1       3.208   3.349  18.560  0.00  0.00    +0.000 C 
BRANCH  16  17
ATOM     17  C   UNL     1       3.734   3.341  19.986  0.00  0.00    +0.000 C 
BRANCH  17  18
ATOM     18  O   UNL     1       5.151   3.173  20.043  0.00  0.00    +0.000 OA
ATOM     19  H   UNL     1       5.508   3.460  19.185  0.00  0.00    +0.000 HD
ENDBRANCH  17  18
ENDBRANCH  16  17
BRANCH  16  20
ATOM     20  C   UNL     1       1.938   4.153  18.344  0.00  0.00    +0.000 C 
BRANCH  20  21
ATOM     21  O   UNL     1       1.032   3.992  19.430  0.00  0.00    +0.000 OA
ATOM     22  H   UNL     1       0.833   3.043  19.509  0.00  0.00    +0.000 HD
ENDBRANCH  20  21
ENDBRANCH  16  20
ENDBRANCH  10  13
BRANCH   1  23
ATOM     23  S   UNL     1       8.023   9.217  17.548  0.00  0.00    +0.000 S 
BRANCH  23  24
ATOM     24  C   UNL     1       8.915   9.708  19.058  0.00  0.00    +0.000 C 
BRANCH  24  25
ATOM     25  C   UNL     1       9.639  11.022  18.761  0.00  0.00    +0.000 C 
BRANCH  25  26
ATOM     26  C   UNL     1      10.643  11.388  19.855  0.00  0.00    +0.000 C 
BRANCH  26  27
ATOM     27  C   UNL     1      11.987  11.800  19.248  0.00  0.00    +0.000 C 
BRANCH  27  29
ATOM     28  C   UNL     1      11.868  13.788  17.707  0.00  0.00    +0.000 C 
ATOM     29  C   UNL     1      11.825  12.272  17.803  0.00  0.00    +0.000 C 
ENDBRANCH  27  29
ENDBRANCH  26  27
ENDBRANCH  25  26
ENDBRANCH  24  25
ENDBRANCH  23  24
ENDBRANCH   1  23
TORSDOF 11
ENDMDL
