MODEL 1
REMARK VINA RESULT:      -7.9      0.000      0.000
REMARK  Name = 
REMARK  13 active torsions:
REMARK  status: ('A' for Active; 'I' for Inactive)
REMARK    1  A    between atoms: C_1  and  C_2
REMARK    2  A    between atoms: C_2  and  C_3
REMARK    3  A    between atoms: C_3  and  C_4
REMARK    4  A    between atoms: C_7  and  S_8
REMARK    5  A    between atoms: S_8  and  N_11
REMARK    6  A    between atoms: N_11  and  C_12
REMARK    7  A    between atoms: C_12  and  C_13
REMARK    8  A    between atoms: C_12  and  C_24
REMARK    9  A    between atoms: C_13  and  C_14
REMARK   10  A    between atoms: C_17  and  C_18
REMARK   11  A    between atoms: N_20  and  N_21
REMARK   12  A    between atoms: N_26  and  C_27
REMARK   13  A    between atoms: N_26  and  C_28
REMARK                            x       y       z     vdW  Elec       q    Type
REMARK                         _______ _______ _______ _____ _____    ______ ____
ROOT
ATOM      1  C   UNL     1       6.590   5.616  18.167  0.00  0.00    +0.000 C 
ENDROOT
BRANCH   1   2
ATOM      2  C   UNL     1       7.087   4.957  16.873  0.00  0.00    +0.000 C 
ATOM      3  O   UNL     1       8.060   4.199  16.931  0.00  0.00    +0.000 OA
ATOM      4  N   UNL     1       6.419   5.223  15.679  0.00  0.00    +0.000 N 
ATOM      5  C   UNL     1       5.531   6.370  15.494  0.00  0.00    +0.000 C 
BRANCH   4   6
ATOM      6  C   UNL     1       6.734   4.389  14.505  0.00  0.00    +0.000 C 
ATOM      7  C   UNL     1       5.501   3.849  13.776  0.00  0.00    +0.000 C 
ATOM      8  C   UNL     1       6.039   3.389  12.427  0.00  0.00    +0.000 C 
ATOM      9  C   UNL     1       7.249   4.273  12.135  0.00  0.00    +0.000 C 
ATOM     10  C   UNL     1       7.513   5.096  13.396  0.00  0.00    +0.000 C 
ENDBRANCH   4   6
ENDBRANCH   1   2
BRANCH   1  11
ATOM     11  N   UNL     1       5.962   4.581  19.059  0.00  0.00    +0.000 NA
ATOM     12  H   UNL     1       6.555   3.749  19.104  0.00  0.00    +0.000 HD
BRANCH  11  13
ATOM     13  S   UNL     1       4.366   4.148  18.683  0.00  0.00    +0.000 S 
ATOM     14  O   UNL     1       3.896   3.221  19.697  0.00  0.00    +0.000 OA
ATOM     15  O   UNL     1       4.340   3.801  17.279  0.00  0.00    +0.000 OA
BRANCH  13  19
ATOM     16  C   UNL     1       2.027   8.034  19.129  0.00  0.00    +0.000 A 
ATOM     17  C   UNL     1       2.001   7.059  20.138  0.00  0.00    +0.000 A 
ATOM     18  C   UNL     1       2.740   5.885  20.008  0.00  0.00    +0.000 A 
ATOM     19  C   UNL     1       3.489   5.673  18.849  0.00  0.00    +0.000 A 
ATOM     20  C   UNL     1       3.529   6.635  17.836  0.00  0.00    +0.000 A 
ATOM     21  C   UNL     1       2.792   7.808  17.975  0.00  0.00    +0.000 A 
BRANCH  16  22
ATOM     22  C   UNL     1       1.270   9.327  19.314  0.00  0.00    +0.000 C 
BRANCH  22  24
ATOM     23  C   UNL     1      -0.067  10.705  20.960  0.00  0.00    +0.000 C 
ATOM     24  C   UNL     1       0.682   9.406  20.726  0.00  0.00    +0.000 C 
ENDBRANCH  22  24
ENDBRANCH  16  22
ENDBRANCH  13  19
ENDBRANCH  11  13
ENDBRANCH   1  11
BRANCH   1  25
ATOM     25  C   UNL     1       7.795   6.275  18.872  0.00  0.00    +0.000 C 
BRANCH  25  26
ATOM     26  C   UNL     1       8.120   7.703  18.471  0.00  0.00    +0.000 A 
ATOM     27  C   UNL     1       9.033   8.438  19.243  0.00  0.00    +0.000 A 
ATOM     28  C   UNL     1       9.201   9.811  19.035  0.00  0.00    +0.000 A 
ATOM     29  C   UNL     1       8.461  10.464  18.045  0.00  0.00    +0.000 A 
ATOM     30  C   UNL     1       7.641   9.714  17.197  0.00  0.00    +0.000 A 
ATOM     31  C   UNL     1       7.495   8.340  17.392  0.00  0.00    +0.000 A 
BRANCH  29  32
ATOM     32  C   UNL     1       8.444  11.961  17.963  0.00  0.00    +0.000 C 
ATOM     33  N   UNL     1       7.759  12.586  17.045  0.00  0.00    +0.000 NA
ATOM     34  N   UNL     1       9.136  12.688  18.927  0.00  0.00    +0.000 N 
ATOM     35  H   UNL     1       7.313  11.929  16.403  0.00  0.00    +0.000 HD
ATOM     36  H   UNL     1       9.418  12.178  19.763  0.00  0.00    +0.000 HD
BRANCH  34  37
ATOM     37  N   UNL     1       8.608  13.987  19.174  0.00  0.00    +0.000 NA
ATOM     38  H   UNL     1       9.002  14.604  18.444  0.00  0.00    +0.000 HD
ATOM     39  H   UNL     1       9.022  14.354  20.033  0.00  0.00    +0.000 HD
ENDBRANCH  34  37
ENDBRANCH  29  32
ENDBRANCH  25  26
ENDBRANCH   1  25
TORSDOF 11
ENDMDL
MODEL 2
REMARK VINA RESULT:      -7.9      6.678     10.816
REMARK  Name = 
REMARK  13 active torsions:
REMARK  status: ('A' for Active; 'I' for Inactive)
REMARK    1  A    between atoms: C_1  and  C_2
REMARK    2  A    between atoms: C_2  and  C_3
REMARK    3  A    between atoms: C_3  and  C_4
REMARK    4  A    between atoms: C_7  and  S_8
REMARK    5  A    between atoms: S_8  and  N_11
REMARK    6  A    between atoms: N_11  and  C_12
REMARK    7  A    between atoms: C_12  and  C_13
REMARK    8  A    between atoms: C_12  and  C_24
REMARK    9  A    between atoms: C_13  and  C_14
REMARK   10  A    between atoms: C_17  and  C_18
REMARK   11  A    between atoms: N_20  and  N_21
REMARK   12  A    between atoms: N_26  and  C_27
REMARK   13  A    between atoms: N_26  and  C_28
REMARK                            x       y       z     vdW  Elec       q    Type
REMARK                         _______ _______ _______ _____ _____    ______ ____
ROOT
ATOM      1  C   UNL     1       0.045  11.474  20.492  0.00  0.00    +0.000 C 
ENDROOT
BRANCH   1   2
ATOM      2  C   UNL     1       0.801  12.809  20.459  0.00  0.00    +0.000 C 
ATOM      3  O   UNL     1       1.497  13.118  21.431  0.00  0.00    +0.000 OA
ATOM      4  N   UNL     1       0.689  13.622  19.332  0.00  0.00    +0.000 N 
ATOM      5  C   UNL     1      -0.386  13.488  18.350  0.00  0.00    +0.000 C 
BRANCH   4   6
ATOM      6  C   UNL     1       1.617  14.759  19.200  0.00  0.00    +0.000 C 
ATOM      7  C   UNL     1       2.734  14.537  18.176  0.00  0.00    +0.000 C 
ATOM      8  C   UNL     1       3.289  15.932  17.923  0.00  0.00    +0.000 C 
ATOM      9  C   UNL     1       2.128  16.894  18.164  0.00  0.00    +0.000 C 
ATOM     10  C   UNL     1       0.977  16.069  18.739  0.00  0.00    +0.000 C 
ENDBRANCH   4   6
ENDBRANCH   1   2
BRANCH   1  11
ATOM     11  N   UNL     1       0.994  10.341  20.215  0.00  0.00    +0.000 NA
ATOM     12  H   UNL     1       1.884  10.503  20.695  0.00  0.00    +0.000 HD
BRANCH  11  13
ATOM     13  S   UNL     1       1.264   9.981  18.580  0.00  0.00    +0.000 S 
ATOM     14  O   UNL     1       2.189  10.964  18.045  0.00  0.00    +0.000 OA
ATOM     15  O   UNL     1      -0.031   9.761  17.975  0.00  0.00    +0.000 OA
BRANCH  13  19
ATOM     16  C   UNL     1       3.378   5.951  18.831  0.00  0.00    +0.000 A 
ATOM     17  C   UNL     1       2.497   6.366  19.842  0.00  0.00    +0.000 A 
ATOM     18  C   UNL     1       1.833   7.586  19.747  0.00  0.00    +0.000 A 
ATOM     19  C   UNL     1       2.072   8.411  18.645  0.00  0.00    +0.000 A 
ATOM     20  C   UNL     1       2.942   8.012  17.627  0.00  0.00    +0.000 A 
ATOM     21  C   UNL     1       3.599   6.788  17.727  0.00  0.00    +0.000 A 
BRANCH  16  22
ATOM     22  C   UNL     1       4.041   4.598  18.921  0.00  0.00    +0.000 C 
BRANCH  22  24
ATOM     23  C   UNL     1       2.458   3.253  17.480  0.00  0.00    +0.000 C 
ATOM     24  C   UNL     1       3.857   3.823  17.612  0.00  0.00    +0.000 C 
ENDBRANCH  22  24
ENDBRANCH  16  22
ENDBRANCH  13  19
ENDBRANCH  11  13
ENDBRANCH   1  11
BRANCH   1  25
ATOM     25  C   UNL     1      -0.596  11.310  21.887  0.00  0.00    +0.000 C 
BRANCH  25  26
ATOM     26  C   UNL     1      -1.879  12.080  22.140  0.00  0.00    +0.000 A 
ATOM     27  C   UNL     1      -2.264  12.350  23.463  0.00  0.00    +0.000 A 
ATOM     28  C   UNL     1      -3.533  12.867  23.746  0.00  0.00    +0.000 A 
ATOM     29  C   UNL     1      -4.430  13.129  22.705  0.00  0.00    +0.000 A 
ATOM     30  C   UNL     1      -4.007  12.974  21.382  0.00  0.00    +0.000 A 
ATOM     31  C   UNL     1      -2.731  12.481  21.104  0.00  0.00    +0.000 A 
BRANCH  29  32
ATOM     32  C   UNL     1      -5.865  13.452  22.994  0.00  0.00    +0.000 C 
ATOM     33  N   UNL     1      -6.619  14.055  22.115  0.00  0.00    +0.000 NA
ATOM     34  N   UNL     1      -6.407  13.048  24.210  0.00  0.00    +0.000 N 
ATOM     35  H   UNL     1      -6.088  14.301  21.278  0.00  0.00    +0.000 HD
ATOM     36  H   UNL     1      -5.874  12.355  24.735  0.00  0.00    +0.000 HD
BRANCH  34  37
ATOM     37  N   UNL     1      -7.812  12.818  24.180  0.00  0.00    +0.000 NA
ATOM     38  H   UNL     1      -7.945  11.898  23.728  0.00  0.00    +0.000 HD
ATOM     39  H   UNL     1      -8.239  13.465  23.514  0.00  0.00    +0.000 HD
ENDBRANCH  34  37
ENDBRANCH  29  32
ENDBRANCH  25  26
ENDBRANCH   1  25
TORSDOF 11
ENDMDL
MODEL 3
REMARK VINA RESULT:      -7.7      6.643     10.750
REMARK  Name = 
REMARK  13 active torsions:
REMARK  status: ('A' for Active; 'I' for Inactive)
REMARK    1  A    between atoms: C_1  and  C_2
REMARK    2  A    between atoms: C_2  and  C_3
REMARK    3  A    between atoms: C_3  and  C_4
REMARK    4  A    between atoms: C_7  and  S_8
REMARK    5  A    between atoms: S_8  and  N_11
REMARK    6  A    between atoms: N_11  and  C_12
REMARK    7  A    between atoms: C_12  and  C_13
REMARK    8  A    between atoms: C_12  and  C_24
REMARK    9  A    between atoms: C_13  and  C_14
REMARK   10  A    between atoms: C_17  and  C_18
REMARK   11  A    between atoms: N_20  and  N_21
REMARK   12  A    between atoms: N_26  and  C_27
REMARK   13  A    between atoms: N_26  and  C_28
REMARK                            x       y       z     vdW  Elec       q    Type
REMARK                         _______ _______ _______ _____ _____    ______ ____
ROOT
ATOM      1  C   UNL     1       0.256  11.758  20.640  0.00  0.00    +0.000 C 
ENDROOT
BRANCH   1   2
ATOM      2  C   UNL     1       1.100  13.029  20.472  0.00  0.00    +0.000 C 
ATOM      3  O   UNL     1       1.926  13.311  21.346  0.00  0.00    +0.000 OA
ATOM      4  N   UNL     1       0.919  13.815  19.335  0.00  0.00    +0.000 N 
ATOM      5  C   UNL     1      -0.270  13.738  18.487  0.00  0.00    +0.000 C 
BRANCH   4   6
ATOM      6  C   UNL     1       1.908  14.872  19.056  0.00  0.00    +0.000 C 
ATOM      7  C   UNL     1       2.909  14.514  17.954  0.00  0.00    +0.000 C 
ATOM      8  C   UNL     1       3.533  15.850  17.572  0.00  0.00    +0.000 C 
ATOM      9  C   UNL     1       2.468  16.906  17.855  0.00  0.00    +0.000 C 
ATOM     10  C   UNL     1       1.320  16.200  18.576  0.00  0.00    +0.000 C 
ENDBRANCH   4   6
ENDBRANCH   1   2
BRANCH   1  11
ATOM     11  N   UNL     1       1.096  10.545  20.356  0.00  0.00    +0.000 NA
ATOM     12  H   UNL     1       2.021  10.650  20.780  0.00  0.00    +0.000 HD
BRANCH  11  13
ATOM     13  S   UNL     1       1.243  10.110  18.724  0.00  0.00    +0.000 S 
ATOM     14  O   UNL     1       2.200  11.005  18.099  0.00  0.00    +0.000 OA
ATOM     15  O   UNL     1      -0.096   9.961  18.201  0.00  0.00    +0.000 OA
BRANCH  13  19
ATOM     16  C   UNL     1       3.090   5.953  19.008  0.00  0.00    +0.000 A 
ATOM     17  C   UNL     1       2.347   6.484  20.074  0.00  0.00    +0.000 A 
ATOM     18  C   UNL     1       1.762   7.744  19.971  0.00  0.00    +0.000 A 
ATOM     19  C   UNL     1       1.944   8.489  18.804  0.00  0.00    +0.000 A 
ATOM     20  C   UNL     1       2.677   7.974  17.731  0.00  0.00    +0.000 A 
ATOM     21  C   UNL     1       3.255   6.711  17.840  0.00  0.00    +0.000 A 
BRANCH  16  22
ATOM     22  C   UNL     1       3.665   4.561  19.114  0.00  0.00    +0.000 C 
BRANCH  22  24
ATOM     23  C   UNL     1       6.075   5.306  19.279  0.00  0.00    +0.000 C 
ATOM     24  C   UNL     1       5.059   4.508  18.484  0.00  0.00    +0.000 C 
ENDBRANCH  22  24
ENDBRANCH  16  22
ENDBRANCH  13  19
ENDBRANCH  11  13
ENDBRANCH   1  11
BRANCH   1  25
ATOM     25  C   UNL     1      -0.278  11.716  22.089  0.00  0.00    +0.000 C 
BRANCH  25  26
ATOM     26  C   UNL     1      -1.757  11.999  22.277  0.00  0.00    +0.000 A 
ATOM     27  C   UNL     1      -2.501  12.494  21.193  0.00  0.00    +0.000 A 
ATOM     28  C   UNL     1      -3.806  12.962  21.378  0.00  0.00    +0.000 A 
ATOM     29  C   UNL     1      -4.386  12.933  22.650  0.00  0.00    +0.000 A 
ATOM     30  C   UNL     1      -3.693  12.333  23.705  0.00  0.00    +0.000 A 
ATOM     31  C   UNL     1      -2.401  11.844  23.511  0.00  0.00    +0.000 A 
BRANCH  29  32
ATOM     32  C   UNL     1      -5.679  13.644  22.918  0.00  0.00    +0.000 C 
ATOM     33  N   UNL     1      -6.508  13.938  21.954  0.00  0.00    +0.000 NA
ATOM     34  N   UNL     1      -6.015  13.942  24.235  0.00  0.00    +0.000 N 
ATOM     35  H   UNL     1      -6.128  13.671  21.044  0.00  0.00    +0.000 HD
ATOM     36  H   UNL     1      -5.483  13.459  24.958  0.00  0.00    +0.000 HD
BRANCH  34  37
ATOM     37  N   UNL     1      -7.415  14.022  24.481  0.00  0.00    +0.000 NA
ATOM     38  H   UNL     1      -7.821  14.534  23.679  0.00  0.00    +0.000 HD
ATOM     39  H   UNL     1      -7.578  14.657  25.265  0.00  0.00    +0.000 HD
ENDBRANCH  34  37
ENDBRANCH  29  32
ENDBRANCH  25  26
ENDBRANCH   1  25
TORSDOF 11
ENDMDL
MODEL 4
REMARK VINA RESULT:      -7.7      6.680     11.805
REMARK  Name = 
REMARK  13 active torsions:
REMARK  status: ('A' for Active; 'I' for Inactive)
REMARK    1  A    between atoms: C_1  and  C_2
REMARK    2  A    between atoms: C_2  and  C_3
REMARK    3  A    between atoms: C_3  and  C_4
REMARK    4  A    between atoms: C_7  and  S_8
REMARK    5  A    between atoms: S_8  and  N_11
REMARK    6  A    between atoms: N_11  and  C_12
REMARK    7  A    between atoms: C_12  and  C_13
REMARK    8  A    between atoms: C_12  and  C_24
REMARK    9  A    between atoms: C_13  and  C_14
REMARK   10  A    between atoms: C_17  and  C_18
REMARK   11  A    between atoms: N_20  and  N_21
REMARK   12  A    between atoms: N_26  and  C_27
REMARK   13  A    between atoms: N_26  and  C_28
REMARK                            x       y       z     vdW  Elec       q    Type
REMARK                         _______ _______ _______ _____ _____    ______ ____
ROOT
ATOM      1  C   UNL     1      -1.986  12.106  19.667  0.00  0.00    +0.000 C 
ENDROOT
BRANCH   1   2
ATOM      2  C   UNL     1      -2.776  12.996  20.636  0.00  0.00    +0.000 C 
ATOM      3  O   UNL     1      -3.850  12.579  21.081  0.00  0.00    +0.000 OA
ATOM      4  N   UNL     1      -2.252  14.237  20.995  0.00  0.00    +0.000 N 
ATOM      5  C   UNL     1      -1.208  14.919  20.230  0.00  0.00    +0.000 C 
BRANCH   4   6
ATOM      6  C   UNL     1      -2.878  14.959  22.117  0.00  0.00    +0.000 C 
ATOM      7  C   UNL     1      -2.545  14.379  23.495  0.00  0.00    +0.000 C 
ATOM      8  C   UNL     1      -2.941  15.481  24.468  0.00  0.00    +0.000 C 
ATOM      9  C   UNL     1      -2.774  16.793  23.704  0.00  0.00    +0.000 C 
ATOM     10  C   UNL     1      -2.475  16.427  22.251  0.00  0.00    +0.000 C 
ENDBRANCH   4   6
ENDBRANCH   1   2
BRANCH   1  11
ATOM     11  N   UNL     1      -0.804  11.503  20.375  0.00  0.00    +0.000 NA
ATOM     12  H   UNL     1      -0.753  11.852  21.335  0.00  0.00    +0.000 HD
BRANCH  11  13
ATOM     13  S   UNL     1       0.694  11.683  19.602  0.00  0.00    +0.000 S 
ATOM     14  O   UNL     1       1.593  12.377  20.507  0.00  0.00    +0.000 OA
ATOM     15  O   UNL     1       0.429  12.190  18.274  0.00  0.00    +0.000 OA
BRANCH  13  19
ATOM     16  C   UNL     1       2.173   7.392  19.186  0.00  0.00    +0.000 A 
ATOM     17  C   UNL     1       1.600   7.843  20.385  0.00  0.00    +0.000 A 
ATOM     18  C   UNL     1       1.125   9.147  20.498  0.00  0.00    +0.000 A 
ATOM     19  C   UNL     1       1.248  10.016  19.412  0.00  0.00    +0.000 A 
ATOM     20  C   UNL     1       1.812   9.583  18.208  0.00  0.00    +0.000 A 
ATOM     21  C   UNL     1       2.281   8.276  18.101  0.00  0.00    +0.000 A 
BRANCH  16  22
ATOM     22  C   UNL     1       2.626   5.958  19.062  0.00  0.00    +0.000 C 
BRANCH  22  24
ATOM     23  C   UNL     1       1.664   3.820  18.112  0.00  0.00    +0.000 C 
ATOM     24  C   UNL     1       1.959   5.287  17.858  0.00  0.00    +0.000 C 
ENDBRANCH  22  24
ENDBRANCH  16  22
ENDBRANCH  13  19
ENDBRANCH  11  13
ENDBRANCH   1  11
BRANCH   1  25
ATOM     25  C   UNL     1      -2.926  10.997  19.148  0.00  0.00    +0.000 C 
BRANCH  25  26
ATOM     26  C   UNL     1      -3.025  10.840  17.641  0.00  0.00    +0.000 A 
ATOM     27  C   UNL     1      -4.052  11.502  16.952  0.00  0.00    +0.000 A 
ATOM     28  C   UNL     1      -4.305  11.220  15.605  0.00  0.00    +0.000 A 
ATOM     29  C   UNL     1      -3.525  10.276  14.929  0.00  0.00    +0.000 A 
ATOM     30  C   UNL     1      -2.428   9.705  15.579  0.00  0.00    +0.000 A 
ATOM     31  C   UNL     1      -2.164  10.007  16.915  0.00  0.00    +0.000 A 
BRANCH  29  32
ATOM     32  C   UNL     1      -3.924   9.785  13.570  0.00  0.00    +0.000 C 
ATOM     33  N   UNL     1      -5.173   9.559  13.266  0.00  0.00    +0.000 NA
ATOM     34  N   UNL     1      -2.937   9.621  12.604  0.00  0.00    +0.000 N 
ATOM     35  H   UNL     1      -5.784   9.709  14.071  0.00  0.00    +0.000 HD
ATOM     36  H   UNL     1      -2.038  10.064  12.797  0.00  0.00    +0.000 HD
BRANCH  34  37
ATOM     37  N   UNL     1      -3.395   9.767  11.264  0.00  0.00    +0.000 NA
ATOM     38  H   UNL     1      -2.839  10.533  10.850  0.00  0.00    +0.000 HD
ATOM     39  H   UNL     1      -4.342  10.152  11.278  0.00  0.00    +0.000 HD
ENDBRANCH  34  37
ENDBRANCH  29  32
ENDBRANCH  25  26
ENDBRANCH   1  25
TORSDOF 11
ENDMDL
MODEL 5
REMARK VINA RESULT:      -7.6      5.393     10.113
REMARK  Name = 
REMARK  13 active torsions:
REMARK  status: ('A' for Active; 'I' for Inactive)
REMARK    1  A    between atoms: C_1  and  C_2
REMARK    2  A    between atoms: C_2  and  C_3
REMARK    3  A    between atoms: C_3  and  C_4
REMARK    4  A    between atoms: C_7  and  S_8
REMARK    5  A    between atoms: S_8  and  N_11
REMARK    6  A    between atoms: N_11  and  C_12
REMARK    7  A    between atoms: C_12  and  C_13
REMARK    8  A    between atoms: C_12  and  C_24
REMARK    9  A    between atoms: C_13  and  C_14
REMARK   10  A    between atoms: C_17  and  C_18
REMARK   11  A    between atoms: N_20  and  N_21
REMARK   12  A    between atoms: N_26  and  C_27
REMARK   13  A    between atoms: N_26  and  C_28
REMARK                            x       y       z     vdW  Elec       q    Type
REMARK                         _______ _______ _______ _____ _____    ______ ____
ROOT
ATOM      1  C   UNL     1      -0.634  11.664  20.003  0.00  0.00    +0.000 C 
ENDROOT
BRANCH   1   2
ATOM      2  C   UNL     1      -1.967  12.210  20.532  0.00  0.00    +0.000 C 
ATOM      3  O   UNL     1      -2.949  12.201  19.783  0.00  0.00    +0.000 OA
ATOM      4  N   UNL     1      -2.032  12.684  21.841  0.00  0.00    +0.000 N 
ATOM      5  C   UNL     1      -0.851  13.059  22.618  0.00  0.00    +0.000 C 
BRANCH   4   6
ATOM      6  C   UNL     1      -3.361  12.954  22.418  0.00  0.00    +0.000 C 
ATOM      7  C   UNL     1      -3.617  12.246  23.751  0.00  0.00    +0.000 C 
ATOM      8  C   UNL     1      -4.826  12.970  24.330  0.00  0.00    +0.000 C 
ATOM      9  C   UNL     1      -4.764  14.393  23.780  0.00  0.00    +0.000 C 
ATOM     10  C   UNL     1      -3.642  14.422  22.743  0.00  0.00    +0.000 C 
ENDBRANCH   4   6
ENDBRANCH   1   2
BRANCH   1  11
ATOM     11  N   UNL     1      -0.678  10.162  19.958  0.00  0.00    +0.000 NA
ATOM     12  H   UNL     1      -1.640   9.834  20.073  0.00  0.00    +0.000 HD
BRANCH  11  13
ATOM     13  S   UNL     1       0.350   9.357  21.040  0.00  0.00    +0.000 S 
ATOM     14  O   UNL     1      -0.453   8.454  21.845  0.00  0.00    +0.000 OA
ATOM     15  O   UNL     1       1.193  10.360  21.652  0.00  0.00    +0.000 OA
BRANCH  13  19
ATOM     16  C   UNL     1       3.083   6.892  18.351  0.00  0.00    +0.000 A 
ATOM     17  C   UNL     1       2.718   6.428  19.625  0.00  0.00    +0.000 A 
ATOM     18  C   UNL     1       1.861   7.173  20.431  0.00  0.00    +0.000 A 
ATOM     19  C   UNL     1       1.386   8.403  19.972  0.00  0.00    +0.000 A 
ATOM     20  C   UNL     1       1.736   8.878  18.705  0.00  0.00    +0.000 A 
ATOM     21  C   UNL     1       2.589   8.126  17.902  0.00  0.00    +0.000 A 
BRANCH  16  22
ATOM     22  C   UNL     1       3.963   6.043  17.466  0.00  0.00    +0.000 C 
BRANCH  22  24
ATOM     23  C   UNL     1       4.434   3.561  17.590  0.00  0.00    +0.000 C 
ATOM     24  C   UNL     1       3.387   4.630  17.336  0.00  0.00    +0.000 C 
ENDBRANCH  22  24
ENDBRANCH  16  22
ENDBRANCH  13  19
ENDBRANCH  11  13
ENDBRANCH   1  11
BRANCH   1  25
ATOM     25  C   UNL     1      -0.399  12.237  18.589  0.00  0.00    +0.000 C 
BRANCH  25  26
ATOM     26  C   UNL     1       0.397  13.527  18.502  0.00  0.00    +0.000 A 
ATOM     27  C   UNL     1       1.766  13.466  18.200  0.00  0.00    +0.000 A 
ATOM     28  C   UNL     1       2.574  14.602  18.316  0.00  0.00    +0.000 A 
ATOM     29  C   UNL     1       2.018  15.817  18.728  0.00  0.00    +0.000 A 
ATOM     30  C   UNL     1       0.636  15.909  18.914  0.00  0.00    +0.000 A 
ATOM     31  C   UNL     1      -0.170  14.779  18.773  0.00  0.00    +0.000 A 
BRANCH  29  32
ATOM     32  C   UNL     1       2.896  16.978  19.089  0.00  0.00    +0.000 C 
ATOM     33  N   UNL     1       2.394  18.120  19.471  0.00  0.00    +0.000 NA
ATOM     34  N   UNL     1       4.276  16.803  19.062  0.00  0.00    +0.000 N 
ATOM     35  H   UNL     1       1.373  18.108  19.432  0.00  0.00    +0.000 HD
ATOM     36  H   UNL     1       4.609  15.840  19.029  0.00  0.00    +0.000 HD
BRANCH  34  37
ATOM     37  N   UNL     1       4.993  17.648  19.956  0.00  0.00    +0.000 NA
ATOM     38  H   UNL     1       5.996  17.454  19.795  0.00  0.00    +0.000 HD
ATOM     39  H   UNL     1       4.846  17.320  20.912  0.00  0.00    +0.000 HD
ENDBRANCH  34  37
ENDBRANCH  29  32
ENDBRANCH  25  26
ENDBRANCH   1  25
TORSDOF 11
ENDMDL
MODEL 6
REMARK VINA RESULT:      -7.6      5.733      8.982
REMARK  Name = 
REMARK  13 active torsions:
REMARK  status: ('A' for Active; 'I' for Inactive)
REMARK    1  A    between atoms: C_1  and  C_2
REMARK    2  A    between atoms: C_2  and  C_3
REMARK    3  A    between atoms: C_3  and  C_4
REMARK    4  A    between atoms: C_7  and  S_8
REMARK    5  A    between atoms: S_8  and  N_11
REMARK    6  A    between atoms: N_11  and  C_12
REMARK    7  A    between atoms: C_12  and  C_13
REMARK    8  A    between atoms: C_12  and  C_24
REMARK    9  A    between atoms: C_13  and  C_14
REMARK   10  A    between atoms: C_17  and  C_18
REMARK   11  A    between atoms: N_20  and  N_21
REMARK   12  A    between atoms: N_26  and  C_27
REMARK   13  A    between atoms: N_26  and  C_28
REMARK                            x       y       z     vdW  Elec       q    Type
REMARK                         _______ _______ _______ _____ _____    ______ ____
ROOT
ATOM      1  C   UNL     1       0.944   9.213  19.312  0.00  0.00    +0.000 C 
ENDROOT
BRANCH   1   2
ATOM      2  C   UNL     1       1.922   8.303  18.556  0.00  0.00    +0.000 C 
ATOM      3  O   UNL     1       2.314   8.654  17.438  0.00  0.00    +0.000 OA
ATOM      4  N   UNL     1       2.346   7.119  19.156  0.00  0.00    +0.000 N 
ATOM      5  C   UNL     1       1.642   6.489  20.273  0.00  0.00    +0.000 C 
BRANCH   4   6
ATOM      6  C   UNL     1       3.475   6.394  18.545  0.00  0.00    +0.000 C 
ATOM      7  C   UNL     1       4.360   5.656  19.553  0.00  0.00    +0.000 C 
ATOM      8  C   UNL     1       5.169   4.689  18.699  0.00  0.00    +0.000 C 
ATOM      9  C   UNL     1       4.295   4.368  17.488  0.00  0.00    +0.000 C 
ATOM     10  C   UNL     1       3.082   5.296  17.557  0.00  0.00    +0.000 C 
ENDBRANCH   4   6
ENDBRANCH   1   2
BRANCH   1  11
ATOM     11  N   UNL     1       1.559   9.656  20.610  0.00  0.00    +0.000 NA
ATOM     12  H   UNL     1       2.458   9.189  20.752  0.00  0.00    +0.000 HD
BRANCH  11  13
ATOM     13  S   UNL     1       0.585   9.488  21.988  0.00  0.00    +0.000 S 
ATOM     14  O   UNL     1       1.449   9.255  23.131  0.00  0.00    +0.000 OA
ATOM     15  O   UNL     1      -0.476   8.565  21.648  0.00  0.00    +0.000 OA
BRANCH  13  19
ATOM     16  C   UNL     1      -1.252  13.636  22.427  0.00  0.00    +0.000 A 
ATOM     17  C   UNL     1      -0.104  13.437  21.644  0.00  0.00    +0.000 A 
ATOM     18  C   UNL     1       0.437  12.163  21.492  0.00  0.00    +0.000 A 
ATOM     19  C   UNL     1      -0.158  11.083  22.148  0.00  0.00    +0.000 A 
ATOM     20  C   UNL     1      -1.305  11.263  22.928  0.00  0.00    +0.000 A 
ATOM     21  C   UNL     1      -1.843  12.540  23.071  0.00  0.00    +0.000 A 
BRANCH  16  22
ATOM     22  C   UNL     1      -1.860  15.014  22.531  0.00  0.00    +0.000 C 
BRANCH  22  24
ATOM     23  C   UNL     1      -3.646  15.603  24.221  0.00  0.00    +0.000 C 
ATOM     24  C   UNL     1      -2.167  15.355  23.992  0.00  0.00    +0.000 C 
ENDBRANCH  22  24
ENDBRANCH  16  22
ENDBRANCH  13  19
ENDBRANCH  11  13
ENDBRANCH   1  11
BRANCH   1  25
ATOM     25  C   UNL     1       0.628  10.434  18.422  0.00  0.00    +0.000 C 
BRANCH  25  26
ATOM     26  C   UNL     1      -0.833  10.665  18.079  0.00  0.00    +0.000 A 
ATOM     27  C   UNL     1      -1.492  11.781  18.617  0.00  0.00    +0.000 A 
ATOM     28  C   UNL     1      -2.879  11.917  18.499  0.00  0.00    +0.000 A 
ATOM     29  C   UNL     1      -3.624  10.938  17.832  0.00  0.00    +0.000 A 
ATOM     30  C   UNL     1      -2.958   9.888  17.194  0.00  0.00    +0.000 A 
ATOM     31  C   UNL     1      -1.570   9.770  17.293  0.00  0.00    +0.000 A 
BRANCH  29  32
ATOM     32  C   UNL     1      -5.122  10.937  17.900  0.00  0.00    +0.000 C 
ATOM     33  N   UNL     1      -5.762  10.273  18.823  0.00  0.00    +0.000 NA
ATOM     34  N   UNL     1      -5.831  11.707  16.985  0.00  0.00    +0.000 N 
ATOM     35  H   UNL     1      -5.117   9.746  19.416  0.00  0.00    +0.000 HD
ATOM     36  H   UNL     1      -5.295  12.409  16.474  0.00  0.00    +0.000 HD
BRANCH  34  37
ATOM     37  N   UNL     1      -7.100  12.153  17.450  0.00  0.00    +0.000 NA
ATOM     38  H   UNL     1      -7.605  11.308  17.767  0.00  0.00    +0.000 HD
ATOM     39  H   UNL     1      -7.655  12.464  16.650  0.00  0.00    +0.000 HD
ENDBRANCH  34  37
ENDBRANCH  29  32
ENDBRANCH  25  26
ENDBRANCH   1  25
TORSDOF 11
ENDMDL
MODEL 7
REMARK VINA RESULT:      -7.6      6.025     10.247
REMARK  Name = 
REMARK  13 active torsions:
REMARK  status: ('A' for Active; 'I' for Inactive)
REMARK    1  A    between atoms: C_1  and  C_2
REMARK    2  A    between atoms: C_2  and  C_3
REMARK    3  A    between atoms: C_3  and  C_4
REMARK    4  A    between atoms: C_7  and  S_8
REMARK    5  A    between atoms: S_8  and  N_11
REMARK    6  A    between atoms: N_11  and  C_12
REMARK    7  A    between atoms: C_12  and  C_13
REMARK    8  A    between atoms: C_12  and  C_24
REMARK    9  A    between atoms: C_13  and  C_14
REMARK   10  A    between atoms: C_17  and  C_18
REMARK   11  A    between atoms: N_20  and  N_21
REMARK   12  A    between atoms: N_26  and  C_27
REMARK   13  A    between atoms: N_26  and  C_28
REMARK                            x       y       z     vdW  Elec       q    Type
REMARK                         _______ _______ _______ _____ _____    ______ ____
ROOT
ATOM      1  C   UNL     1       0.110  11.635  19.647  0.00  0.00    +0.000 C 
ENDROOT
BRANCH   1   2
ATOM      2  C   UNL     1       0.304  12.932  18.850  0.00  0.00    +0.000 C 
ATOM      3  O   UNL     1      -0.501  13.203  17.953  0.00  0.00    +0.000 OA
ATOM      4  N   UNL     1       1.372  13.769  19.170  0.00  0.00    +0.000 N 
ATOM      5  C   UNL     1       2.536  13.327  19.938  0.00  0.00    +0.000 C 
BRANCH   4   6
ATOM      6  C   UNL     1       1.394  15.123  18.587  0.00  0.00    +0.000 C 
ATOM      7  C   UNL     1       0.966  16.227  19.558  0.00  0.00    +0.000 C 
ATOM      8  C   UNL     1       1.446  17.511  18.895  0.00  0.00    +0.000 C 
ATOM      9  C   UNL     1       2.668  17.123  18.066  0.00  0.00    +0.000 C 
ATOM     10  C   UNL     1       2.764  15.598  18.102  0.00  0.00    +0.000 C 
ENDBRANCH   4   6
ENDBRANCH   1   2
BRANCH   1  11
ATOM     11  N   UNL     1      -1.189  11.690  20.402  0.00  0.00    +0.000 NA
ATOM     12  H   UNL     1      -1.792  12.420  20.015  0.00  0.00    +0.000 HD
BRANCH  11  13
ATOM     13  S   UNL     1      -1.061  11.863  22.085  0.00  0.00    +0.000 S 
ATOM     14  O   UNL     1      -0.062  12.879  22.362  0.00  0.00    +0.000 OA
ATOM     15  O   UNL     1      -0.955  10.534  22.642  0.00  0.00    +0.000 OA
BRANCH  13  19
ATOM     16  C   UNL     1      -5.136  13.547  23.241  0.00  0.00    +0.000 A 
ATOM     17  C   UNL     1      -4.611  13.751  21.955  0.00  0.00    +0.000 A 
ATOM     18  C   UNL     1      -3.378  13.211  21.599  0.00  0.00    +0.000 A 
ATOM     19  C   UNL     1      -2.651  12.484  22.543  0.00  0.00    +0.000 A 
ATOM     20  C   UNL     1      -3.160  12.267  23.827  0.00  0.00    +0.000 A 
ATOM     21  C   UNL     1      -4.396  12.806  24.175  0.00  0.00    +0.000 A 
BRANCH  16  22
ATOM     22  C   UNL     1      -6.501  14.087  23.590  0.00  0.00    +0.000 C 
BRANCH  22  24
ATOM     23  C   UNL     1      -7.916  12.063  23.049  0.00  0.00    +0.000 C 
ATOM     24  C   UNL     1      -7.393  12.973  24.145  0.00  0.00    +0.000 C 
ENDBRANCH  22  24
ENDBRANCH  16  22
ENDBRANCH  13  19
ENDBRANCH  11  13
ENDBRANCH   1  11
BRANCH   1  25
ATOM     25  C   UNL     1       0.107  10.451  18.656  0.00  0.00    +0.000 C 
BRANCH  25  26
ATOM     26  C   UNL     1       1.056   9.306  18.963  0.00  0.00    +0.000 A 
ATOM     27  C   UNL     1       1.850   8.783  17.930  0.00  0.00    +0.000 A 
ATOM     28  C   UNL     1       2.576   7.602  18.118  0.00  0.00    +0.000 A 
ATOM     29  C   UNL     1       2.523   6.935  19.346  0.00  0.00    +0.000 A 
ATOM     30  C   UNL     1       1.830   7.516  20.410  0.00  0.00    +0.000 A 
ATOM     31  C   UNL     1       1.126   8.707  20.227  0.00  0.00    +0.000 A 
BRANCH  29  32
ATOM     32  C   UNL     1       3.093   5.556  19.493  0.00  0.00    +0.000 C 
ATOM     33  N   UNL     1       2.339   4.494  19.409  0.00  0.00    +0.000 NA
ATOM     34  N   UNL     1       4.466   5.418  19.670  0.00  0.00    +0.000 N 
ATOM     35  H   UNL     1       1.356   4.745  19.290  0.00  0.00    +0.000 HD
ATOM     36  H   UNL     1       5.034   6.237  19.456  0.00  0.00    +0.000 HD
BRANCH  34  37
ATOM     37  N   UNL     1       4.999   4.185  19.196  0.00  0.00    +0.000 NA
ATOM     38  H   UNL     1       4.779   3.479  19.918  0.00  0.00    +0.000 HD
ATOM     39  H   UNL     1       6.019   4.233  19.225  0.00  0.00    +0.000 HD
ENDBRANCH  34  37
ENDBRANCH  29  32
ENDBRANCH  25  26
ENDBRANCH   1  25
TORSDOF 11
ENDMDL
MODEL 8
REMARK VINA RESULT:      -7.6      6.121     10.307
REMARK  Name = 
REMARK  13 active torsions:
REMARK  status: ('A' for Active; 'I' for Inactive)
REMARK    1  A    between atoms: C_1  and  C_2
REMARK    2  A    between atoms: C_2  and  C_3
REMARK    3  A    between atoms: C_3  and  C_4
REMARK    4  A    between atoms: C_7  and  S_8
REMARK    5  A    between atoms: S_8  and  N_11
REMARK    6  A    between atoms: N_11  and  C_12
REMARK    7  A    between atoms: C_12  and  C_13
REMARK    8  A    between atoms: C_12  and  C_24
REMARK    9  A    between atoms: C_13  and  C_14
REMARK   10  A    between atoms: C_17  and  C_18
REMARK   11  A    between atoms: N_20  and  N_21
REMARK   12  A    between atoms: N_26  and  C_27
REMARK   13  A    between atoms: N_26  and  C_28
REMARK                            x       y       z     vdW  Elec       q    Type
REMARK                         _______ _______ _______ _____ _____    ______ ____
ROOT
ATOM      1  C   UNL     1       0.253  11.739  20.839  0.00  0.00    +0.000 C 
ENDROOT
BRANCH   1   2
ATOM      2  C   UNL     1       1.215  12.910  20.602  0.00  0.00    +0.000 C 
ATOM      3  O   UNL     1       2.175  13.051  21.367  0.00  0.00    +0.000 OA
ATOM      4  N   UNL     1       0.985  13.769  19.529  0.00  0.00    +0.000 N 
ATOM      5  C   UNL     1      -0.304  13.871  18.846  0.00  0.00    +0.000 C 
BRANCH   4   6
ATOM      6  C   UNL     1       2.049  14.718  19.156  0.00  0.00    +0.000 C 
ATOM      7  C   UNL     1       2.977  14.211  18.048  0.00  0.00    +0.000 C 
ATOM      8  C   UNL     1       3.699  15.462  17.566  0.00  0.00    +0.000 C 
ATOM      9  C   UNL     1       2.738  16.622  17.817  0.00  0.00    +0.000 C 
ATOM     10  C   UNL     1       1.560  16.061  18.613  0.00  0.00    +0.000 C 
ENDBRANCH   4   6
ENDBRANCH   1   2
BRANCH   1  11
ATOM     11  N   UNL     1      -1.093  12.259  21.262  0.00  0.00    +0.000 NA
ATOM     12  H   UNL     1      -1.260  13.180  20.849  0.00  0.00    +0.000 HD
BRANCH  11  13
ATOM     13  S   UNL     1      -1.379  12.302  22.933  0.00  0.00    +0.000 S 
ATOM     14  O   UNL     1      -0.736  13.486  23.474  0.00  0.00    +0.000 OA
ATOM     15  O   UNL     1      -1.082  10.984  23.449  0.00  0.00    +0.000 OA
BRANCH  13  19
ATOM     16  C   UNL     1      -5.905  12.751  23.233  0.00  0.00    +0.000 A 
ATOM     17  C   UNL     1      -5.128  12.511  24.377  0.00  0.00    +0.000 A 
ATOM     18  C   UNL     1      -3.743  12.402  24.283  0.00  0.00    +0.000 A 
ATOM     19  C   UNL     1      -3.131  12.506  23.032  0.00  0.00    +0.000 A 
ATOM     20  C   UNL     1      -3.889  12.750  21.883  0.00  0.00    +0.000 A 
ATOM     21  C   UNL     1      -5.273  12.863  21.985  0.00  0.00    +0.000 A 
BRANCH  16  22
ATOM     22  C   UNL     1      -7.398  12.927  23.362  0.00  0.00    +0.000 C 
BRANCH  22  24
ATOM     23  C   UNL     1      -7.917  15.402  23.313  0.00  0.00    +0.000 C 
ATOM     24  C   UNL     1      -7.720  14.177  24.187  0.00  0.00    +0.000 C 
ENDBRANCH  22  24
ENDBRANCH  16  22
ENDBRANCH  13  19
ENDBRANCH  11  13
ENDBRANCH   1  11
BRANCH   1  25
ATOM     25  C   UNL     1       0.130  10.936  19.525  0.00  0.00    +0.000 C 
BRANCH  25  26
ATOM     26  C   UNL     1       1.008   9.705  19.396  0.00  0.00    +0.000 A 
ATOM     27  C   UNL     1       1.529   9.366  18.137  0.00  0.00    +0.000 A 
ATOM     28  C   UNL     1       2.163   8.136  17.935  0.00  0.00    +0.000 A 
ATOM     29  C   UNL     1       2.291   7.232  18.994  0.00  0.00    +0.000 A 
ATOM     30  C   UNL     1       1.881   7.615  20.274  0.00  0.00    +0.000 A 
ATOM     31  C   UNL     1       1.271   8.854  20.477  0.00  0.00    +0.000 A 
BRANCH  29  32
ATOM     32  C   UNL     1       2.746   5.824  18.749  0.00  0.00    +0.000 C 
ATOM     33  N   UNL     1       3.752   5.309  19.402  0.00  0.00    +0.000 NA
ATOM     34  N   UNL     1       2.038   5.044  17.841  0.00  0.00    +0.000 N 
ATOM     35  H   UNL     1       4.182   5.996  20.024  0.00  0.00    +0.000 HD
ATOM     36  H   UNL     1       1.118   5.389  17.570  0.00  0.00    +0.000 HD
BRANCH  34  37
ATOM     37  N   UNL     1       2.096   3.645  18.097  0.00  0.00    +0.000 NA
ATOM     38  H   UNL     1       1.150   3.275  17.902  0.00  0.00    +0.000 HD
ATOM     39  H   UNL     1       2.198   3.496  19.103  0.00  0.00    +0.000 HD
ENDBRANCH  34  37
ENDBRANCH  29  32
ENDBRANCH  25  26
ENDBRANCH   1  25
TORSDOF 11
ENDMDL
MODEL 9
REMARK VINA RESULT:      -7.5      6.859     10.924
REMARK  Name = 
REMARK  13 active torsions:
REMARK  status: ('A' for Active; 'I' for Inactive)
REMARK    1  A    between atoms: C_1  and  C_2
REMARK    2  A    between atoms: C_2  and  C_3
REMARK    3  A    between atoms: C_3  and  C_4
REMARK    4  A    between atoms: C_7  and  S_8
REMARK    5  A    between atoms: S_8  and  N_11
REMARK    6  A    between atoms: N_11  and  C_12
REMARK    7  A    between atoms: C_12  and  C_13
REMARK    8  A    between atoms: C_12  and  C_24
REMARK    9  A    between atoms: C_13  and  C_14
REMARK   10  A    between atoms: C_17  and  C_18
REMARK   11  A    between atoms: N_20  and  N_21
REMARK   12  A    between atoms: N_26  and  C_27
REMARK   13  A    between atoms: N_26  and  C_28
REMARK                            x       y       z     vdW  Elec       q    Type
REMARK                         _______ _______ _______ _____ _____    ______ ____
ROOT
ATOM      1  C   UNL     1       0.120  12.139  20.844  0.00  0.00    +0.000 C 
ENDROOT
BRANCH   1   2
ATOM      2  C   UNL     1       0.969  13.395  20.604  0.00  0.00    +0.000 C 
ATOM      3  O   UNL     1       1.736  13.770  21.496  0.00  0.00    +0.000 OA
ATOM      4  N   UNL     1       0.859  14.063  19.386  0.00  0.00    +0.000 N 
ATOM      5  C   UNL     1      -0.273  13.891  18.476  0.00  0.00    +0.000 C 
BRANCH   4   6
ATOM      6  C   UNL     1       1.860  15.097  19.066  0.00  0.00    +0.000 C 
ATOM      7  C   UNL     1       2.886  14.666  18.014  0.00  0.00    +0.000 C 
ATOM      8  C   UNL     1       3.528  15.973  17.565  0.00  0.00    +0.000 C 
ATOM      9  C   UNL     1       2.461  17.049  17.755  0.00  0.00    +0.000 C 
ATOM     10  C   UNL     1       1.292  16.393  18.489  0.00  0.00    +0.000 C 
ENDBRANCH   4   6
ENDBRANCH   1   2
BRANCH   1  11
ATOM     11  N   UNL     1       0.953  10.908  20.621  0.00  0.00    +0.000 NA
ATOM     12  H   UNL     1       1.903  11.058  20.971  0.00  0.00    +0.000 HD
BRANCH  11  13
ATOM     13  S   UNL     1       0.997  10.320  19.031  0.00  0.00    +0.000 S 
ATOM     14  O   UNL     1       1.996  11.073  18.295  0.00  0.00    +0.000 OA
ATOM     15  O   UNL     1      -0.371  10.238  18.571  0.00  0.00    +0.000 OA
BRANCH  13  19
ATOM     16  C   UNL     1       2.517   6.065  19.629  0.00  0.00    +0.000 A 
ATOM     17  C   UNL     1       1.926   6.773  20.687  0.00  0.00    +0.000 A 
ATOM     18  C   UNL     1       1.439   8.063  20.491  0.00  0.00    +0.000 A 
ATOM     19  C   UNL     1       1.567   8.660  19.235  0.00  0.00    +0.000 A 
ATOM     20  C   UNL     1       2.149   7.968  18.169  0.00  0.00    +0.000 A 
ATOM     21  C   UNL     1       2.630   6.676  18.371  0.00  0.00    +0.000 A 
BRANCH  16  22
ATOM     22  C   UNL     1       2.984   4.645  19.843  0.00  0.00    +0.000 C 
BRANCH  22  24
ATOM     23  C   UNL     1       0.844   3.319  20.080  0.00  0.00    +0.000 C 
ATOM     24  C   UNL     1       2.041   3.910  20.800  0.00  0.00    +0.000 C 
ENDBRANCH  22  24
ENDBRANCH  16  22
ENDBRANCH  13  19
ENDBRANCH  11  13
ENDBRANCH   1  11
BRANCH   1  25
ATOM     25  C   UNL     1      -0.407  12.177  22.295  0.00  0.00    +0.000 C 
BRANCH  25  26
ATOM     26  C   UNL     1      -1.823  12.687  22.491  0.00  0.00    +0.000 A 
ATOM     27  C   UNL     1      -2.206  13.891  21.881  0.00  0.00    +0.000 A 
ATOM     28  C   UNL     1      -3.424  14.499  22.203  0.00  0.00    +0.000 A 
ATOM     29  C   UNL     1      -4.279  13.902  23.136  0.00  0.00    +0.000 A 
ATOM     30  C   UNL     1      -3.955  12.646  23.655  0.00  0.00    +0.000 A 
ATOM     31  C   UNL     1      -2.750  12.031  23.311  0.00  0.00    +0.000 A 
BRANCH  29  32
ATOM     32  C   UNL     1      -5.465  14.645  23.672  0.00  0.00    +0.000 C 
ATOM     33  N   UNL     1      -5.325  15.710  24.414  0.00  0.00    +0.000 NA
ATOM     34  N   UNL     1      -6.739  14.210  23.321  0.00  0.00    +0.000 N 
ATOM     35  H   UNL     1      -4.339  15.905  24.600  0.00  0.00    +0.000 HD
ATOM     36  H   UNL     1      -6.795  13.562  22.536  0.00  0.00    +0.000 HD
BRANCH  34  37
ATOM     37  N   UNL     1      -7.729  15.233  23.316  0.00  0.00    +0.000 NA
ATOM     38  H   UNL     1      -7.457  15.897  22.572  0.00  0.00    +0.000 HD
ATOM     39  H   UNL     1      -7.633  15.790  24.168  0.00  0.00    +0.000 HD
ENDBRANCH  34  37
ENDBRANCH  29  32
ENDBRANCH  25  26
ENDBRANCH   1  25
TORSDOF 11
ENDMDL
