MODEL 1
REMARK VINA RESULT:      -9.3      0.000      0.000
REMARK  Name = 
REMARK  7 active torsions:
REMARK  status: ('A' for Active; 'I' for Inactive)
REMARK    1  A    between atoms: C_1  and  C_2
REMARK    2  A    between atoms: C_6  and  N_7
REMARK    3  A    between atoms: C_8  and  C_10
REMARK    4  A    between atoms: N_14  and  S_15
REMARK    5  A    between atoms: S_15  and  C_18
REMARK    6  A    between atoms: N_24  and  C_25
REMARK    7  A    between atoms: N_30  and  C_31
REMARK                            x       y       z     vdW  Elec       q    Type
REMARK                         _______ _______ _______ _____ _____    ______ ____
ROOT
ATOM      1  S   UNL     1       2.903   5.823  18.568  0.00  0.00    +0.000 S 
ATOM      2  O   UNL     1       4.060   6.400  17.926  0.00  0.00    +0.000 OA
ATOM      3  O   UNL     1       1.864   5.142  17.829  0.00  0.00    +0.000 OA
ENDROOT
BRANCH   1   4
ATOM      4  C   UNL     1       2.139   7.156  19.482  0.00  0.00    +0.000 A 
ATOM      5  C   UNL     1       1.590   6.932  20.740  0.00  0.00    +0.000 A 
ATOM      6  C   UNL     1       0.916   7.976  21.381  0.00  0.00    +0.000 A 
ATOM      7  C   UNL     1       0.783   9.244  20.778  0.00  0.00    +0.000 A 
ATOM      8  C   UNL     1       1.384   9.473  19.521  0.00  0.00    +0.000 A 
ATOM      9  C   UNL     1       2.042   8.411  18.877  0.00  0.00    +0.000 A 
ATOM     10  N   UNL     1       1.311  10.763  18.929  0.00  0.00    +0.000 N 
ATOM     11  C   UNL     1       2.139  11.164  17.806  0.00  0.00    +0.000 C 
ATOM     12  C   UNL     1       0.533  11.780  19.481  0.00  0.00    +0.000 A 
ATOM     13  O   UNL     1       0.483  12.917  19.016  0.00  0.00    +0.000 OA
ATOM     14  C   UNL     1      -0.269  11.465  20.744  0.00  0.00    +0.000 A 
ATOM     15  O   UNL     1      -1.101  12.279  21.135  0.00  0.00    +0.000 OA
ATOM     16  N   UNL     1       0.029  10.274  21.406  0.00  0.00    +0.000 N 
ATOM     17  C   UNL     1      -0.581  10.076  22.713  0.00  0.00    +0.000 C 
ENDBRANCH   1   4
BRANCH   1  22
ATOM     18  C   UNL     1       4.442   3.721  19.376  0.00  0.00    +0.000 C 
ATOM     19  C   UNL     1       3.556   2.558  18.938  0.00  0.00    +0.000 C 
ATOM     20  C   UNL     1       2.441   2.561  19.965  0.00  0.00    +0.000 C 
ATOM     21  C   UNL     1       2.357   3.997  20.480  0.00  0.00    +0.000 C 
ATOM     22  N   UNL     1       3.455   4.771  19.806  0.00  0.00    +0.000 NA
BRANCH  18  24
ATOM     23  N   UNL     1       5.213   3.674  17.068  0.00  0.00    +0.000 N 
ATOM     24  C   UNL     1       5.556   3.999  18.374  0.00  0.00    +0.000 C 
ATOM     25  O   UNL     1       6.585   4.576  18.718  0.00  0.00    +0.000 OA
ATOM     26  H   UNL     1       4.476   2.987  16.959  0.00  0.00    +0.000 HD
BRANCH  23  32
ATOM     27  C   UNL     1       5.683   3.244  12.171  0.00  0.00    +0.000 C 
ATOM     28  C   UNL     1       6.144   3.836  13.471  0.00  0.00    +0.000 A 
ATOM     29  C   UNL     1       7.163   4.792  13.487  0.00  0.00    +0.000 A 
ATOM     30  C   UNL     1       7.537   5.392  14.687  0.00  0.00    +0.000 A 
ATOM     31  C   UNL     1       6.900   5.038  15.879  0.00  0.00    +0.000 A 
ATOM     32  C   UNL     1       5.901   4.062  15.895  0.00  0.00    +0.000 A 
ATOM     33  C   UNL     1       5.524   3.471  14.680  0.00  0.00    +0.000 A 
ENDBRANCH  23  32
ENDBRANCH  18  24
ENDBRANCH   1  22
TORSDOF 4
ENDMDL
MODEL 2
REMARK VINA RESULT:      -9.0      1.162      2.298
REMARK  Name = 
REMARK  7 active torsions:
REMARK  status: ('A' for Active; 'I' for Inactive)
REMARK    1  A    between atoms: C_1  and  C_2
REMARK    2  A    between atoms: C_6  and  N_7
REMARK    3  A    between atoms: C_8  and  C_10
REMARK    4  A    between atoms: N_14  and  S_15
REMARK    5  A    between atoms: S_15  and  C_18
REMARK    6  A    between atoms: N_24  and  C_25
REMARK    7  A    between atoms: N_30  and  C_31
REMARK                            x       y       z     vdW  Elec       q    Type
REMARK                         _______ _______ _______ _____ _____    ______ ____
ROOT
ATOM      1  S   UNL     1       2.765   6.788  18.319  0.00  0.00    +0.000 S 
ATOM      2  O   UNL     1       4.054   7.148  17.780  0.00  0.00    +0.000 OA
ATOM      3  O   UNL     1       1.803   6.005  17.576  0.00  0.00    +0.000 OA
ENDROOT
BRANCH   1   4
ATOM      4  C   UNL     1       1.981   8.329  18.774  0.00  0.00    +0.000 A 
ATOM      5  C   UNL     1       2.043   9.434  17.932  0.00  0.00    +0.000 A 
ATOM      6  C   UNL     1       1.503  10.648  18.366  0.00  0.00    +0.000 A 
ATOM      7  C   UNL     1       0.898  10.772  19.634  0.00  0.00    +0.000 A 
ATOM      8  C   UNL     1       0.799   9.632  20.462  0.00  0.00    +0.000 A 
ATOM      9  C   UNL     1       1.364   8.422  20.024  0.00  0.00    +0.000 A 
ATOM     10  N   UNL     1       0.139   9.726  21.717  0.00  0.00    +0.000 N 
ATOM     11  C   UNL     1      -0.268   8.563  22.484  0.00  0.00    +0.000 C 
ATOM     12  C   UNL     1      -0.288  10.950  22.230  0.00  0.00    +0.000 A 
ATOM     13  O   UNL     1      -0.898  11.059  23.291  0.00  0.00    +0.000 OA
ATOM     14  C   UNL     1      -0.007  12.210  21.410  0.00  0.00    +0.000 A 
ATOM     15  O   UNL     1      -0.202  13.307  21.925  0.00  0.00    +0.000 OA
ATOM     16  N   UNL     1       0.420  12.030  20.094  0.00  0.00    +0.000 N 
ATOM     17  C   UNL     1       0.485  13.217  19.255  0.00  0.00    +0.000 C 
ENDBRANCH   1   4
BRANCH   1  22
ATOM     18  C   UNL     1       3.800   4.737  19.791  0.00  0.00    +0.000 C 
ATOM     19  C   UNL     1       2.725   3.678  19.563  0.00  0.00    +0.000 C 
ATOM     20  C   UNL     1       1.575   4.153  20.429  0.00  0.00    +0.000 C 
ATOM     21  C   UNL     1       1.752   5.665  20.556  0.00  0.00    +0.000 C 
ATOM     22  N   UNL     1       3.021   6.023  19.834  0.00  0.00    +0.000 NA
BRANCH  18  24
ATOM     23  N   UNL     1       4.662   4.413  17.538  0.00  0.00    +0.000 N 
ATOM     24  C   UNL     1       5.003   4.535  18.878  0.00  0.00    +0.000 C 
ATOM     25  O   UNL     1       6.149   4.611  19.318  0.00  0.00    +0.000 OA
ATOM     26  H   UNL     1       3.715   4.109  17.345  0.00  0.00    +0.000 HD
BRANCH  23  32
ATOM     27  C   UNL     1       5.454   3.474  12.755  0.00  0.00    +0.000 C 
ATOM     28  C   UNL     1       5.940   4.014  14.068  0.00  0.00    +0.000 A 
ATOM     29  C   UNL     1       7.187   4.641  14.154  0.00  0.00    +0.000 A 
ATOM     30  C   UNL     1       7.601   5.205  15.357  0.00  0.00    +0.000 A 
ATOM     31  C   UNL     1       6.778   5.144  16.484  0.00  0.00    +0.000 A 
ATOM     32  C   UNL     1       5.543   4.495  16.434  0.00  0.00    +0.000 A 
ATOM     33  C   UNL     1       5.128   3.938  15.215  0.00  0.00    +0.000 A 
ENDBRANCH  23  32
ENDBRANCH  18  24
ENDBRANCH   1  22
TORSDOF 4
ENDMDL
MODEL 3
REMARK VINA RESULT:      -8.9      1.077      2.185
REMARK  Name = 
REMARK  7 active torsions:
REMARK  status: ('A' for Active; 'I' for Inactive)
REMARK    1  A    between atoms: C_1  and  C_2
REMARK    2  A    between atoms: C_6  and  N_7
REMARK    3  A    between atoms: C_8  and  C_10
REMARK    4  A    between atoms: N_14  and  S_15
REMARK    5  A    between atoms: S_15  and  C_18
REMARK    6  A    between atoms: N_24  and  C_25
REMARK    7  A    between atoms: N_30  and  C_31
REMARK                            x       y       z     vdW  Elec       q    Type
REMARK                         _______ _______ _______ _____ _____    ______ ____
ROOT
ATOM      1  S   UNL     1       2.639   5.806  18.193  0.00  0.00    +0.000 S 
ATOM      2  O   UNL     1       3.536   5.898  17.066  0.00  0.00    +0.000 OA
ATOM      3  O   UNL     1       1.453   4.978  18.177  0.00  0.00    +0.000 OA
ENDROOT
BRANCH   1   4
ATOM      4  C   UNL     1       2.129   7.482  18.547  0.00  0.00    +0.000 A 
ATOM      5  C   UNL     1       2.378   8.508  17.641  0.00  0.00    +0.000 A 
ATOM      6  C   UNL     1       2.052   9.820  17.996  0.00  0.00    +0.000 A 
ATOM      7  C   UNL     1       1.478  10.122  19.249  0.00  0.00    +0.000 A 
ATOM      8  C   UNL     1       1.188   9.068  20.142  0.00  0.00    +0.000 A 
ATOM      9  C   UNL     1       1.538   7.755  19.783  0.00  0.00    +0.000 A 
ATOM     10  N   UNL     1       0.555   9.348  21.383  0.00  0.00    +0.000 N 
ATOM     11  C   UNL     1      -0.044   8.320  22.215  0.00  0.00    +0.000 C 
ATOM     12  C   UNL     1       0.343  10.656  21.818  0.00  0.00    +0.000 A 
ATOM     13  O   UNL     1      -0.239  10.931  22.865  0.00  0.00    +0.000 OA
ATOM     14  C   UNL     1       0.834  11.798  20.927  0.00  0.00    +0.000 A 
ATOM     15  O   UNL     1       0.830  12.941  21.373  0.00  0.00    +0.000 OA
ATOM     16  N   UNL     1       1.223  11.468  19.628  0.00  0.00    +0.000 N 
ATOM     17  C   UNL     1       1.488  12.574  18.720  0.00  0.00    +0.000 C 
ENDBRANCH   1   4
BRANCH   1  22
ATOM     18  C   UNL     1       4.849   4.650  19.297  0.00  0.00    +0.000 C 
ATOM     19  C   UNL     1       4.423   3.185  19.274  0.00  0.00    +0.000 C 
ATOM     20  C   UNL     1       3.412   3.096  20.400  0.00  0.00    +0.000 C 
ATOM     21  C   UNL     1       2.837   4.504  20.550  0.00  0.00    +0.000 C 
ATOM     22  N   UNL     1       3.566   5.384  19.573  0.00  0.00    +0.000 NA
BRANCH  18  24
ATOM     23  N   UNL     1       5.708   4.069  17.095  0.00  0.00    +0.000 N 
ATOM     24  C   UNL     1       5.760   4.998  18.125  0.00  0.00    +0.000 C 
ATOM     25  O   UNL     1       6.360   6.070  18.088  0.00  0.00    +0.000 OA
ATOM     26  H   UNL     1       5.400   3.138  17.349  0.00  0.00    +0.000 HD
BRANCH  23  32
ATOM     27  C   UNL     1       5.049   3.335  12.256  0.00  0.00    +0.000 C 
ATOM     28  C   UNL     1       5.886   3.860  13.386  0.00  0.00    +0.000 A 
ATOM     29  C   UNL     1       7.068   4.557  13.122  0.00  0.00    +0.000 A 
ATOM     30  C   UNL     1       7.802   5.106  14.169  0.00  0.00    +0.000 A 
ATOM     31  C   UNL     1       7.365   4.959  15.488  0.00  0.00    +0.000 A 
ATOM     32  C   UNL     1       6.205   4.239  15.782  0.00  0.00    +0.000 A 
ATOM     33  C   UNL     1       5.466   3.699  14.719  0.00  0.00    +0.000 A 
ENDBRANCH  23  32
ENDBRANCH  18  24
ENDBRANCH   1  22
TORSDOF 4
ENDMDL
MODEL 4
REMARK VINA RESULT:      -8.2      3.314      6.301
REMARK  Name = 
REMARK  7 active torsions:
REMARK  status: ('A' for Active; 'I' for Inactive)
REMARK    1  A    between atoms: C_1  and  C_2
REMARK    2  A    between atoms: C_6  and  N_7
REMARK    3  A    between atoms: C_8  and  C_10
REMARK    4  A    between atoms: N_14  and  S_15
REMARK    5  A    between atoms: S_15  and  C_18
REMARK    6  A    between atoms: N_24  and  C_25
REMARK    7  A    between atoms: N_30  and  C_31
REMARK                            x       y       z     vdW  Elec       q    Type
REMARK                         _______ _______ _______ _____ _____    ______ ____
ROOT
ATOM      1  S   UNL     1       0.616  10.549  19.222  0.00  0.00    +0.000 S 
ATOM      2  O   UNL     1       1.668  10.162  18.313  0.00  0.00    +0.000 OA
ATOM      3  O   UNL     1      -0.734  10.046  19.107  0.00  0.00    +0.000 OA
ENDROOT
BRANCH   1   4
ATOM      4  C   UNL     1       0.543  12.334  19.148  0.00  0.00    +0.000 A 
ATOM      5  C   UNL     1      -0.669  13.002  19.283  0.00  0.00    +0.000 A 
ATOM      6  C   UNL     1      -0.700  14.390  19.122  0.00  0.00    +0.000 A 
ATOM      7  C   UNL     1       0.470  15.122  18.827  0.00  0.00    +0.000 A 
ATOM      8  C   UNL     1       1.702  14.439  18.737  0.00  0.00    +0.000 A 
ATOM      9  C   UNL     1       1.718  13.041  18.881  0.00  0.00    +0.000 A 
ATOM     10  N   UNL     1       2.898  15.169  18.501  0.00  0.00    +0.000 N 
ATOM     11  C   UNL     1       4.221  14.601  18.691  0.00  0.00    +0.000 C 
ATOM     12  C   UNL     1       2.878  16.531  18.204  0.00  0.00    +0.000 A 
ATOM     13  O   UNL     1       3.896  17.198  18.036  0.00  0.00    +0.000 OA
ATOM     14  C   UNL     1       1.519  17.227  18.115  0.00  0.00    +0.000 A 
ATOM     15  O   UNL     1       1.468  18.370  17.672  0.00  0.00    +0.000 OA
ATOM     16  N   UNL     1       0.412  16.523  18.590  0.00  0.00    +0.000 N 
ATOM     17  C   UNL     1      -0.839  17.259  18.699  0.00  0.00    +0.000 C 
ENDBRANCH   1   4
BRANCH   1  22
ATOM     18  C   UNL     1       1.246   8.803  21.221  0.00  0.00    +0.000 C 
ATOM     19  C   UNL     1      -0.150   8.504  21.762  0.00  0.00    +0.000 C 
ATOM     20  C   UNL     1      -0.506   9.762  22.528  0.00  0.00    +0.000 C 
ATOM     21  C   UNL     1       0.309  10.883  21.884  0.00  0.00    +0.000 C 
ATOM     22  N   UNL     1       1.163  10.250  20.821  0.00  0.00    +0.000 NA
BRANCH  18  24
ATOM     23  N   UNL     1       1.666   6.439  20.821  0.00  0.00    +0.000 N 
ATOM     24  C   UNL     1       1.737   7.714  20.275  0.00  0.00    +0.000 C 
ATOM     25  O   UNL     1       2.031   7.975  19.110  0.00  0.00    +0.000 OA
ATOM     26  H   UNL     1       1.664   6.387  21.832  0.00  0.00    +0.000 HD
BRANCH  23  32
ATOM     27  C   UNL     1       4.115   3.758  17.474  0.00  0.00    +0.000 C 
ATOM     28  C   UNL     1       2.982   3.894  18.449  0.00  0.00    +0.000 A 
ATOM     29  C   UNL     1       2.131   2.813  18.697  0.00  0.00    +0.000 A 
ATOM     30  C   UNL     1       1.128   2.921  19.656  0.00  0.00    +0.000 A 
ATOM     31  C   UNL     1       0.963   4.110  20.371  0.00  0.00    +0.000 A 
ATOM     32  C   UNL     1       1.778   5.216  20.120  0.00  0.00    +0.000 A 
ATOM     33  C   UNL     1       2.793   5.095  19.159  0.00  0.00    +0.000 A 
ENDBRANCH  23  32
ENDBRANCH  18  24
ENDBRANCH   1  22
TORSDOF 4
ENDMDL
MODEL 5
REMARK VINA RESULT:      -8.2      3.266      9.797
REMARK  Name = 
REMARK  7 active torsions:
REMARK  status: ('A' for Active; 'I' for Inactive)
REMARK    1  A    between atoms: C_1  and  C_2
REMARK    2  A    between atoms: C_6  and  N_7
REMARK    3  A    between atoms: C_8  and  C_10
REMARK    4  A    between atoms: N_14  and  S_15
REMARK    5  A    between atoms: S_15  and  C_18
REMARK    6  A    between atoms: N_24  and  C_25
REMARK    7  A    between atoms: N_30  and  C_31
REMARK                            x       y       z     vdW  Elec       q    Type
REMARK                         _______ _______ _______ _____ _____    ______ ____
ROOT
ATOM      1  S   UNL     1       0.395  10.138  19.565  0.00  0.00    +0.000 S 
ATOM      2  O   UNL     1       1.169  11.254  20.055  0.00  0.00    +0.000 OA
ATOM      3  O   UNL     1      -0.572   9.444  20.386  0.00  0.00    +0.000 OA
ENDROOT
BRANCH   1   4
ATOM      4  C   UNL     1       1.587   8.936  18.990  0.00  0.00    +0.000 A 
ATOM      5  C   UNL     1       2.414   9.216  17.908  0.00  0.00    +0.000 A 
ATOM      6  C   UNL     1       3.264   8.215  17.427  0.00  0.00    +0.000 A 
ATOM      7  C   UNL     1       3.297   6.934  18.016  0.00  0.00    +0.000 A 
ATOM      8  C   UNL     1       2.486   6.675  19.142  0.00  0.00    +0.000 A 
ATOM      9  C   UNL     1       1.621   7.682  19.605  0.00  0.00    +0.000 A 
ATOM     10  N   UNL     1       2.553   5.409  19.784  0.00  0.00    +0.000 N 
ATOM     11  C   UNL     1       1.994   5.160  21.100  0.00  0.00    +0.000 C 
ATOM     12  C   UNL     1       3.288   4.352  19.247  0.00  0.00    +0.000 A 
ATOM     13  O   UNL     1       3.399   3.260  19.798  0.00  0.00    +0.000 OA
ATOM     14  C   UNL     1       4.013   4.585  17.921  0.00  0.00    +0.000 A 
ATOM     15  O   UNL     1       4.504   3.622  17.338  0.00  0.00    +0.000 OA
ATOM     16  N   UNL     1       4.108   5.901  17.470  0.00  0.00    +0.000 N 
ATOM     17  C   UNL     1       4.974   6.145  16.325  0.00  0.00    +0.000 C 
ENDBRANCH   1   4
BRANCH   1  22
ATOM     18  C   UNL     1      -1.274  11.839  18.238  0.00  0.00    +0.000 C 
ATOM     19  C   UNL     1      -2.625  11.249  18.635  0.00  0.00    +0.000 C 
ATOM     20  C   UNL     1      -2.715   9.986  17.801  0.00  0.00    +0.000 C 
ATOM     21  C   UNL     1      -1.271   9.576  17.516  0.00  0.00    +0.000 C 
ATOM     22  N   UNL     1      -0.386  10.631  18.119  0.00  0.00    +0.000 NA
BRANCH  18  24
ATOM     23  N   UNL     1       0.124  13.806  18.550  0.00  0.00    +0.000 N 
ATOM     24  C   UNL     1      -0.908  13.049  19.088  0.00  0.00    +0.000 C 
ATOM     25  O   UNL     1      -1.577  13.354  20.073  0.00  0.00    +0.000 OA
ATOM     26  H   UNL     1       0.743  13.324  17.909  0.00  0.00    +0.000 HD
BRANCH  23  32
ATOM     27  C   UNL     1      -0.940  18.628  18.555  0.00  0.00    +0.000 C 
ATOM     28  C   UNL     1      -0.018  17.504  18.926  0.00  0.00    +0.000 A 
ATOM     29  C   UNL     1       1.122  17.752  19.696  0.00  0.00    +0.000 A 
ATOM     30  C   UNL     1       1.933  16.696  20.100  0.00  0.00    +0.000 A 
ATOM     31  C   UNL     1       1.616  15.385  19.735  0.00  0.00    +0.000 A 
ATOM     32  C   UNL     1       0.502  15.112  18.939  0.00  0.00    +0.000 A 
ATOM     33  C   UNL     1      -0.317  16.182  18.545  0.00  0.00    +0.000 A 
ENDBRANCH  23  32
ENDBRANCH  18  24
ENDBRANCH   1  22
TORSDOF 4
ENDMDL
MODEL 6
REMARK VINA RESULT:      -8.2      3.225      9.699
REMARK  Name = 
REMARK  7 active torsions:
REMARK  status: ('A' for Active; 'I' for Inactive)
REMARK    1  A    between atoms: C_1  and  C_2
REMARK    2  A    between atoms: C_6  and  N_7
REMARK    3  A    between atoms: C_8  and  C_10
REMARK    4  A    between atoms: N_14  and  S_15
REMARK    5  A    between atoms: S_15  and  C_18
REMARK    6  A    between atoms: N_24  and  C_25
REMARK    7  A    between atoms: N_30  and  C_31
REMARK                            x       y       z     vdW  Elec       q    Type
REMARK                         _______ _______ _______ _____ _____    ______ ____
ROOT
ATOM      1  S   UNL     1       0.390  10.217  19.565  0.00  0.00    +0.000 S 
ATOM      2  O   UNL     1       1.172  11.327  20.053  0.00  0.00    +0.000 OA
ATOM      3  O   UNL     1      -0.578   9.527  20.388  0.00  0.00    +0.000 OA
ENDROOT
BRANCH   1   4
ATOM      4  C   UNL     1       1.572   9.008  18.983  0.00  0.00    +0.000 A 
ATOM      5  C   UNL     1       2.410   9.292  17.910  0.00  0.00    +0.000 A 
ATOM      6  C   UNL     1       3.252   8.287  17.423  0.00  0.00    +0.000 A 
ATOM      7  C   UNL     1       3.267   6.999  17.997  0.00  0.00    +0.000 A 
ATOM      8  C   UNL     1       2.446   6.736  19.115  0.00  0.00    +0.000 A 
ATOM      9  C   UNL     1       1.589   7.747  19.583  0.00  0.00    +0.000 A 
ATOM     10  N   UNL     1       2.494   5.462  19.743  0.00  0.00    +0.000 N 
ATOM     11  C   UNL     1       1.924   5.204  21.052  0.00  0.00    +0.000 C 
ATOM     12  C   UNL     1       3.222   4.404  19.197  0.00  0.00    +0.000 A 
ATOM     13  O   UNL     1       3.317   3.304  19.737  0.00  0.00    +0.000 OA
ATOM     14  C   UNL     1       3.958   4.643  17.879  0.00  0.00    +0.000 A 
ATOM     15  O   UNL     1       4.443   3.682  17.289  0.00  0.00    +0.000 OA
ATOM     16  N   UNL     1       4.071   5.964  17.444  0.00  0.00    +0.000 N 
ATOM     17  C   UNL     1       4.947   6.211  16.308  0.00  0.00    +0.000 C 
ENDBRANCH   1   4
BRANCH   1  22
ATOM     18  C   UNL     1      -1.257  11.942  18.241  0.00  0.00    +0.000 C 
ATOM     19  C   UNL     1      -2.616  11.381  18.653  0.00  0.00    +0.000 C 
ATOM     20  C   UNL     1      -2.738  10.115  17.828  0.00  0.00    +0.000 C 
ATOM     21  C   UNL     1      -1.305   9.674  17.534  0.00  0.00    +0.000 C 
ATOM     22  N   UNL     1      -0.394  10.715  18.122  0.00  0.00    +0.000 NA
BRANCH  18  24
ATOM     23  N   UNL     1       0.162  13.900  18.512  0.00  0.00    +0.000 N 
ATOM     24  C   UNL     1      -0.859  13.150  19.080  0.00  0.00    +0.000 C 
ATOM     25  O   UNL     1      -1.498  13.459  20.083  0.00  0.00    +0.000 OA
ATOM     26  H   UNL     1       0.759  13.414  17.854  0.00  0.00    +0.000 HD
BRANCH  23  32
ATOM     27  C   UNL     1       3.677  16.810  20.401  0.00  0.00    +0.000 C 
ATOM     28  C   UNL     1       2.294  16.642  19.842  0.00  0.00    +0.000 A 
ATOM     29  C   UNL     1       1.477  17.758  19.637  0.00  0.00    +0.000 A 
ATOM     30  C   UNL     1       0.224  17.606  19.050  0.00  0.00    +0.000 A 
ATOM     31  C   UNL     1      -0.225  16.339  18.667  0.00  0.00    +0.000 A 
ATOM     32  C   UNL     1       0.558  15.204  18.890  0.00  0.00    +0.000 A 
ATOM     33  C   UNL     1       1.824  15.368  19.473  0.00  0.00    +0.000 A 
ENDBRANCH  23  32
ENDBRANCH  18  24
ENDBRANCH   1  22
TORSDOF 4
ENDMDL
MODEL 7
REMARK VINA RESULT:      -8.1      3.379      6.204
REMARK  Name = 
REMARK  7 active torsions:
REMARK  status: ('A' for Active; 'I' for Inactive)
REMARK    1  A    between atoms: C_1  and  C_2
REMARK    2  A    between atoms: C_6  and  N_7
REMARK    3  A    between atoms: C_8  and  C_10
REMARK    4  A    between atoms: N_14  and  S_15
REMARK    5  A    between atoms: S_15  and  C_18
REMARK    6  A    between atoms: N_24  and  C_25
REMARK    7  A    between atoms: N_30  and  C_31
REMARK                            x       y       z     vdW  Elec       q    Type
REMARK                         _______ _______ _______ _____ _____    ______ ____
ROOT
ATOM      1  S   UNL     1       0.785  10.545  18.988  0.00  0.00    +0.000 S 
ATOM      2  O   UNL     1       1.887  10.213  18.118  0.00  0.00    +0.000 OA
ATOM      3  O   UNL     1      -0.549  10.023  18.786  0.00  0.00    +0.000 OA
ENDROOT
BRANCH   1   4
ATOM      4  C   UNL     1       0.680  12.329  18.981  0.00  0.00    +0.000 A 
ATOM      5  C   UNL     1      -0.550  12.970  19.081  0.00  0.00    +0.000 A 
ATOM      6  C   UNL     1      -0.600  14.363  18.973  0.00  0.00    +0.000 A 
ATOM      7  C   UNL     1       0.569  15.126  18.766  0.00  0.00    +0.000 A 
ATOM      8  C   UNL     1       1.817  14.469  18.712  0.00  0.00    +0.000 A 
ATOM      9  C   UNL     1       1.853  13.067  18.801  0.00  0.00    +0.000 A 
ATOM     10  N   UNL     1       3.009  15.229  18.565  0.00  0.00    +0.000 N 
ATOM     11  C   UNL     1       4.331  14.678  18.799  0.00  0.00    +0.000 C 
ATOM     12  C   UNL     1       2.977  16.602  18.321  0.00  0.00    +0.000 A 
ATOM     13  O   UNL     1       3.989  17.293  18.231  0.00  0.00    +0.000 OA
ATOM     14  C   UNL     1       1.611  17.276  18.191  0.00  0.00    +0.000 A 
ATOM     15  O   UNL     1       1.559  18.436  17.791  0.00  0.00    +0.000 OA
ATOM     16  N   UNL     1       0.496  16.535  18.581  0.00  0.00    +0.000 N 
ATOM     17  C   UNL     1      -0.773  17.243  18.657  0.00  0.00    +0.000 C 
ENDBRANCH   1   4
BRANCH   1  22
ATOM     18  C   UNL     1       1.342   8.731  20.948  0.00  0.00    +0.000 C 
ATOM     19  C   UNL     1      -0.074   8.394  21.409  0.00  0.00    +0.000 C 
ATOM     20  C   UNL     1      -0.484   9.618  22.204  0.00  0.00    +0.000 C 
ATOM     21  C   UNL     1       0.345  10.772  21.643  0.00  0.00    +0.000 C 
ATOM     22  N   UNL     1       1.258  10.192  20.599  0.00  0.00    +0.000 NA
BRANCH  18  24
ATOM     23  N   UNL     1       2.352   6.541  20.624  0.00  0.00    +0.000 N 
ATOM     24  C   UNL     1       1.893   7.685  19.986  0.00  0.00    +0.000 C 
ATOM     25  O   UNL     1       1.796   7.834  18.770  0.00  0.00    +0.000 OA
ATOM     26  H   UNL     1       2.615   6.647  21.597  0.00  0.00    +0.000 HD
BRANCH  23  32
ATOM     27  C   UNL     1       0.681   2.263  18.809  0.00  0.00    +0.000 C 
ATOM     28  C   UNL     1       1.828   3.175  19.130  0.00  0.00    +0.000 A 
ATOM     29  C   UNL     1       3.130   2.827  18.759  0.00  0.00    +0.000 A 
ATOM     30  C   UNL     1       4.181   3.709  18.992  0.00  0.00    +0.000 A 
ATOM     31  C   UNL     1       3.942   4.943  19.603  0.00  0.00    +0.000 A 
ATOM     32  C   UNL     1       2.656   5.302  20.014  0.00  0.00    +0.000 A 
ATOM     33  C   UNL     1       1.601   4.411  19.765  0.00  0.00    +0.000 A 
ENDBRANCH  23  32
ENDBRANCH  18  24
ENDBRANCH   1  22
TORSDOF 4
ENDMDL
MODEL 8
REMARK VINA RESULT:      -8.1      0.861      1.443
REMARK  Name = 
REMARK  7 active torsions:
REMARK  status: ('A' for Active; 'I' for Inactive)
REMARK    1  A    between atoms: C_1  and  C_2
REMARK    2  A    between atoms: C_6  and  N_7
REMARK    3  A    between atoms: C_8  and  C_10
REMARK    4  A    between atoms: N_14  and  S_15
REMARK    5  A    between atoms: S_15  and  C_18
REMARK    6  A    between atoms: N_24  and  C_25
REMARK    7  A    between atoms: N_30  and  C_31
REMARK                            x       y       z     vdW  Elec       q    Type
REMARK                         _______ _______ _______ _____ _____    ______ ____
ROOT
ATOM      1  S   UNL     1       3.316   6.050  18.081  0.00  0.00    +0.000 S 
ATOM      2  O   UNL     1       4.155   6.864  17.233  0.00  0.00    +0.000 OA
ATOM      3  O   UNL     1       2.356   5.108  17.550  0.00  0.00    +0.000 OA
ENDROOT
BRANCH   1   4
ATOM      4  C   UNL     1       2.433   7.195  19.133  0.00  0.00    +0.000 A 
ATOM      5  C   UNL     1       1.915   6.782  20.356  0.00  0.00    +0.000 A 
ATOM      6  C   UNL     1       1.147   7.680  21.104  0.00  0.00    +0.000 A 
ATOM      7  C   UNL     1       0.891   8.989  20.645  0.00  0.00    +0.000 A 
ATOM      8  C   UNL     1       1.460   9.411  19.424  0.00  0.00    +0.000 A 
ATOM      9  C   UNL     1       2.213   8.494  18.670  0.00  0.00    +0.000 A 
ATOM     10  N   UNL     1       1.261  10.745  18.977  0.00  0.00    +0.000 N 
ATOM     11  C   UNL     1       2.041  11.346  17.910  0.00  0.00    +0.000 C 
ATOM     12  C   UNL     1       0.392  11.616  19.634  0.00  0.00    +0.000 A 
ATOM     13  O   UNL     1       0.231  12.787  19.297  0.00  0.00    +0.000 OA
ATOM     14  C   UNL     1      -0.369  11.089  20.851  0.00  0.00    +0.000 A 
ATOM     15  O   UNL     1      -1.273  11.771  21.325  0.00  0.00    +0.000 OA
ATOM     16  N   UNL     1       0.046   9.866  21.379  0.00  0.00    +0.000 N 
ATOM     17  C   UNL     1      -0.535   9.467  22.653  0.00  0.00    +0.000 C 
ENDBRANCH   1   4
BRANCH   1  22
ATOM     18  C   UNL     1       5.330   4.276  18.566  0.00  0.00    +0.000 C 
ATOM     19  C   UNL     1       4.560   2.962  18.453  0.00  0.00    +0.000 C 
ATOM     20  C   UNL     1       3.763   2.912  19.742  0.00  0.00    +0.000 C 
ATOM     21  C   UNL     1       3.584   4.366  20.174  0.00  0.00    +0.000 C 
ATOM     22  N   UNL     1       4.331   5.215  19.184  0.00  0.00    +0.000 NA
BRANCH  18  24
ATOM     23  N   UNL     1       5.789   3.747  16.235  0.00  0.00    +0.000 N 
ATOM     24  C   UNL     1       6.087   4.605  17.286  0.00  0.00    +0.000 C 
ATOM     25  O   UNL     1       6.780   5.618  17.204  0.00  0.00    +0.000 OA
ATOM     26  H   UNL     1       5.430   2.835  16.493  0.00  0.00    +0.000 HD
BRANCH  23  32
ATOM     27  C   UNL     1       8.725   5.901  12.899  0.00  0.00    +0.000 C 
ATOM     28  C   UNL     1       7.546   5.028  13.218  0.00  0.00    +0.000 A 
ATOM     29  C   UNL     1       6.848   4.385  12.192  0.00  0.00    +0.000 A 
ATOM     30  C   UNL     1       5.803   3.519  12.498  0.00  0.00    +0.000 A 
ATOM     31  C   UNL     1       5.442   3.292  13.828  0.00  0.00    +0.000 A 
ATOM     32  C   UNL     1       6.101   3.947  14.871  0.00  0.00    +0.000 A 
ATOM     33  C   UNL     1       7.161   4.810  14.554  0.00  0.00    +0.000 A 
ENDBRANCH  23  32
ENDBRANCH  18  24
ENDBRANCH   1  22
TORSDOF 4
ENDMDL
MODEL 9
REMARK VINA RESULT:      -8.1      3.369      6.065
REMARK  Name = 
REMARK  7 active torsions:
REMARK  status: ('A' for Active; 'I' for Inactive)
REMARK    1  A    between atoms: C_1  and  C_2
REMARK    2  A    between atoms: C_6  and  N_7
REMARK    3  A    between atoms: C_8  and  C_10
REMARK    4  A    between atoms: N_14  and  S_15
REMARK    5  A    between atoms: S_15  and  C_18
REMARK    6  A    between atoms: N_24  and  C_25
REMARK    7  A    between atoms: N_30  and  C_31
REMARK                            x       y       z     vdW  Elec       q    Type
REMARK                         _______ _______ _______ _____ _____    ______ ____
ROOT
ATOM      1  S   UNL     1       0.493  10.526  19.352  0.00  0.00    +0.000 S 
ATOM      2  O   UNL     1       1.489  10.086  18.404  0.00  0.00    +0.000 OA
ATOM      3  O   UNL     1      -0.870  10.045  19.326  0.00  0.00    +0.000 OA
ENDROOT
BRANCH   1   4
ATOM      4  C   UNL     1       0.446  12.308  19.215  0.00  0.00    +0.000 A 
ATOM      5  C   UNL     1      -0.761  12.995  19.287  0.00  0.00    +0.000 A 
ATOM      6  C   UNL     1      -0.768  14.377  19.077  0.00  0.00    +0.000 A 
ATOM      7  C   UNL     1       0.421  15.084  18.797  0.00  0.00    +0.000 A 
ATOM      8  C   UNL     1       1.646  14.383  18.771  0.00  0.00    +0.000 A 
ATOM      9  C   UNL     1       1.638  12.991  18.963  0.00  0.00    +0.000 A 
ATOM     10  N   UNL     1       2.859  15.090  18.550  0.00  0.00    +0.000 N 
ATOM     11  C   UNL     1       4.167  14.513  18.803  0.00  0.00    +0.000 C 
ATOM     12  C   UNL     1       2.867  16.442  18.206  0.00  0.00    +0.000 A 
ATOM     13  O   UNL     1       3.899  17.090  18.050  0.00  0.00    +0.000 OA
ATOM     14  C   UNL     1       1.521  17.150  18.049  0.00  0.00    +0.000 A 
ATOM     15  O   UNL     1       1.499  18.278  17.565  0.00  0.00    +0.000 OA
ATOM     16  N   UNL     1       0.390  16.477  18.510  0.00  0.00    +0.000 N 
ATOM     17  C   UNL     1      -0.854  17.231  18.553  0.00  0.00    +0.000 C 
ENDBRANCH   1   4
BRANCH   1  22
ATOM     18  C   UNL     1       0.992   8.876  21.466  0.00  0.00    +0.000 C 
ATOM     19  C   UNL     1      -0.382   8.874  22.131  0.00  0.00    +0.000 C 
ATOM     20  C   UNL     1      -0.455  10.236  22.791  0.00  0.00    +0.000 C 
ATOM     21  C   UNL     1       0.477  11.137  21.982  0.00  0.00    +0.000 C 
ATOM     22  N   UNL     1       1.118  10.276  20.930  0.00  0.00    +0.000 NA
BRANCH  18  24
ATOM     23  N   UNL     1       2.293   7.757  19.741  0.00  0.00    +0.000 N 
ATOM     24  C   UNL     1       1.210   7.641  20.602  0.00  0.00    +0.000 C 
ATOM     25  O   UNL     1       0.548   6.620  20.780  0.00  0.00    +0.000 OA
ATOM     26  H   UNL     1       2.577   8.701  19.506  0.00  0.00    +0.000 HD
BRANCH  23  32
ATOM     27  C   UNL     1       5.119   6.418  15.918  0.00  0.00    +0.000 C 
ATOM     28  C   UNL     1       4.303   6.044  17.122  0.00  0.00    +0.000 A 
ATOM     29  C   UNL     1       4.243   4.714  17.547  0.00  0.00    +0.000 A 
ATOM     30  C   UNL     1       3.547   4.384  18.706  0.00  0.00    +0.000 A 
ATOM     31  C   UNL     1       2.901   5.377  19.446  0.00  0.00    +0.000 A 
ATOM     32  C   UNL     1       2.917   6.709  19.026  0.00  0.00    +0.000 A 
ATOM     33  C   UNL     1       3.631   7.034  17.863  0.00  0.00    +0.000 A 
ENDBRANCH  23  32
ENDBRANCH  18  24
ENDBRANCH   1  22
TORSDOF 4
ENDMDL
