MODEL 1
REMARK VINA RESULT:      -8.0      0.000      0.000
REMARK  Name = 
REMARK  13 active torsions:
REMARK  status: ('A' for Active; 'I' for Inactive)
REMARK    1  A    between atoms: C_1  and  O_2
REMARK    2  A    between atoms: O_2  and  C_3
REMARK    3  A    between atoms: C_6  and  C_7
REMARK    4  A    between atoms: C_11  and  C_12
REMARK    5  A    between atoms: C_16  and  N_17
REMARK    6  A    between atoms: C_18  and  C_19
REMARK    7  A    between atoms: C_21  and  C_22
REMARK    8  A    between atoms: C_25  and  O_26
REMARK    9  A    between atoms: O_26  and  C_27
REMARK   10  A    between atoms: C_28  and  O_29
REMARK   11  A    between atoms: O_29  and  C_30
REMARK   12  A    between atoms: C_33  and  O_34
REMARK   13  A    between atoms: O_34  and  C_35
REMARK                            x       y       z     vdW  Elec       q    Type
REMARK                         _______ _______ _______ _____ _____    ______ ____
ROOT
ATOM      1  C   UNL     1       2.401   7.807  18.575  0.00  0.00    +0.000 C 
ATOM      2  C   UNL     1       1.665   8.309  19.593  0.00  0.00    +0.000 C 
ATOM      3  C   UNL     1       1.221   7.439  20.742  0.00  0.00    +0.000 C 
ATOM      4  C   UNL     1      -0.152   7.849  21.231  0.00  0.00    +0.000 C 
ATOM      5  C   UNL     1      -0.154   9.307  21.702  0.00  0.00    +0.000 C 
ATOM      6  C   UNL     1       0.643   9.493  22.997  0.00  0.00    +0.000 C 
ATOM      7  C   UNL     1       0.308  10.252  20.596  0.00  0.00    +0.000 A 
ATOM      8  C   UNL     1       1.210   9.745  19.623  0.00  0.00    +0.000 A 
ATOM      9  N   UNL     1       1.730  10.527  18.646  0.00  0.00    +0.000 NA
ATOM     10  C   UNL     1       1.340  11.810  18.556  0.00  0.00    +0.000 A 
ATOM     11  C   UNL     1       0.411  12.386  19.429  0.00  0.00    +0.000 A 
ATOM     12  C   UNL     1      -0.105  11.628  20.516  0.00  0.00    +0.000 A 
ENDROOT
BRANCH   1  16
ATOM     13  C   UNL     1       3.769   3.738  18.245  0.00  0.00    +0.000 A 
ATOM     14  C   UNL     1       2.472   4.100  17.841  0.00  0.00    +0.000 A 
ATOM     15  C   UNL     1       2.025   5.425  17.937  0.00  0.00    +0.000 A 
ATOM     16  C   UNL     1       2.856   6.410  18.468  0.00  0.00    +0.000 A 
ATOM     17  C   UNL     1       4.136   6.043  18.901  0.00  0.00    +0.000 A 
ATOM     18  C   UNL     1       4.597   4.715  18.817  0.00  0.00    +0.000 A 
BRANCH  13  20
ATOM     19  C   UNL     1       3.367   1.427  18.598  0.00  0.00    +0.000 C 
ATOM     20  O   UNL     1       4.230   2.453  18.112  0.00  0.00    +0.000 OA
ENDBRANCH  13  20
BRANCH  18  21
ATOM     21  O   UNL     1       5.872   4.582  19.304  0.00  0.00    +0.000 OA
ATOM     22  C   UNL     1       6.809   5.629  19.107  0.00  0.00    +0.000 C 
ENDBRANCH  18  21
ENDBRANCH   1  16
BRANCH  12  23
ATOM     23  C   UNL     1      -0.991  12.288  21.543  0.00  0.00    +0.000 A 
ATOM     24  C   UNL     1      -0.503  13.105  22.567  0.00  0.00    +0.000 A 
ATOM     25  C   UNL     1      -1.366  13.820  23.406  0.00  0.00    +0.000 A 
ATOM     26  C   UNL     1      -2.750  13.634  23.360  0.00  0.00    +0.000 A 
ATOM     27  C   UNL     1      -3.272  12.716  22.441  0.00  0.00    +0.000 A 
ATOM     28  C   UNL     1      -2.395  12.111  21.518  0.00  0.00    +0.000 A 
BRANCH  26  29
ATOM     29  O   UNL     1      -3.409  14.416  24.270  0.00  0.00    +0.000 OA
ATOM     30  C   UNL     1      -3.987  15.636  23.833  0.00  0.00    +0.000 C 
ENDBRANCH  26  29
BRANCH  27  31
ATOM     31  O   UNL     1      -4.618  12.463  22.460  0.00  0.00    +0.000 OA
ATOM     32  C   UNL     1      -5.349  12.581  21.246  0.00  0.00    +0.000 C 
ENDBRANCH  27  31
ENDBRANCH  12  23
BRANCH  10  33
ATOM     33  N   UNL     1       2.027  12.568  17.607  0.00  0.00    +0.000 N 
ATOM     34  H   UNL     1       3.016  12.578  17.843  0.00  0.00    +0.000 HD
ATOM     35  H   UNL     1       1.853  12.327  16.637  0.00  0.00    +0.000 HD
ENDBRANCH  10  33
BRANCH  11  36
ATOM     36  C   UNL     1       0.013  13.746  19.171  0.00  0.00    +0.000 C 
ATOM     37  N   UNL     1      -0.286  14.848  18.951  0.00  0.00    +0.000 NA
ENDBRANCH  11  36
TORSDOF 8
ENDMDL
MODEL 2
REMARK VINA RESULT:      -7.9      0.980      2.312
REMARK  Name = 
REMARK  13 active torsions:
REMARK  status: ('A' for Active; 'I' for Inactive)
REMARK    1  A    between atoms: C_1  and  O_2
REMARK    2  A    between atoms: O_2  and  C_3
REMARK    3  A    between atoms: C_6  and  C_7
REMARK    4  A    between atoms: C_11  and  C_12
REMARK    5  A    between atoms: C_16  and  N_17
REMARK    6  A    between atoms: C_18  and  C_19
REMARK    7  A    between atoms: C_21  and  C_22
REMARK    8  A    between atoms: C_25  and  O_26
REMARK    9  A    between atoms: O_26  and  C_27
REMARK   10  A    between atoms: C_28  and  O_29
REMARK   11  A    between atoms: O_29  and  C_30
REMARK   12  A    between atoms: C_33  and  O_34
REMARK   13  A    between atoms: O_34  and  C_35
REMARK                            x       y       z     vdW  Elec       q    Type
REMARK                         _______ _______ _______ _____ _____    ______ ____
ROOT
ATOM      1  C   UNL     1       2.396   7.829  18.778  0.00  0.00    +0.000 C 
ATOM      2  C   UNL     1       1.619   8.371  19.744  0.00  0.00    +0.000 C 
ATOM      3  C   UNL     1       1.129   7.547  20.909  0.00  0.00    +0.000 C 
ATOM      4  C   UNL     1      -0.263   7.975  21.324  0.00  0.00    +0.000 C 
ATOM      5  C   UNL     1      -0.283   9.450  21.736  0.00  0.00    +0.000 C 
ATOM      6  C   UNL     1       0.461   9.690  23.054  0.00  0.00    +0.000 C 
ATOM      7  C   UNL     1       0.223  10.351  20.613  0.00  0.00    +0.000 A 
ATOM      8  C   UNL     1       1.164   9.807  19.698  0.00  0.00    +0.000 A 
ATOM      9  N   UNL     1       1.723  10.549  18.712  0.00  0.00    +0.000 NA
ATOM     10  C   UNL     1       1.337  11.827  18.555  0.00  0.00    +0.000 A 
ATOM     11  C   UNL     1       0.374  12.436  19.366  0.00  0.00    +0.000 A 
ATOM     12  C   UNL     1      -0.186  11.722  20.460  0.00  0.00    +0.000 A 
ENDROOT
BRANCH   1  16
ATOM     13  C   UNL     1       3.695   3.725  18.705  0.00  0.00    +0.000 A 
ATOM     14  C   UNL     1       4.568   4.753  19.102  0.00  0.00    +0.000 A 
ATOM     15  C   UNL     1       4.147   6.090  19.136  0.00  0.00    +0.000 A 
ATOM     16  C   UNL     1       2.853   6.429  18.746  0.00  0.00    +0.000 A 
ATOM     17  C   UNL     1       1.994   5.410  18.320  0.00  0.00    +0.000 A 
ATOM     18  C   UNL     1       2.404   4.063  18.274  0.00  0.00    +0.000 A 
BRANCH  13  20
ATOM     19  C   UNL     1       4.426   1.867  19.986  0.00  0.00    +0.000 C 
ATOM     20  O   UNL     1       4.084   2.411  18.712  0.00  0.00    +0.000 OA
ENDBRANCH  13  20
BRANCH  18  21
ATOM     21  O   UNL     1       1.408   3.237  17.819  0.00  0.00    +0.000 OA
ATOM     22  C   UNL     1       0.673   2.452  18.746  0.00  0.00    +0.000 C 
ENDBRANCH  18  21
ENDBRANCH   1  16
BRANCH  12  23
ATOM     23  C   UNL     1      -1.112  12.421  21.424  0.00  0.00    +0.000 A 
ATOM     24  C   UNL     1      -2.506  12.365  21.329  0.00  0.00    +0.000 A 
ATOM     25  C   UNL     1      -3.330  12.898  22.327  0.00  0.00    +0.000 A 
ATOM     26  C   UNL     1      -2.805  13.643  23.386  0.00  0.00    +0.000 A 
ATOM     27  C   UNL     1      -1.421  13.842  23.444  0.00  0.00    +0.000 A 
ATOM     28  C   UNL     1      -0.604  13.183  22.503  0.00  0.00    +0.000 A 
BRANCH  26  29
ATOM     29  O   UNL     1      -3.778  14.084  24.242  0.00  0.00    +0.000 OA
ATOM     30  C   UNL     1      -4.676  15.089  23.796  0.00  0.00    +0.000 C 
ENDBRANCH  26  29
BRANCH  27  31
ATOM     31  O   UNL     1      -0.916  14.651  24.427  0.00  0.00    +0.000 OA
ATOM     32  C   UNL     1      -0.855  16.052  24.191  0.00  0.00    +0.000 C 
ENDBRANCH  27  31
ENDBRANCH  12  23
BRANCH  10  33
ATOM     33  N   UNL     1       2.062  12.547  17.605  0.00  0.00    +0.000 N 
ATOM     34  H   UNL     1       2.997  12.723  17.964  0.00  0.00    +0.000 HD
ATOM     35  H   UNL     1       2.064  12.164  16.665  0.00  0.00    +0.000 HD
ENDBRANCH  10  33
BRANCH  11  36
ATOM     36  C   UNL     1      -0.012  13.784  19.038  0.00  0.00    +0.000 C 
ATOM     37  N   UNL     1      -0.311  14.871  18.752  0.00  0.00    +0.000 NA
ENDBRANCH  11  36
TORSDOF 8
ENDMDL
MODEL 3
REMARK VINA RESULT:      -7.9      0.688      1.622
REMARK  Name = 
REMARK  13 active torsions:
REMARK  status: ('A' for Active; 'I' for Inactive)
REMARK    1  A    between atoms: C_1  and  O_2
REMARK    2  A    between atoms: O_2  and  C_3
REMARK    3  A    between atoms: C_6  and  C_7
REMARK    4  A    between atoms: C_11  and  C_12
REMARK    5  A    between atoms: C_16  and  N_17
REMARK    6  A    between atoms: C_18  and  C_19
REMARK    7  A    between atoms: C_21  and  C_22
REMARK    8  A    between atoms: C_25  and  O_26
REMARK    9  A    between atoms: O_26  and  C_27
REMARK   10  A    between atoms: C_28  and  O_29
REMARK   11  A    between atoms: O_29  and  C_30
REMARK   12  A    between atoms: C_33  and  O_34
REMARK   13  A    between atoms: O_34  and  C_35
REMARK                            x       y       z     vdW  Elec       q    Type
REMARK                         _______ _______ _______ _____ _____    ______ ____
ROOT
ATOM      1  C   UNL     1       2.345   7.893  18.616  0.00  0.00    +0.000 C 
ATOM      2  C   UNL     1       1.588   8.418  19.606  0.00  0.00    +0.000 C 
ATOM      3  C   UNL     1       1.098   7.568  20.752  0.00  0.00    +0.000 C 
ATOM      4  C   UNL     1      -0.282   8.005  21.196  0.00  0.00    +0.000 C 
ATOM      5  C   UNL     1      -0.274   9.466  21.652  0.00  0.00    +0.000 C 
ATOM      6  C   UNL     1       0.488   9.654  22.967  0.00  0.00    +0.000 C 
ATOM      7  C   UNL     1       0.234  10.392  20.550  0.00  0.00    +0.000 A 
ATOM      8  C   UNL     1       1.156   9.861  19.609  0.00  0.00    +0.000 A 
ATOM      9  N   UNL     1       1.715  10.624  18.639  0.00  0.00    +0.000 NA
ATOM     10  C   UNL     1       1.348  11.912  18.525  0.00  0.00    +0.000 A 
ATOM     11  C   UNL     1       0.405  12.512  19.365  0.00  0.00    +0.000 A 
ATOM     12  C   UNL     1      -0.155  11.774  20.444  0.00  0.00    +0.000 A 
ENDROOT
BRANCH   1  16
ATOM     13  C   UNL     1       3.657   3.800  18.366  0.00  0.00    +0.000 A 
ATOM     14  C   UNL     1       2.375   4.176  17.930  0.00  0.00    +0.000 A 
ATOM     15  C   UNL     1       1.946   5.509  18.000  0.00  0.00    +0.000 A 
ATOM     16  C   UNL     1       2.780   6.488  18.536  0.00  0.00    +0.000 A 
ATOM     17  C   UNL     1       4.045   6.108  19.000  0.00  0.00    +0.000 A 
ATOM     18  C   UNL     1       4.488   4.772  18.942  0.00  0.00    +0.000 A 
BRANCH  13  20
ATOM     19  C   UNL     1       3.964   1.701  19.428  0.00  0.00    +0.000 C 
ATOM     20  O   UNL     1       4.101   2.508  18.259  0.00  0.00    +0.000 OA
ENDBRANCH  13  20
BRANCH  18  21
ATOM     21  O   UNL     1       5.750   4.626  19.458  0.00  0.00    +0.000 OA
ATOM     22  C   UNL     1       6.777   5.519  19.056  0.00  0.00    +0.000 C 
ENDBRANCH  18  21
ENDBRANCH   1  16
BRANCH  12  23
ATOM     23  C   UNL     1      -1.059  12.458  21.439  0.00  0.00    +0.000 A 
ATOM     24  C   UNL     1      -2.454  12.373  21.396  0.00  0.00    +0.000 A 
ATOM     25  C   UNL     1      -3.251  12.893  22.422  0.00  0.00    +0.000 A 
ATOM     26  C   UNL     1      -2.702  13.653  23.458  0.00  0.00    +0.000 A 
ATOM     27  C   UNL     1      -1.322  13.882  23.463  0.00  0.00    +0.000 A 
ATOM     28  C   UNL     1      -0.527  13.235  22.495  0.00  0.00    +0.000 A 
BRANCH  26  29
ATOM     29  O   UNL     1      -3.652  14.078  24.347  0.00  0.00    +0.000 OA
ATOM     30  C   UNL     1      -4.780  14.787  23.857  0.00  0.00    +0.000 C 
ENDBRANCH  26  29
BRANCH  27  31
ATOM     31  O   UNL     1      -0.797  14.706  24.423  0.00  0.00    +0.000 OA
ATOM     32  C   UNL     1      -0.712  16.099  24.151  0.00  0.00    +0.000 C 
ENDBRANCH  27  31
ENDBRANCH  12  23
BRANCH  10  33
ATOM     33  N   UNL     1       2.074  12.649  17.588  0.00  0.00    +0.000 N 
ATOM     34  H   UNL     1       1.709  12.455  16.658  0.00  0.00    +0.000 HD
ATOM     35  H   UNL     1       2.167  13.641  17.779  0.00  0.00    +0.000 HD
ENDBRANCH  10  33
BRANCH  11  36
ATOM     36  C   UNL     1       0.036  13.875  19.082  0.00  0.00    +0.000 C 
ATOM     37  N   UNL     1      -0.250  14.983  18.874  0.00  0.00    +0.000 NA
ENDBRANCH  11  36
TORSDOF 8
ENDMDL
MODEL 4
REMARK VINA RESULT:      -7.8      0.855      1.724
REMARK  Name = 
REMARK  13 active torsions:
REMARK  status: ('A' for Active; 'I' for Inactive)
REMARK    1  A    between atoms: C_1  and  O_2
REMARK    2  A    between atoms: O_2  and  C_3
REMARK    3  A    between atoms: C_6  and  C_7
REMARK    4  A    between atoms: C_11  and  C_12
REMARK    5  A    between atoms: C_16  and  N_17
REMARK    6  A    between atoms: C_18  and  C_19
REMARK    7  A    between atoms: C_21  and  C_22
REMARK    8  A    between atoms: C_25  and  O_26
REMARK    9  A    between atoms: O_26  and  C_27
REMARK   10  A    between atoms: C_28  and  O_29
REMARK   11  A    between atoms: O_29  and  C_30
REMARK   12  A    between atoms: C_33  and  O_34
REMARK   13  A    between atoms: O_34  and  C_35
REMARK                            x       y       z     vdW  Elec       q    Type
REMARK                         _______ _______ _______ _____ _____    ______ ____
ROOT
ATOM      1  C   UNL     1       2.255   7.987  18.801  0.00  0.00    +0.000 C 
ATOM      2  C   UNL     1       1.503   8.470  19.816  0.00  0.00    +0.000 C 
ATOM      3  C   UNL     1       1.083   7.591  20.968  0.00  0.00    +0.000 C 
ATOM      4  C   UNL     1      -0.303   7.962  21.453  0.00  0.00    +0.000 C 
ATOM      5  C   UNL     1      -0.349   9.420  21.919  0.00  0.00    +0.000 C 
ATOM      6  C   UNL     1       0.440   9.635  23.214  0.00  0.00    +0.000 C 
ATOM      7  C   UNL     1       0.086  10.375  20.810  0.00  0.00    +0.000 A 
ATOM      8  C   UNL     1       1.005   9.892  19.841  0.00  0.00    +0.000 A 
ATOM      9  N   UNL     1       1.503  10.686  18.862  0.00  0.00    +0.000 NA
ATOM     10  C   UNL     1       1.075  11.956  18.767  0.00  0.00    +0.000 A 
ATOM     11  C   UNL     1       0.128  12.507  19.636  0.00  0.00    +0.000 A 
ATOM     12  C   UNL     1      -0.368  11.738  20.724  0.00  0.00    +0.000 A 
ENDROOT
BRANCH   1  16
ATOM     13  C   UNL     1       3.668   3.929  18.529  0.00  0.00    +0.000 A 
ATOM     14  C   UNL     1       4.534   4.972  18.899  0.00  0.00    +0.000 A 
ATOM     15  C   UNL     1       4.077   6.294  18.999  0.00  0.00    +0.000 A 
ATOM     16  C   UNL     1       2.751   6.603  18.700  0.00  0.00    +0.000 A 
ATOM     17  C   UNL     1       1.897   5.569  18.301  0.00  0.00    +0.000 A 
ATOM     18  C   UNL     1       2.343   4.237  18.190  0.00  0.00    +0.000 A 
BRANCH  13  20
ATOM     19  C   UNL     1       4.381   2.010  19.728  0.00  0.00    +0.000 C 
ATOM     20  O   UNL     1       4.096   2.627  18.474  0.00  0.00    +0.000 OA
ENDBRANCH  13  20
BRANCH  18  21
ATOM     21  O   UNL     1       1.344   3.393  17.776  0.00  0.00    +0.000 OA
ATOM     22  C   UNL     1       0.728   2.525  18.714  0.00  0.00    +0.000 C 
ENDBRANCH  18  21
ENDBRANCH   1  16
BRANCH  12  23
ATOM     23  C   UNL     1      -1.274  12.375  21.748  0.00  0.00    +0.000 A 
ATOM     24  C   UNL     1      -0.810  13.186  22.788  0.00  0.00    +0.000 A 
ATOM     25  C   UNL     1      -1.691  13.881  23.624  0.00  0.00    +0.000 A 
ATOM     26  C   UNL     1      -3.073  13.678  23.558  0.00  0.00    +0.000 A 
ATOM     27  C   UNL     1      -3.571  12.764  22.622  0.00  0.00    +0.000 A 
ATOM     28  C   UNL     1      -2.675  12.181  21.703  0.00  0.00    +0.000 A 
BRANCH  26  29
ATOM     29  O   UNL     1      -3.752  14.441  24.469  0.00  0.00    +0.000 OA
ATOM     30  C   UNL     1      -3.063  15.488  25.135  0.00  0.00    +0.000 C 
ENDBRANCH  26  29
BRANCH  27  31
ATOM     31  O   UNL     1      -4.914  12.494  22.622  0.00  0.00    +0.000 OA
ATOM     32  C   UNL     1      -5.763  13.269  21.783  0.00  0.00    +0.000 C 
ENDBRANCH  27  31
ENDBRANCH  12  23
BRANCH  10  33
ATOM     33  N   UNL     1       1.741  12.731  17.816  0.00  0.00    +0.000 N 
ATOM     34  H   UNL     1       2.744  12.617  17.939  0.00  0.00    +0.000 HD
ATOM     35  H   UNL     1       1.442  12.607  16.854  0.00  0.00    +0.000 HD
ENDBRANCH  10  33
BRANCH  11  36
ATOM     36  C   UNL     1      -0.310  13.854  19.373  0.00  0.00    +0.000 C 
ATOM     37  N   UNL     1      -0.660  14.947  19.184  0.00  0.00    +0.000 NA
ENDBRANCH  11  36
TORSDOF 8
ENDMDL
MODEL 5
REMARK VINA RESULT:      -7.5      1.118      1.489
REMARK  Name = 
REMARK  13 active torsions:
REMARK  status: ('A' for Active; 'I' for Inactive)
REMARK    1  A    between atoms: C_1  and  O_2
REMARK    2  A    between atoms: O_2  and  C_3
REMARK    3  A    between atoms: C_6  and  C_7
REMARK    4  A    between atoms: C_11  and  C_12
REMARK    5  A    between atoms: C_16  and  N_17
REMARK    6  A    between atoms: C_18  and  C_19
REMARK    7  A    between atoms: C_21  and  C_22
REMARK    8  A    between atoms: C_25  and  O_26
REMARK    9  A    between atoms: O_26  and  C_27
REMARK   10  A    between atoms: C_28  and  O_29
REMARK   11  A    between atoms: O_29  and  C_30
REMARK   12  A    between atoms: C_33  and  O_34
REMARK   13  A    between atoms: O_34  and  C_35
REMARK                            x       y       z     vdW  Elec       q    Type
REMARK                         _______ _______ _______ _____ _____    ______ ____
ROOT
ATOM      1  C   UNL     1       2.173   8.074  18.992  0.00  0.00    +0.000 C 
ATOM      2  C   UNL     1       1.405   8.562  19.992  0.00  0.00    +0.000 C 
ATOM      3  C   UNL     1       0.958   7.687  21.136  0.00  0.00    +0.000 C 
ATOM      4  C   UNL     1      -0.435   8.066  21.595  0.00  0.00    +0.000 C 
ATOM      5  C   UNL     1      -0.480   9.525  22.060  0.00  0.00    +0.000 C 
ATOM      6  C   UNL     1       0.286   9.735  23.370  0.00  0.00    +0.000 C 
ATOM      7  C   UNL     1      -0.018  10.477  20.960  0.00  0.00    +0.000 A 
ATOM      8  C   UNL     1       0.916   9.988  20.007  0.00  0.00    +0.000 A 
ATOM      9  N   UNL     1       1.437  10.778  19.038  0.00  0.00    +0.000 NA
ATOM     10  C   UNL     1       1.019  12.051  18.935  0.00  0.00    +0.000 A 
ATOM     11  C   UNL     1       0.059  12.608  19.787  0.00  0.00    +0.000 A 
ATOM     12  C   UNL     1      -0.461  11.843  20.865  0.00  0.00    +0.000 A 
ENDROOT
BRANCH   1  16
ATOM     13  C   UNL     1       3.620   4.025  18.767  0.00  0.00    +0.000 A 
ATOM     14  C   UNL     1       3.819   4.924  17.705  0.00  0.00    +0.000 A 
ATOM     15  C   UNL     1       3.359   6.246  17.777  0.00  0.00    +0.000 A 
ATOM     16  C   UNL     1       2.662   6.687  18.900  0.00  0.00    +0.000 A 
ATOM     17  C   UNL     1       2.435   5.783  19.944  0.00  0.00    +0.000 A 
ATOM     18  C   UNL     1       2.886   4.449  19.884  0.00  0.00    +0.000 A 
BRANCH  13  20
ATOM     19  C   UNL     1       3.310   1.797  18.013  0.00  0.00    +0.000 C 
ATOM     20  O   UNL     1       4.106   2.744  18.723  0.00  0.00    +0.000 OA
ENDBRANCH  13  20
BRANCH  18  21
ATOM     21  O   UNL     1       2.547   3.741  21.008  0.00  0.00    +0.000 OA
ATOM     22  C   UNL     1       1.339   2.996  21.028  0.00  0.00    +0.000 C 
ENDBRANCH  18  21
ENDBRANCH   1  16
BRANCH  12  23
ATOM     23  C   UNL     1      -1.383  12.485  21.872  0.00  0.00    +0.000 A 
ATOM     24  C   UNL     1      -0.937  13.329  22.893  0.00  0.00    +0.000 A 
ATOM     25  C   UNL     1      -1.834  14.026  23.711  0.00  0.00    +0.000 A 
ATOM     26  C   UNL     1      -3.211  13.795  23.647  0.00  0.00    +0.000 A 
ATOM     27  C   UNL     1      -3.690  12.850  22.731  0.00  0.00    +0.000 A 
ATOM     28  C   UNL     1      -2.780  12.263  21.828  0.00  0.00    +0.000 A 
BRANCH  26  29
ATOM     29  O   UNL     1      -3.908  14.565  24.538  0.00  0.00    +0.000 OA
ATOM     30  C   UNL     1      -4.464  15.793  24.092  0.00  0.00    +0.000 C 
ENDBRANCH  26  29
BRANCH  27  31
ATOM     31  O   UNL     1      -5.027  12.554  22.734  0.00  0.00    +0.000 OA
ATOM     32  C   UNL     1      -5.781  12.803  21.554  0.00  0.00    +0.000 C 
ENDBRANCH  27  31
ENDBRANCH  12  23
BRANCH  10  33
ATOM     33  N   UNL     1       1.707  12.821  17.996  0.00  0.00    +0.000 N 
ATOM     34  H   UNL     1       1.647  13.801  18.263  0.00  0.00    +0.000 HD
ATOM     35  H   UNL     1       2.655  12.524  17.788  0.00  0.00    +0.000 HD
ENDBRANCH  10  33
BRANCH  11  36
ATOM     36  C   UNL     1      -0.365  13.957  19.515  0.00  0.00    +0.000 C 
ATOM     37  N   UNL     1      -0.719  15.039  19.274  0.00  0.00    +0.000 NA
ENDBRANCH  11  36
TORSDOF 8
ENDMDL
MODEL 6
REMARK VINA RESULT:      -7.4      1.253      2.171
REMARK  Name = 
REMARK  13 active torsions:
REMARK  status: ('A' for Active; 'I' for Inactive)
REMARK    1  A    between atoms: C_1  and  O_2
REMARK    2  A    between atoms: O_2  and  C_3
REMARK    3  A    between atoms: C_6  and  C_7
REMARK    4  A    between atoms: C_11  and  C_12
REMARK    5  A    between atoms: C_16  and  N_17
REMARK    6  A    between atoms: C_18  and  C_19
REMARK    7  A    between atoms: C_21  and  C_22
REMARK    8  A    between atoms: C_25  and  O_26
REMARK    9  A    between atoms: O_26  and  C_27
REMARK   10  A    between atoms: C_28  and  O_29
REMARK   11  A    between atoms: O_29  and  C_30
REMARK   12  A    between atoms: C_33  and  O_34
REMARK   13  A    between atoms: O_34  and  C_35
REMARK                            x       y       z     vdW  Elec       q    Type
REMARK                         _______ _______ _______ _____ _____    ______ ____
ROOT
ATOM      1  C   UNL     1       2.237   7.935  18.983  0.00  0.00    +0.000 C 
ATOM      2  C   UNL     1       1.460   8.487  19.943  0.00  0.00    +0.000 C 
ATOM      3  C   UNL     1       0.959   7.672  21.110  0.00  0.00    +0.000 C 
ATOM      4  C   UNL     1      -0.432   8.112  21.517  0.00  0.00    +0.000 C 
ATOM      5  C   UNL     1      -0.444   9.589  21.922  0.00  0.00    +0.000 C 
ATOM      6  C   UNL     1       0.295   9.830  23.241  0.00  0.00    +0.000 C 
ATOM      7  C   UNL     1       0.073  10.480  20.796  0.00  0.00    +0.000 A 
ATOM      8  C   UNL     1       1.014   9.925  19.888  0.00  0.00    +0.000 A 
ATOM      9  N   UNL     1       1.583  10.659  18.901  0.00  0.00    +0.000 NA
ATOM     10  C   UNL     1       1.206  11.938  18.736  0.00  0.00    +0.000 A 
ATOM     11  C   UNL     1       0.244  12.558  19.540  0.00  0.00    +0.000 A 
ATOM     12  C   UNL     1      -0.326  11.854  20.635  0.00  0.00    +0.000 A 
ENDROOT
BRANCH   1  16
ATOM     13  C   UNL     1       3.566   3.840  18.959  0.00  0.00    +0.000 A 
ATOM     14  C   UNL     1       3.793   4.680  17.855  0.00  0.00    +0.000 A 
ATOM     15  C   UNL     1       3.371   6.017  17.862  0.00  0.00    +0.000 A 
ATOM     16  C   UNL     1       2.686   6.532  18.961  0.00  0.00    +0.000 A 
ATOM     17  C   UNL     1       2.431   5.686  20.046  0.00  0.00    +0.000 A 
ATOM     18  C   UNL     1       2.843   4.339  20.052  0.00  0.00    +0.000 A 
BRANCH  13  20
ATOM     19  C   UNL     1       3.383   1.650  18.065  0.00  0.00    +0.000 C 
ATOM     20  O   UNL     1       4.015   2.545  18.979  0.00  0.00    +0.000 OA
ENDBRANCH  13  20
BRANCH  18  21
ATOM     21  O   UNL     1       2.482   3.696  21.208  0.00  0.00    +0.000 OA
ATOM     22  C   UNL     1       1.340   2.854  21.213  0.00  0.00    +0.000 C 
ENDBRANCH  18  21
ENDBRANCH   1  16
BRANCH  12  23
ATOM     23  C   UNL     1      -1.252  12.564  21.591  0.00  0.00    +0.000 A 
ATOM     24  C   UNL     1      -2.645  12.533  21.477  0.00  0.00    +0.000 A 
ATOM     25  C   UNL     1      -3.472  13.074  22.468  0.00  0.00    +0.000 A 
ATOM     26  C   UNL     1      -2.948  13.804  23.538  0.00  0.00    +0.000 A 
ATOM     27  C   UNL     1      -1.561  13.979  23.614  0.00  0.00    +0.000 A 
ATOM     28  C   UNL     1      -0.744  13.310  22.680  0.00  0.00    +0.000 A 
BRANCH  26  29
ATOM     29  O   UNL     1      -3.924  14.258  24.384  0.00  0.00    +0.000 OA
ATOM     30  C   UNL     1      -4.687  15.392  24.001  0.00  0.00    +0.000 C 
ENDBRANCH  26  29
BRANCH  27  31
ATOM     31  O   UNL     1      -1.054  14.774  24.608  0.00  0.00    +0.000 OA
ATOM     32  C   UNL     1      -0.881  16.161  24.347  0.00  0.00    +0.000 C 
ENDBRANCH  27  31
ENDBRANCH  12  23
BRANCH  10  33
ATOM     33  N   UNL     1       1.940  12.649  17.785  0.00  0.00    +0.000 N 
ATOM     34  H   UNL     1       1.529  12.497  16.867  0.00  0.00    +0.000 HD
ATOM     35  H   UNL     1       2.101  13.629  17.991  0.00  0.00    +0.000 HD
ENDBRANCH  10  33
BRANCH  11  36
ATOM     36  C   UNL     1      -0.132  13.907  19.203  0.00  0.00    +0.000 C 
ATOM     37  N   UNL     1      -0.418  14.997  18.913  0.00  0.00    +0.000 NA
ENDBRANCH  11  36
TORSDOF 8
ENDMDL
MODEL 7
REMARK VINA RESULT:      -7.4      1.037      1.099
REMARK  Name = 
REMARK  13 active torsions:
REMARK  status: ('A' for Active; 'I' for Inactive)
REMARK    1  A    between atoms: C_1  and  O_2
REMARK    2  A    between atoms: O_2  and  C_3
REMARK    3  A    between atoms: C_6  and  C_7
REMARK    4  A    between atoms: C_11  and  C_12
REMARK    5  A    between atoms: C_16  and  N_17
REMARK    6  A    between atoms: C_18  and  C_19
REMARK    7  A    between atoms: C_21  and  C_22
REMARK    8  A    between atoms: C_25  and  O_26
REMARK    9  A    between atoms: O_26  and  C_27
REMARK   10  A    between atoms: C_28  and  O_29
REMARK   11  A    between atoms: O_29  and  C_30
REMARK   12  A    between atoms: C_33  and  O_34
REMARK   13  A    between atoms: O_34  and  C_35
REMARK                            x       y       z     vdW  Elec       q    Type
REMARK                         _______ _______ _______ _____ _____    ______ ____
ROOT
ATOM      1  C   UNL     1       2.178   8.192  18.911  0.00  0.00    +0.000 C 
ATOM      2  C   UNL     1       1.411   8.655  19.924  0.00  0.00    +0.000 C 
ATOM      3  C   UNL     1       0.983   7.756  21.057  0.00  0.00    +0.000 C 
ATOM      4  C   UNL     1      -0.411   8.111  21.531  0.00  0.00    +0.000 C 
ATOM      5  C   UNL     1      -0.470   9.561  22.020  0.00  0.00    +0.000 C 
ATOM      6  C   UNL     1       0.303   9.760  23.328  0.00  0.00    +0.000 C 
ATOM      7  C   UNL     1      -0.027  10.536  20.932  0.00  0.00    +0.000 A 
ATOM      8  C   UNL     1       0.905  10.074  19.965  0.00  0.00    +0.000 A 
ATOM      9  N   UNL     1       1.410  10.886  19.005  0.00  0.00    +0.000 NA
ATOM     10  C   UNL     1       0.976  12.155  18.926  0.00  0.00    +0.000 A 
ATOM     11  C   UNL     1       0.016  12.687  19.793  0.00  0.00    +0.000 A 
ATOM     12  C   UNL     1      -0.488  11.898  20.863  0.00  0.00    +0.000 A 
ENDROOT
BRANCH   1  16
ATOM     13  C   UNL     1       3.645   4.163  18.522  0.00  0.00    +0.000 A 
ATOM     14  C   UNL     1       2.764   4.515  19.560  0.00  0.00    +0.000 A 
ATOM     15  C   UNL     1       2.276   5.823  19.685  0.00  0.00    +0.000 A 
ATOM     16  C   UNL     1       2.683   6.813  18.793  0.00  0.00    +0.000 A 
ATOM     17  C   UNL     1       3.585   6.470  17.779  0.00  0.00    +0.000 A 
ATOM     18  C   UNL     1       4.090   5.162  17.644  0.00  0.00    +0.000 A 
BRANCH  13  20
ATOM     19  C   UNL     1       3.119   1.926  17.931  0.00  0.00    +0.000 C 
ATOM     20  O   UNL     1       4.091   2.876  18.366  0.00  0.00    +0.000 OA
ENDBRANCH  13  20
BRANCH  18  21
ATOM     21  O   UNL     1       4.963   5.053  16.592  0.00  0.00    +0.000 OA
ATOM     22  C   UNL     1       5.253   6.197  15.804  0.00  0.00    +0.000 C 
ENDBRANCH  18  21
ENDBRANCH   1  16
BRANCH  12  23
ATOM     23  C   UNL     1      -1.410  12.513  21.886  0.00  0.00    +0.000 A 
ATOM     24  C   UNL     1      -0.962  13.316  22.939  0.00  0.00    +0.000 A 
ATOM     25  C   UNL     1      -1.858  13.992  23.775  0.00  0.00    +0.000 A 
ATOM     26  C   UNL     1      -3.237  13.776  23.695  0.00  0.00    +0.000 A 
ATOM     27  C   UNL     1      -3.718  12.869  22.744  0.00  0.00    +0.000 A 
ATOM     28  C   UNL     1      -2.808  12.306  21.826  0.00  0.00    +0.000 A 
BRANCH  26  29
ATOM     29  O   UNL     1      -3.932  14.521  24.609  0.00  0.00    +0.000 OA
ATOM     30  C   UNL     1      -4.516  15.746  24.191  0.00  0.00    +0.000 C 
ENDBRANCH  26  29
BRANCH  27  31
ATOM     31  O   UNL     1      -5.058  12.586  22.729  0.00  0.00    +0.000 OA
ATOM     32  C   UNL     1      -5.766  12.717  21.502  0.00  0.00    +0.000 C 
ENDBRANCH  27  31
ENDBRANCH  12  23
BRANCH  10  33
ATOM     33  N   UNL     1       1.649  12.949  17.995  0.00  0.00    +0.000 N 
ATOM     34  H   UNL     1       1.542  13.926  18.254  0.00  0.00    +0.000 HD
ATOM     35  H   UNL     1       2.611  12.690  17.805  0.00  0.00    +0.000 HD
ENDBRANCH  10  33
BRANCH  11  36
ATOM     36  C   UNL     1      -0.426  14.035  19.546  0.00  0.00    +0.000 C 
ATOM     37  N   UNL     1      -0.805  15.119  19.358  0.00  0.00    +0.000 NA
ENDBRANCH  11  36
TORSDOF 8
ENDMDL
MODEL 8
REMARK VINA RESULT:      -6.8      2.263      2.934
REMARK  Name = 
REMARK  13 active torsions:
REMARK  status: ('A' for Active; 'I' for Inactive)
REMARK    1  A    between atoms: C_1  and  O_2
REMARK    2  A    between atoms: O_2  and  C_3
REMARK    3  A    between atoms: C_6  and  C_7
REMARK    4  A    between atoms: C_11  and  C_12
REMARK    5  A    between atoms: C_16  and  N_17
REMARK    6  A    between atoms: C_18  and  C_19
REMARK    7  A    between atoms: C_21  and  C_22
REMARK    8  A    between atoms: C_25  and  O_26
REMARK    9  A    between atoms: O_26  and  C_27
REMARK   10  A    between atoms: C_28  and  O_29
REMARK   11  A    between atoms: O_29  and  C_30
REMARK   12  A    between atoms: C_33  and  O_34
REMARK   13  A    between atoms: O_34  and  C_35
REMARK                            x       y       z     vdW  Elec       q    Type
REMARK                         _______ _______ _______ _____ _____    ______ ____
ROOT
ATOM      1  C   UNL     1       1.319   8.234  18.013  0.00  0.00    +0.000 C 
ATOM      2  C   UNL     1       0.930   9.177  18.902  0.00  0.00    +0.000 C 
ATOM      3  C   UNL     1       1.717   9.438  20.162  0.00  0.00    +0.000 C 
ATOM      4  C   UNL     1       0.796   9.795  21.310  0.00  0.00    +0.000 C 
ATOM      5  C   UNL     1      -0.023  11.047  20.986  0.00  0.00    +0.000 C 
ATOM      6  C   UNL     1       0.844  12.310  20.955  0.00  0.00    +0.000 C 
ATOM      7  C   UNL     1      -0.835  10.869  19.706  0.00  0.00    +0.000 A 
ATOM      8  C   UNL     1      -0.325   9.990  18.713  0.00  0.00    +0.000 A 
ATOM      9  N   UNL     1      -0.937   9.822  17.517  0.00  0.00    +0.000 NA
ATOM     10  C   UNL     1      -2.094  10.461  17.277  0.00  0.00    +0.000 A 
ATOM     11  C   UNL     1      -2.707  11.301  18.212  0.00  0.00    +0.000 A 
ATOM     12  C   UNL     1      -2.067  11.569  19.453  0.00  0.00    +0.000 A 
ENDROOT
BRANCH   1  16
ATOM     13  C   UNL     1       4.816   5.761  18.454  0.00  0.00    +0.000 A 
ATOM     14  C   UNL     1       4.774   6.790  17.497  0.00  0.00    +0.000 A 
ATOM     15  C   UNL     1       3.641   7.604  17.356  0.00  0.00    +0.000 A 
ATOM     16  C   UNL     1       2.516   7.386  18.148  0.00  0.00    +0.000 A 
ATOM     17  C   UNL     1       2.546   6.341  19.079  0.00  0.00    +0.000 A 
ATOM     18  C   UNL     1       3.674   5.510  19.228  0.00  0.00    +0.000 A 
BRANCH  13  20
ATOM     19  C   UNL     1       6.894   5.031  17.573  0.00  0.00    +0.000 C 
ATOM     20  O   UNL     1       5.936   4.990  18.629  0.00  0.00    +0.000 OA
ENDBRANCH  13  20
BRANCH  18  21
ATOM     21  O   UNL     1       3.481   4.550  20.188  0.00  0.00    +0.000 OA
ATOM     22  C   UNL     1       2.289   4.558  20.957  0.00  0.00    +0.000 C 
ENDBRANCH  18  21
ENDBRANCH   1  16
BRANCH  12  23
ATOM     23  C   UNL     1      -2.650  12.586  20.401  0.00  0.00    +0.000 A 
ATOM     24  C   UNL     1      -2.338  13.948  20.355  0.00  0.00    +0.000 A 
ATOM     25  C   UNL     1      -3.014  14.881  21.149  0.00  0.00    +0.000 A 
ATOM     26  C   UNL     1      -3.923  14.481  22.132  0.00  0.00    +0.000 A 
ATOM     27  C   UNL     1      -4.161  13.113  22.307  0.00  0.00    +0.000 A 
ATOM     28  C   UNL     1      -3.571  12.204  21.405  0.00  0.00    +0.000 A 
BRANCH  26  29
ATOM     29  O   UNL     1      -4.460  15.545  22.804  0.00  0.00    +0.000 OA
ATOM     30  C   UNL     1      -3.797  16.028  23.963  0.00  0.00    +0.000 C 
ENDBRANCH  26  29
BRANCH  27  31
ATOM     31  O   UNL     1      -4.978  12.716  23.332  0.00  0.00    +0.000 OA
ATOM     32  C   UNL     1      -4.391  12.420  24.593  0.00  0.00    +0.000 C 
ENDBRANCH  27  31
ENDBRANCH  12  23
BRANCH  10  33
ATOM     33  N   UNL     1      -2.577  10.332  15.974  0.00  0.00    +0.000 N 
ATOM     34  H   UNL     1      -2.169   9.503  15.549  0.00  0.00    +0.000 HD
ATOM     35  H   UNL     1      -3.586  10.377  15.869  0.00  0.00    +0.000 HD
ENDBRANCH  10  33
BRANCH  11  36
ATOM     36  C   UNL     1      -3.989  11.858  17.863  0.00  0.00    +0.000 C 
ATOM     37  N   UNL     1      -5.029  12.286  17.568  0.00  0.00    +0.000 NA
ENDBRANCH  11  36
TORSDOF 8
ENDMDL
MODEL 9
REMARK VINA RESULT:      -6.8      3.184     10.690
REMARK  Name = 
REMARK  13 active torsions:
REMARK  status: ('A' for Active; 'I' for Inactive)
REMARK    1  A    between atoms: C_1  and  O_2
REMARK    2  A    between atoms: O_2  and  C_3
REMARK    3  A    between atoms: C_6  and  C_7
REMARK    4  A    between atoms: C_11  and  C_12
REMARK    5  A    between atoms: C_16  and  N_17
REMARK    6  A    between atoms: C_18  and  C_19
REMARK    7  A    between atoms: C_21  and  C_22
REMARK    8  A    between atoms: C_25  and  O_26
REMARK    9  A    between atoms: O_26  and  C_27
REMARK   10  A    between atoms: C_28  and  O_29
REMARK   11  A    between atoms: O_29  and  C_30
REMARK   12  A    between atoms: C_33  and  O_34
REMARK   13  A    between atoms: O_34  and  C_35
REMARK                            x       y       z     vdW  Elec       q    Type
REMARK                         _______ _______ _______ _____ _____    ______ ____
ROOT
ATOM      1  C   UNL     1       0.520   8.118  21.242  0.00  0.00    +0.000 C 
ATOM      2  C   UNL     1       1.383   7.924  20.219  0.00  0.00    +0.000 C 
ATOM      3  C   UNL     1       1.695   9.024  19.236  0.00  0.00    +0.000 C 
ATOM      4  C   UNL     1       1.907   8.462  17.846  0.00  0.00    +0.000 C 
ATOM      5  C   UNL     1       3.066   7.462  17.830  0.00  0.00    +0.000 C 
ATOM      6  C   UNL     1       4.420   8.147  18.036  0.00  0.00    +0.000 C 
ATOM      7  C   UNL     1       2.835   6.323  18.820  0.00  0.00    +0.000 A 
ATOM      8  C   UNL     1       2.052   6.595  19.974  0.00  0.00    +0.000 A 
ATOM      9  N   UNL     1       1.851   5.670  20.943  0.00  0.00    +0.000 NA
ATOM     10  C   UNL     1       2.360   4.437  20.786  0.00  0.00    +0.000 A 
ATOM     11  C   UNL     1       3.094   4.053  19.659  0.00  0.00    +0.000 A 
ATOM     12  C   UNL     1       3.395   5.009  18.650  0.00  0.00    +0.000 A 
ENDROOT
BRANCH   1  16
ATOM     13  C   UNL     1      -1.520  11.826  22.036  0.00  0.00    +0.000 A 
ATOM     14  C   UNL     1      -1.164  10.958  23.083  0.00  0.00    +0.000 A 
ATOM     15  C   UNL     1      -0.491   9.754  22.831  0.00  0.00    +0.000 A 
ATOM     16  C   UNL     1      -0.188   9.379  21.523  0.00  0.00    +0.000 A 
ATOM     17  C   UNL     1      -0.570  10.229  20.479  0.00  0.00    +0.000 A 
ATOM     18  C   UNL     1      -1.253  11.438  20.715  0.00  0.00    +0.000 A 
BRANCH  13  20
ATOM     19  C   UNL     1      -3.563  13.015  22.233  0.00  0.00    +0.000 C 
ATOM     20  O   UNL     1      -2.137  13.026  22.278  0.00  0.00    +0.000 OA
ENDBRANCH  13  20
BRANCH  18  21
ATOM     21  O   UNL     1      -1.536  12.105  19.551  0.00  0.00    +0.000 OA
ATOM     22  C   UNL     1      -2.334  11.475  18.561  0.00  0.00    +0.000 C 
ENDBRANCH  18  21
ENDBRANCH   1  16
BRANCH  12  23
ATOM     23  C   UNL     1       4.308   4.639  17.508  0.00  0.00    +0.000 A 
ATOM     24  C   UNL     1       3.845   4.274  16.241  0.00  0.00    +0.000 A 
ATOM     25  C   UNL     1       4.722   4.088  15.166  0.00  0.00    +0.000 A 
ATOM     26  C   UNL     1       6.108   4.108  15.344  0.00  0.00    +0.000 A 
ATOM     27  C   UNL     1       6.616   4.331  16.629  0.00  0.00    +0.000 A 
ATOM     28  C   UNL     1       5.715   4.650  17.665  0.00  0.00    +0.000 A 
BRANCH  26  29
ATOM     29  O   UNL     1       6.784   3.890  14.174  0.00  0.00    +0.000 OA
ATOM     30  C   UNL     1       6.046   3.543  13.012  0.00  0.00    +0.000 C 
ENDBRANCH  26  29
BRANCH  27  31
ATOM     31  O   UNL     1       7.970   4.256  16.821  0.00  0.00    +0.000 OA
ATOM     32  C   UNL     1       8.481   4.429  18.137  0.00  0.00    +0.000 C 
ENDBRANCH  27  31
ENDBRANCH  12  23
BRANCH  10  33
ATOM     33  N   UNL     1       2.217   3.597  21.893  0.00  0.00    +0.000 N 
ATOM     34  H   UNL     1       1.232   3.537  22.138  0.00  0.00    +0.000 HD
ATOM     35  H   UNL     1       2.665   2.689  21.821  0.00  0.00    +0.000 HD
ENDBRANCH  10  33
BRANCH  11  36
ATOM     36  C   UNL     1       3.510   2.677  19.575  0.00  0.00    +0.000 C 
ATOM     37  N   UNL     1       3.821   1.558  19.509  0.00  0.00    +0.000 NA
ENDBRANCH  11  36
TORSDOF 8
ENDMDL
