MODEL 1
REMARK VINA RESULT:      -6.3      0.000      0.000
REMARK  Name = 
REMARK  8 active torsions:
REMARK  status: ('A' for Active; 'I' for Inactive)
REMARK    1  A    between atoms: C_1  and  O_2
REMARK    2  A    between atoms: O_2  and  C_3
REMARK    3  A    between atoms: C_8  and  N_9
REMARK    4  A    between atoms: N_9  and  C_10
REMARK    5  A    between atoms: C_10  and  C_11
REMARK    6  A    between atoms: C_15  and  C_17
REMARK    7  A    between atoms: C_19  and  C_20
REMARK    8  A    between atoms: C_22  and  C_23
REMARK                            x       y       z     vdW  Elec       q    Type
REMARK                         _______ _______ _______ _____ _____    ______ ____
ROOT
ATOM      1  N   UNL     1       3.687   4.770  18.798  0.00  0.00    +0.000 N 
ATOM      2  C   UNL     1       5.093   4.551  18.833  0.00  0.00    +0.000 C 
ATOM      3  O   UNL     1       5.598   3.731  19.601  0.00  0.00    +0.000 OA
ENDROOT
BRANCH   2   4
ATOM      4  C   UNL     1       5.989   5.365  17.956  0.00  0.00    +0.000 A 
ATOM      5  N   UNL     1       6.602   6.556  18.371  0.00  0.00    +0.000 NA
ATOM      6  C   UNL     1       7.314   7.089  17.404  0.00  0.00    +0.000 A 
ATOM      7  C   UNL     1       8.090   8.357  17.514  0.00  0.00    +0.000 C 
ATOM      8  S   UNL     1       7.306   6.221  15.931  0.00  0.00    +0.000 S 
ATOM      9  C   UNL     1       6.268   5.046  16.629  0.00  0.00    +0.000 A 
ATOM     10  C   UNL     1       5.832   3.875  15.817  0.00  0.00    +0.000 C 
ENDBRANCH   2   4
BRANCH   1  16
ATOM     11  C   UNL     1       2.281   2.725  19.174  0.00  0.00    +0.000 A 
ATOM     12  C   UNL     1       1.393   2.035  20.019  0.00  0.00    +0.000 A 
ATOM     13  C   UNL     1       1.114   2.500  21.305  0.00  0.00    +0.000 A 
ATOM     14  C   UNL     1       1.705   3.669  21.759  0.00  0.00    +0.000 A 
ATOM     15  C   UNL     1       2.554   4.396  20.918  0.00  0.00    +0.000 A 
ATOM     16  C   UNL     1       2.858   3.936  19.621  0.00  0.00    +0.000 A 
BRANCH  11  18
ATOM     17  C   UNL     1       3.660   1.369  17.806  0.00  0.00    +0.000 C 
ATOM     18  O   UNL     1       2.579   2.300  17.898  0.00  0.00    +0.000 OA
ENDBRANCH  11  18
ENDBRANCH   1  16
BRANCH   1  19
ATOM     19  C   UNL     1       3.107   5.800  17.928  0.00  0.00    +0.000 C 
BRANCH  19  20
ATOM     20  C   UNL     1       2.777   7.239  18.330  0.00  0.00    +0.000 C 
ATOM     21  F   UNL     1       2.569   7.467  19.636  0.00  0.00    +0.000 F 
ATOM     22  F   UNL     1       3.754   8.083  17.910  0.00  0.00    +0.000 F 
ATOM     23  F   UNL     1       1.642   7.637  17.690  0.00  0.00    +0.000 F 
ENDBRANCH  19  20
ENDBRANCH   1  19
TORSDOF 5
ENDMDL
MODEL 2
REMARK VINA RESULT:      -5.7      1.795      2.690
REMARK  Name = 
REMARK  8 active torsions:
REMARK  status: ('A' for Active; 'I' for Inactive)
REMARK    1  A    between atoms: C_1  and  O_2
REMARK    2  A    between atoms: O_2  and  C_3
REMARK    3  A    between atoms: C_8  and  N_9
REMARK    4  A    between atoms: N_9  and  C_10
REMARK    5  A    between atoms: C_10  and  C_11
REMARK    6  A    between atoms: C_15  and  C_17
REMARK    7  A    between atoms: C_19  and  C_20
REMARK    8  A    between atoms: C_22  and  C_23
REMARK                            x       y       z     vdW  Elec       q    Type
REMARK                         _______ _______ _______ _____ _____    ______ ____
ROOT
ATOM      1  N   UNL     1       3.980   4.382  18.437  0.00  0.00    +0.000 N 
ATOM      2  C   UNL     1       4.411   3.437  17.465  0.00  0.00    +0.000 C 
ATOM      3  O   UNL     1       4.108   2.246  17.546  0.00  0.00    +0.000 OA
ENDROOT
BRANCH   2   4
ATOM      4  C   UNL     1       5.293   3.882  16.342  0.00  0.00    +0.000 A 
ATOM      5  N   UNL     1       4.929   3.788  14.991  0.00  0.00    +0.000 NA
ATOM      6  C   UNL     1       5.891   4.219  14.206  0.00  0.00    +0.000 A 
ATOM      7  C   UNL     1       5.827   4.254  12.718  0.00  0.00    +0.000 C 
ATOM      8  S   UNL     1       7.298   4.763  15.011  0.00  0.00    +0.000 S 
ATOM      9  C   UNL     1       6.577   4.390  16.524  0.00  0.00    +0.000 A 
ATOM     10  C   UNL     1       7.328   4.659  17.782  0.00  0.00    +0.000 C 
ENDBRANCH   2   4
BRANCH   1  16
ATOM     11  C   UNL     1       3.505   3.079  20.529  0.00  0.00    +0.000 A 
ATOM     12  C   UNL     1       2.541   2.594  21.432  0.00  0.00    +0.000 A 
ATOM     13  C   UNL     1       1.202   2.975  21.328  0.00  0.00    +0.000 A 
ATOM     14  C   UNL     1       0.805   3.829  20.313  0.00  0.00    +0.000 A 
ATOM     15  C   UNL     1       1.738   4.286  19.377  0.00  0.00    +0.000 A 
ATOM     16  C   UNL     1       3.097   3.924  19.471  0.00  0.00    +0.000 A 
BRANCH  11  18
ATOM     17  C   UNL     1       5.082   1.336  20.824  0.00  0.00    +0.000 C 
ATOM     18  O   UNL     1       4.834   2.726  20.596  0.00  0.00    +0.000 OA
ENDBRANCH  11  18
ENDBRANCH   1  16
BRANCH   1  19
ATOM     19  C   UNL     1       4.408   5.784  18.365  0.00  0.00    +0.000 C 
BRANCH  19  20
ATOM     20  C   UNL     1       3.743   6.890  17.542  0.00  0.00    +0.000 C 
ATOM     21  F   UNL     1       3.770   8.127  18.062  0.00  0.00    +0.000 F 
ATOM     22  F   UNL     1       4.287   6.946  16.300  0.00  0.00    +0.000 F 
ATOM     23  F   UNL     1       2.427   6.585  17.358  0.00  0.00    +0.000 F 
ENDBRANCH  19  20
ENDBRANCH   1  19
TORSDOF 5
ENDMDL
MODEL 3
REMARK VINA RESULT:      -5.7      1.726      2.739
REMARK  Name = 
REMARK  8 active torsions:
REMARK  status: ('A' for Active; 'I' for Inactive)
REMARK    1  A    between atoms: C_1  and  O_2
REMARK    2  A    between atoms: O_2  and  C_3
REMARK    3  A    between atoms: C_8  and  N_9
REMARK    4  A    between atoms: N_9  and  C_10
REMARK    5  A    between atoms: C_10  and  C_11
REMARK    6  A    between atoms: C_15  and  C_17
REMARK    7  A    between atoms: C_19  and  C_20
REMARK    8  A    between atoms: C_22  and  C_23
REMARK                            x       y       z     vdW  Elec       q    Type
REMARK                         _______ _______ _______ _____ _____    ______ ____
ROOT
ATOM      1  N   UNL     1       3.822   4.331  18.312  0.00  0.00    +0.000 N 
ATOM      2  C   UNL     1       4.361   3.372  17.408  0.00  0.00    +0.000 C 
ATOM      3  O   UNL     1       4.169   2.165  17.560  0.00  0.00    +0.000 OA
ENDROOT
BRANCH   2   4
ATOM      4  C   UNL     1       5.221   3.829  16.274  0.00  0.00    +0.000 A 
ATOM      5  N   UNL     1       4.844   3.721  14.927  0.00  0.00    +0.000 NA
ATOM      6  C   UNL     1       5.788   4.166  14.129  0.00  0.00    +0.000 A 
ATOM      7  C   UNL     1       5.707   4.192  12.641  0.00  0.00    +0.000 C 
ATOM      8  S   UNL     1       7.192   4.744  14.915  0.00  0.00    +0.000 S 
ATOM      9  C   UNL     1       6.496   4.364  16.438  0.00  0.00    +0.000 A 
ATOM     10  C   UNL     1       7.256   4.655  17.686  0.00  0.00    +0.000 C 
ENDBRANCH   2   4
BRANCH   1  16
ATOM     11  C   UNL     1       3.424   3.099  20.461  0.00  0.00    +0.000 A 
ATOM     12  C   UNL     1       2.488   2.584  21.378  0.00  0.00    +0.000 A 
ATOM     13  C   UNL     1       1.125   2.851  21.243  0.00  0.00    +0.000 A 
ATOM     14  C   UNL     1       0.675   3.621  20.182  0.00  0.00    +0.000 A 
ATOM     15  C   UNL     1       1.582   4.103  19.233  0.00  0.00    +0.000 A 
ATOM     16  C   UNL     1       2.964   3.856  19.359  0.00  0.00    +0.000 A 
BRANCH  11  18
ATOM     17  C   UNL     1       5.130   1.494  20.815  0.00  0.00    +0.000 C 
ATOM     18  O   UNL     1       4.775   2.855  20.559  0.00  0.00    +0.000 OA
ENDBRANCH  11  18
ENDBRANCH   1  16
BRANCH   1  19
ATOM     19  C   UNL     1       4.118   5.760  18.157  0.00  0.00    +0.000 C 
BRANCH  19  20
ATOM     20  C   UNL     1       3.104   6.905  18.234  0.00  0.00    +0.000 C 
ATOM     21  F   UNL     1       1.941   6.723  17.590  0.00  0.00    +0.000 F 
ATOM     22  F   UNL     1       2.824   7.201  19.528  0.00  0.00    +0.000 F 
ATOM     23  F   UNL     1       3.657   8.033  17.706  0.00  0.00    +0.000 F 
ENDBRANCH  19  20
ENDBRANCH   1  19
TORSDOF 5
ENDMDL
MODEL 4
REMARK VINA RESULT:      -5.6      2.732      4.326
REMARK  Name = 
REMARK  8 active torsions:
REMARK  status: ('A' for Active; 'I' for Inactive)
REMARK    1  A    between atoms: C_1  and  O_2
REMARK    2  A    between atoms: O_2  and  C_3
REMARK    3  A    between atoms: C_8  and  N_9
REMARK    4  A    between atoms: N_9  and  C_10
REMARK    5  A    between atoms: C_10  and  C_11
REMARK    6  A    between atoms: C_15  and  C_17
REMARK    7  A    between atoms: C_19  and  C_20
REMARK    8  A    between atoms: C_22  and  C_23
REMARK                            x       y       z     vdW  Elec       q    Type
REMARK                         _______ _______ _______ _____ _____    ______ ____
ROOT
ATOM      1  N   UNL     1       3.336   6.249  17.801  0.00  0.00    +0.000 N 
ATOM      2  C   UNL     1       4.594   6.675  17.290  0.00  0.00    +0.000 C 
ATOM      3  O   UNL     1       5.004   7.823  17.463  0.00  0.00    +0.000 OA
ENDROOT
BRANCH   2   4
ATOM      4  C   UNL     1       5.421   5.727  16.482  0.00  0.00    +0.000 A 
ATOM      5  N   UNL     1       5.094   5.338  15.175  0.00  0.00    +0.000 NA
ATOM      6  C   UNL     1       5.967   4.478  14.700  0.00  0.00    +0.000 A 
ATOM      7  C   UNL     1       5.911   3.867  13.342  0.00  0.00    +0.000 C 
ATOM      8  S   UNL     1       7.237   4.065  15.768  0.00  0.00    +0.000 S 
ATOM      9  C   UNL     1       6.572   5.105  16.961  0.00  0.00    +0.000 A 
ATOM     10  C   UNL     1       7.259   5.250  18.274  0.00  0.00    +0.000 C 
ENDBRANCH   2   4
BRANCH   1  16
ATOM     11  C   UNL     1       2.289   6.946  19.973  0.00  0.00    +0.000 A 
ATOM     12  C   UNL     1       1.461   7.860  20.652  0.00  0.00    +0.000 A 
ATOM     13  C   UNL     1       0.981   9.006  20.017  0.00  0.00    +0.000 A 
ATOM     14  C   UNL     1       1.306   9.248  18.691  0.00  0.00    +0.000 A 
ATOM     15  C   UNL     1       2.088   8.330  17.984  0.00  0.00    +0.000 A 
ATOM     16  C   UNL     1       2.594   7.173  18.611  0.00  0.00    +0.000 A 
BRANCH  11  18
ATOM     17  C   UNL     1       1.787   4.892  21.039  0.00  0.00    +0.000 C 
ATOM     18  O   UNL     1       2.780   5.804  20.563  0.00  0.00    +0.000 OA
ENDBRANCH  11  18
ENDBRANCH   1  16
BRANCH   1  19
ATOM     19  C   UNL     1       2.830   4.899  17.526  0.00  0.00    +0.000 C 
BRANCH  19  20
ATOM     20  C   UNL     1       3.439   3.587  18.028  0.00  0.00    +0.000 C 
ATOM     21  F   UNL     1       4.079   2.835  17.120  0.00  0.00    +0.000 F 
ATOM     22  F   UNL     1       4.297   3.826  19.052  0.00  0.00    +0.000 F 
ATOM     23  F   UNL     1       2.453   2.801  18.545  0.00  0.00    +0.000 F 
ENDBRANCH  19  20
ENDBRANCH   1  19
TORSDOF 5
ENDMDL
MODEL 5
REMARK VINA RESULT:      -5.6      3.598      5.735
REMARK  Name = 
REMARK  8 active torsions:
REMARK  status: ('A' for Active; 'I' for Inactive)
REMARK    1  A    between atoms: C_1  and  O_2
REMARK    2  A    between atoms: O_2  and  C_3
REMARK    3  A    between atoms: C_8  and  N_9
REMARK    4  A    between atoms: N_9  and  C_10
REMARK    5  A    between atoms: C_10  and  C_11
REMARK    6  A    between atoms: C_15  and  C_17
REMARK    7  A    between atoms: C_19  and  C_20
REMARK    8  A    between atoms: C_22  and  C_23
REMARK                            x       y       z     vdW  Elec       q    Type
REMARK                         _______ _______ _______ _____ _____    ______ ____
ROOT
ATOM      1  N   UNL     1       2.585   5.942  19.361  0.00  0.00    +0.000 N 
ATOM      2  C   UNL     1       2.530   7.325  19.031  0.00  0.00    +0.000 C 
ATOM      3  O   UNL     1       3.179   7.790  18.093  0.00  0.00    +0.000 OA
ENDROOT
BRANCH   2   4
ATOM      4  C   UNL     1       1.706   8.252  19.866  0.00  0.00    +0.000 A 
ATOM      5  N   UNL     1       1.623   8.164  21.263  0.00  0.00    +0.000 NA
ATOM      6  C   UNL     1       0.811   9.075  21.752  0.00  0.00    +0.000 A 
ATOM      7  C   UNL     1       0.500   9.254  23.198  0.00  0.00    +0.000 C 
ATOM      8  S   UNL     1       0.086  10.100  20.592  0.00  0.00    +0.000 S 
ATOM      9  C   UNL     1       0.908   9.264  19.338  0.00  0.00    +0.000 A 
ATOM     10  C   UNL     1       0.723   9.693  17.924  0.00  0.00    +0.000 C 
ENDBRANCH   2   4
BRANCH   1  16
ATOM     11  C   UNL     1       4.753   4.937  18.596  0.00  0.00    +0.000 A 
ATOM     12  C   UNL     1       5.426   4.152  17.641  0.00  0.00    +0.000 A 
ATOM     13  C   UNL     1       4.724   3.474  16.643  0.00  0.00    +0.000 A 
ATOM     14  C   UNL     1       3.345   3.584  16.574  0.00  0.00    +0.000 A 
ATOM     15  C   UNL     1       2.661   4.397  17.484  0.00  0.00    +0.000 A 
ATOM     16  C   UNL     1       3.349   5.079  18.507  0.00  0.00    +0.000 A 
BRANCH  11  18
ATOM     17  C   UNL     1       6.836   5.617  19.496  0.00  0.00    +0.000 C 
ATOM     18  O   UNL     1       5.410   5.623  19.593  0.00  0.00    +0.000 OA
ENDBRANCH  11  18
ENDBRANCH   1  16
BRANCH   1  19
ATOM     19  C   UNL     1       1.861   5.417  20.525  0.00  0.00    +0.000 C 
BRANCH  19  20
ATOM     20  C   UNL     1       1.957   3.994  21.081  0.00  0.00    +0.000 C 
ATOM     21  F   UNL     1       2.759   3.144  20.421  0.00  0.00    +0.000 F 
ATOM     22  F   UNL     1       2.354   4.020  22.378  0.00  0.00    +0.000 F 
ATOM     23  F   UNL     1       0.719   3.425  21.081  0.00  0.00    +0.000 F 
ENDBRANCH  19  20
ENDBRANCH   1  19
TORSDOF 5
ENDMDL
MODEL 6
REMARK VINA RESULT:      -5.5      4.752      7.122
REMARK  Name = 
REMARK  8 active torsions:
REMARK  status: ('A' for Active; 'I' for Inactive)
REMARK    1  A    between atoms: C_1  and  O_2
REMARK    2  A    between atoms: O_2  and  C_3
REMARK    3  A    between atoms: C_8  and  N_9
REMARK    4  A    between atoms: N_9  and  C_10
REMARK    5  A    between atoms: C_10  and  C_11
REMARK    6  A    between atoms: C_15  and  C_17
REMARK    7  A    between atoms: C_19  and  C_20
REMARK    8  A    between atoms: C_22  and  C_23
REMARK                            x       y       z     vdW  Elec       q    Type
REMARK                         _______ _______ _______ _____ _____    ______ ____
ROOT
ATOM      1  N   UNL     1       1.187   9.551  19.608  0.00  0.00    +0.000 N 
ATOM      2  C   UNL     1       1.731   8.704  18.602  0.00  0.00    +0.000 C 
ATOM      3  O   UNL     1       1.715   9.025  17.413  0.00  0.00    +0.000 OA
ENDROOT
BRANCH   2   4
ATOM      4  C   UNL     1       2.293   7.372  18.981  0.00  0.00    +0.000 A 
ATOM      5  N   UNL     1       1.773   6.582  20.017  0.00  0.00    +0.000 NA
ATOM      6  C   UNL     1       2.464   5.474  20.166  0.00  0.00    +0.000 A 
ATOM      7  C   UNL     1       2.177   4.418  21.177  0.00  0.00    +0.000 C 
ATOM      8  S   UNL     1       3.782   5.289  19.091  0.00  0.00    +0.000 S 
ATOM      9  C   UNL     1       3.411   6.804  18.376  0.00  0.00    +0.000 A 
ATOM     10  C   UNL     1       4.241   7.305  17.244  0.00  0.00    +0.000 C 
ENDBRANCH   2   4
BRANCH   1  16
ATOM     11  C   UNL     1      -0.615  11.068  18.744  0.00  0.00    +0.000 A 
ATOM     12  C   UNL     1      -0.964  12.346  18.269  0.00  0.00    +0.000 A 
ATOM     13  C   UNL     1      -0.048  13.400  18.298  0.00  0.00    +0.000 A 
ATOM     14  C   UNL     1       1.232  13.187  18.784  0.00  0.00    +0.000 A 
ATOM     15  C   UNL     1       1.614  11.914  19.216  0.00  0.00    +0.000 A 
ATOM     16  C   UNL     1       0.701  10.840  19.208  0.00  0.00    +0.000 A 
BRANCH  11  18
ATOM     17  C   UNL     1      -2.336   9.930  17.580  0.00  0.00    +0.000 C 
ATOM     18  O   UNL     1      -1.488  10.004  18.729  0.00  0.00    +0.000 OA
ENDBRANCH  11  18
ENDBRANCH   1  16
BRANCH   1  19
ATOM     19  C   UNL     1       1.151   9.123  21.012  0.00  0.00    +0.000 C 
BRANCH  19  20
ATOM     20  C   UNL     1      -0.076   9.138  21.927  0.00  0.00    +0.000 C 
ATOM     21  F   UNL     1      -0.864  10.222  21.860  0.00  0.00    +0.000 F 
ATOM     22  F   UNL     1      -0.848   8.045  21.701  0.00  0.00    +0.000 F 
ATOM     23  F   UNL     1       0.329   9.044  23.225  0.00  0.00    +0.000 F 
ENDBRANCH  19  20
ENDBRANCH   1  19
TORSDOF 5
ENDMDL
MODEL 7
REMARK VINA RESULT:      -5.5      1.239      2.077
REMARK  Name = 
REMARK  8 active torsions:
REMARK  status: ('A' for Active; 'I' for Inactive)
REMARK    1  A    between atoms: C_1  and  O_2
REMARK    2  A    between atoms: O_2  and  C_3
REMARK    3  A    between atoms: C_8  and  N_9
REMARK    4  A    between atoms: N_9  and  C_10
REMARK    5  A    between atoms: C_10  and  C_11
REMARK    6  A    between atoms: C_15  and  C_17
REMARK    7  A    between atoms: C_19  and  C_20
REMARK    8  A    between atoms: C_22  and  C_23
REMARK                            x       y       z     vdW  Elec       q    Type
REMARK                         _______ _______ _______ _____ _____    ______ ____
ROOT
ATOM      1  N   UNL     1       3.553   4.442  18.510  0.00  0.00    +0.000 N 
ATOM      2  C   UNL     1       4.843   3.891  18.276  0.00  0.00    +0.000 C 
ATOM      3  O   UNL     1       5.306   3.005  18.996  0.00  0.00    +0.000 OA
ENDROOT
BRANCH   2   4
ATOM      4  C   UNL     1       5.684   4.426  17.161  0.00  0.00    +0.000 A 
ATOM      5  N   UNL     1       5.576   3.987  15.834  0.00  0.00    +0.000 NA
ATOM      6  C   UNL     1       6.446   4.594  15.058  0.00  0.00    +0.000 A 
ATOM      7  C   UNL     1       6.596   4.357  13.594  0.00  0.00    +0.000 C 
ATOM      8  S   UNL     1       7.457   5.727  15.845  0.00  0.00    +0.000 S 
ATOM      9  C   UNL     1       6.684   5.379  17.338  0.00  0.00    +0.000 A 
ATOM     10  C   UNL     1       7.108   6.101  18.570  0.00  0.00    +0.000 C 
ENDBRANCH   2   4
BRANCH   1  16
ATOM     11  C   UNL     1       1.678   2.988  19.328  0.00  0.00    +0.000 A 
ATOM     12  C   UNL     1       0.891   2.566  20.415  0.00  0.00    +0.000 A 
ATOM     13  C   UNL     1       1.192   2.963  21.719  0.00  0.00    +0.000 A 
ATOM     14  C   UNL     1       2.272   3.800  21.953  0.00  0.00    +0.000 A 
ATOM     15  C   UNL     1       3.039   4.268  20.882  0.00  0.00    +0.000 A 
ATOM     16  C   UNL     1       2.759   3.868  19.559  0.00  0.00    +0.000 A 
BRANCH  11  18
ATOM     17  C   UNL     1       2.390   1.770  17.425  0.00  0.00    +0.000 C 
ATOM     18  O   UNL     1       1.411   2.621  18.028  0.00  0.00    +0.000 OA
ENDBRANCH  11  18
ENDBRANCH   1  16
BRANCH   1  19
ATOM     19  C   UNL     1       3.045   5.545  17.686  0.00  0.00    +0.000 C 
BRANCH  19  20
ATOM     20  C   UNL     1       2.968   7.017  18.098  0.00  0.00    +0.000 C 
ATOM     21  F   UNL     1       1.922   7.718  17.633  0.00  0.00    +0.000 F 
ATOM     22  F   UNL     1       2.979   7.131  19.450  0.00  0.00    +0.000 F 
ATOM     23  F   UNL     1       4.083   7.667  17.660  0.00  0.00    +0.000 F 
ENDBRANCH  19  20
ENDBRANCH   1  19
TORSDOF 5
ENDMDL
MODEL 8
REMARK VINA RESULT:      -5.5      3.711      5.688
REMARK  Name = 
REMARK  8 active torsions:
REMARK  status: ('A' for Active; 'I' for Inactive)
REMARK    1  A    between atoms: C_1  and  O_2
REMARK    2  A    between atoms: O_2  and  C_3
REMARK    3  A    between atoms: C_8  and  N_9
REMARK    4  A    between atoms: N_9  and  C_10
REMARK    5  A    between atoms: C_10  and  C_11
REMARK    6  A    between atoms: C_15  and  C_17
REMARK    7  A    between atoms: C_19  and  C_20
REMARK    8  A    between atoms: C_22  and  C_23
REMARK                            x       y       z     vdW  Elec       q    Type
REMARK                         _______ _______ _______ _____ _____    ______ ____
ROOT
ATOM      1  N   UNL     1       2.515   6.246  19.379  0.00  0.00    +0.000 N 
ATOM      2  C   UNL     1       2.357   7.626  19.069  0.00  0.00    +0.000 C 
ATOM      3  O   UNL     1       2.969   8.151  18.138  0.00  0.00    +0.000 OA
ENDROOT
BRANCH   2   4
ATOM      4  C   UNL     1       1.466   8.476  19.916  0.00  0.00    +0.000 A 
ATOM      5  N   UNL     1       1.417   8.388  21.315  0.00  0.00    +0.000 NA
ATOM      6  C   UNL     1       0.534   9.222  21.816  0.00  0.00    +0.000 A 
ATOM      7  C   UNL     1       0.234   9.378  23.267  0.00  0.00    +0.000 C 
ATOM      8  S   UNL     1      -0.305  10.170  20.666  0.00  0.00    +0.000 S 
ATOM      9  C   UNL     1       0.568   9.407  19.400  0.00  0.00    +0.000 A 
ATOM     10  C   UNL     1       0.318   9.811  17.988  0.00  0.00    +0.000 C 
ENDBRANCH   2   4
BRANCH   1  16
ATOM     11  C   UNL     1       2.831   4.497  17.607  0.00  0.00    +0.000 A 
ATOM     12  C   UNL     1       3.729   3.692  16.881  0.00  0.00    +0.000 A 
ATOM     13  C   UNL     1       5.109   3.860  17.005  0.00  0.00    +0.000 A 
ATOM     14  C   UNL     1       5.612   4.820  17.867  0.00  0.00    +0.000 A 
ATOM     15  C   UNL     1       4.739   5.599  18.634  0.00  0.00    +0.000 A 
ATOM     16  C   UNL     1       3.342   5.455  18.513  0.00  0.00    +0.000 A 
BRANCH  11  18
ATOM     17  C   UNL     1       0.942   3.128  18.016  0.00  0.00    +0.000 C 
ATOM     18  O   UNL     1       1.464   4.361  17.515  0.00  0.00    +0.000 OA
ENDBRANCH  11  18
ENDBRANCH   1  16
BRANCH   1  19
ATOM     19  C   UNL     1       1.833   5.652  20.535  0.00  0.00    +0.000 C 
BRANCH  19  20
ATOM     20  C   UNL     1       2.123   4.279  21.146  0.00  0.00    +0.000 C 
ATOM     21  F   UNL     1       3.015   3.510  20.502  0.00  0.00    +0.000 F 
ATOM     22  F   UNL     1       2.538   4.412  22.431  0.00  0.00    +0.000 F 
ATOM     23  F   UNL     1       0.969   3.556  21.201  0.00  0.00    +0.000 F 
ENDBRANCH  19  20
ENDBRANCH   1  19
TORSDOF 5
ENDMDL
MODEL 9
REMARK VINA RESULT:      -5.4      1.691      2.982
REMARK  Name = 
REMARK  8 active torsions:
REMARK  status: ('A' for Active; 'I' for Inactive)
REMARK    1  A    between atoms: C_1  and  O_2
REMARK    2  A    between atoms: O_2  and  C_3
REMARK    3  A    between atoms: C_8  and  N_9
REMARK    4  A    between atoms: N_9  and  C_10
REMARK    5  A    between atoms: C_10  and  C_11
REMARK    6  A    between atoms: C_15  and  C_17
REMARK    7  A    between atoms: C_19  and  C_20
REMARK    8  A    between atoms: C_22  and  C_23
REMARK                            x       y       z     vdW  Elec       q    Type
REMARK                         _______ _______ _______ _____ _____    ______ ____
ROOT
ATOM      1  N   UNL     1       3.632   4.497  18.145  0.00  0.00    +0.000 N 
ATOM      2  C   UNL     1       4.851   3.795  17.934  0.00  0.00    +0.000 C 
ATOM      3  O   UNL     1       5.236   2.924  18.716  0.00  0.00    +0.000 OA
ENDROOT
BRANCH   2   4
ATOM      4  C   UNL     1       5.715   4.148  16.766  0.00  0.00    +0.000 A 
ATOM      5  N   UNL     1       5.444   3.735  15.453  0.00  0.00    +0.000 NA
ATOM      6  C   UNL     1       6.370   4.154  14.620  0.00  0.00    +0.000 A 
ATOM      7  C   UNL     1       6.383   3.888  13.154  0.00  0.00    +0.000 C 
ATOM      8  S   UNL     1       7.630   5.065  15.332  0.00  0.00    +0.000 S 
ATOM      9  C   UNL     1       6.893   4.882  16.871  0.00  0.00    +0.000 A 
ATOM     10  C   UNL     1       7.524   5.509  18.067  0.00  0.00    +0.000 C 
ENDBRANCH   2   4
BRANCH   1  16
ATOM     11  C   UNL     1       2.514   4.936  20.349  0.00  0.00    +0.000 A 
ATOM     12  C   UNL     1       1.791   4.414  21.437  0.00  0.00    +0.000 A 
ATOM     13  C   UNL     1       1.321   3.100  21.426  0.00  0.00    +0.000 A 
ATOM     14  C   UNL     1       1.581   2.284  20.337  0.00  0.00    +0.000 A 
ATOM     15  C   UNL     1       2.337   2.768  19.265  0.00  0.00    +0.000 A 
ATOM     16  C   UNL     1       2.810   4.096  19.251  0.00  0.00    +0.000 A 
BRANCH  11  18
ATOM     17  C   UNL     1       1.996   7.247  20.322  0.00  0.00    +0.000 C 
ATOM     18  O   UNL     1       2.996   6.225  20.323  0.00  0.00    +0.000 OA
ENDBRANCH  11  18
ENDBRANCH   1  16
BRANCH   1  19
ATOM     19  C   UNL     1       3.221   5.580  17.243  0.00  0.00    +0.000 C 
BRANCH  19  20
ATOM     20  C   UNL     1       3.902   6.944  17.103  0.00  0.00    +0.000 C 
ATOM     21  F   UNL     1       4.829   7.251  18.023  0.00  0.00    +0.000 F 
ATOM     22  F   UNL     1       4.474   7.062  15.878  0.00  0.00    +0.000 F 
ATOM     23  F   UNL     1       2.960   7.927  17.170  0.00  0.00    +0.000 F 
ENDBRANCH  19  20
ENDBRANCH   1  19
TORSDOF 5
ENDMDL
