MODEL 1
REMARK VINA RESULT:      -6.8      0.000      0.000
REMARK  Name = 
REMARK  7 active torsions:
REMARK  status: ('A' for Active; 'I' for Inactive)
REMARK    1  A    between atoms: C_1  and  C_2
REMARK    2  A    between atoms: C_2  and  C_3
REMARK    3  A    between atoms: C_2  and  N_4
REMARK    4  A    between atoms: C_5  and  C_6
REMARK    5  A    between atoms: C_6  and  N_7
REMARK    6  A    between atoms: N_15  and  C_16
REMARK    7  A    between atoms: C_16  and  C_17
REMARK                            x       y       z     vdW  Elec       q    Type
REMARK                         _______ _______ _______ _____ _____    ______ ____
ROOT
ATOM      1  N   UNL     1       4.621   4.665  19.286  0.00  0.00    +0.000 NA
ATOM      2  C   UNL     1       3.549   5.713  19.365  0.00  0.00    +0.000 C 
ATOM      3  C   UNL     1       3.676   6.543  18.072  0.00  0.00    +0.000 C 
ATOM      4  C   UNL     1       5.142   6.388  17.653  0.00  0.00    +0.000 C 
ATOM      5  C   UNL     1       5.295   5.799  16.242  0.00  0.00    +0.000 C 
ATOM      6  N   UNL     1       6.580   5.192  15.952  0.00  0.00    +0.000 NA
ATOM      7  C   UNL     1       7.342   4.542  16.995  0.00  0.00    +0.000 C 
ATOM      8  C   UNL     1       7.162   5.116  18.392  0.00  0.00    +0.000 C 
ATOM      9  C   UNL     1       5.746   5.532  18.769  0.00  0.00    +0.000 C 
ENDROOT
BRANCH   1  11
ATOM     10  C   UNL     1       4.219   2.195  19.437  0.00  0.00    +0.000 C 
ATOM     11  C   UNL     1       4.361   3.422  18.510  0.00  0.00    +0.000 C 
ATOM     12  C   UNL     1       3.102   3.306  17.618  0.00  0.00    +0.000 C 
ENDBRANCH   1  11
BRANCH   2  13
ATOM     13  C   UNL     1       2.088   5.470  19.760  0.00  0.00    +0.000 C 
BRANCH  13  14
ATOM     14  N   UNL     1       1.857   4.320  20.607  0.00  0.00    +0.000 N 
ATOM     15  C   UNL     1       2.406   3.999  21.811  0.00  0.00    +0.000 A 
ATOM     16  N   UNL     1       1.851   2.904  22.275  0.00  0.00    +0.000 NA
ATOM     17  C   UNL     1       0.956   2.580  21.300  0.00  0.00    +0.000 A 
ATOM     18  N   UNL     1       0.922   3.412  20.257  0.00  0.00    +0.000 NA
ENDBRANCH  13  14
ENDBRANCH   2  13
BRANCH   6  19
ATOM     19  C   UNL     1       7.326   5.653  14.793  0.00  0.00    +0.000 C 
BRANCH  19  20
ATOM     20  C   UNL     1       7.076   4.819  13.570  0.00  0.00    +0.000 A 
ATOM     21  C   UNL     1       7.699   4.890  12.335  0.00  0.00    +0.000 A 
ATOM     22  C   UNL     1       7.169   3.953  11.405  0.00  0.00    +0.000 A 
ATOM     23  C   UNL     1       6.164   3.195  11.958  0.00  0.00    +0.000 A 
ATOM     24  S   UNL     1       5.851   3.618  13.580  0.00  0.00    +0.000 S 
ENDBRANCH  19  20
ENDBRANCH   6  19
TORSDOF 5
ENDMDL
MODEL 2
REMARK VINA RESULT:      -6.4      0.834      1.147
REMARK  Name = 
REMARK  7 active torsions:
REMARK  status: ('A' for Active; 'I' for Inactive)
REMARK    1  A    between atoms: C_1  and  C_2
REMARK    2  A    between atoms: C_2  and  C_3
REMARK    3  A    between atoms: C_2  and  N_4
REMARK    4  A    between atoms: C_5  and  C_6
REMARK    5  A    between atoms: C_6  and  N_7
REMARK    6  A    between atoms: N_15  and  C_16
REMARK    7  A    between atoms: C_16  and  C_17
REMARK                            x       y       z     vdW  Elec       q    Type
REMARK                         _______ _______ _______ _____ _____    ______ ____
ROOT
ATOM      1  N   UNL     1       4.547   4.695  19.374  0.00  0.00    +0.000 NA
ATOM      2  C   UNL     1       3.398   5.657  19.269  0.00  0.00    +0.000 C 
ATOM      3  C   UNL     1       3.569   6.370  17.914  0.00  0.00    +0.000 C 
ATOM      4  C   UNL     1       5.072   6.294  17.620  0.00  0.00    +0.000 C 
ATOM      5  C   UNL     1       5.380   5.589  16.290  0.00  0.00    +0.000 C 
ATOM      6  N   UNL     1       6.724   5.062  16.156  0.00  0.00    +0.000 NA
ATOM      7  C   UNL     1       7.445   4.575  17.312  0.00  0.00    +0.000 C 
ATOM      8  C   UNL     1       7.112   5.261  18.629  0.00  0.00    +0.000 C 
ATOM      9  C   UNL     1       5.643   5.597  18.858  0.00  0.00    +0.000 C 
ENDROOT
BRANCH   1  11
ATOM     10  C   UNL     1       4.432   2.217  19.738  0.00  0.00    +0.000 C 
ATOM     11  C   UNL     1       4.440   3.368  18.709  0.00  0.00    +0.000 C 
ATOM     12  C   UNL     1       3.212   3.031  17.829  0.00  0.00    +0.000 C 
ENDBRANCH   1  11
BRANCH   2  13
ATOM     13  C   UNL     1       1.931   5.336  19.579  0.00  0.00    +0.000 C 
BRANCH  13  14
ATOM     14  N   UNL     1       1.717   4.271  20.533  0.00  0.00    +0.000 N 
ATOM     15  C   UNL     1       0.910   3.178  20.454  0.00  0.00    +0.000 A 
ATOM     16  N   UNL     1       1.083   2.419  21.511  0.00  0.00    +0.000 NA
ATOM     17  C   UNL     1       2.019   3.104  22.227  0.00  0.00    +0.000 A 
ATOM     18  N   UNL     1       2.438   4.245  21.675  0.00  0.00    +0.000 NA
ENDBRANCH  13  14
ENDBRANCH   2  13
BRANCH   6  19
ATOM     19  C   UNL     1       7.526   5.471  15.015  0.00  0.00    +0.000 C 
BRANCH  19  20
ATOM     20  C   UNL     1       7.131   4.773  13.746  0.00  0.00    +0.000 A 
ATOM     21  C   UNL     1       6.276   3.696  13.585  0.00  0.00    +0.000 A 
ATOM     22  C   UNL     1       6.170   3.285  12.227  0.00  0.00    +0.000 A 
ATOM     23  C   UNL     1       6.943   4.061  11.396  0.00  0.00    +0.000 A 
ATOM     24  S   UNL     1       7.800   5.267  12.245  0.00  0.00    +0.000 S 
ENDBRANCH  19  20
ENDBRANCH   6  19
TORSDOF 5
ENDMDL
MODEL 3
REMARK VINA RESULT:      -6.4      3.067      7.364
REMARK  Name = 
REMARK  7 active torsions:
REMARK  status: ('A' for Active; 'I' for Inactive)
REMARK    1  A    between atoms: C_1  and  C_2
REMARK    2  A    between atoms: C_2  and  C_3
REMARK    3  A    between atoms: C_2  and  N_4
REMARK    4  A    between atoms: C_5  and  C_6
REMARK    5  A    between atoms: C_6  and  N_7
REMARK    6  A    between atoms: N_15  and  C_16
REMARK    7  A    between atoms: C_16  and  C_17
REMARK                            x       y       z     vdW  Elec       q    Type
REMARK                         _______ _______ _______ _____ _____    ______ ____
ROOT
ATOM      1  N   UNL     1       6.327   4.635  17.718  0.00  0.00    +0.000 NA
ATOM      2  C   UNL     1       6.217   4.626  16.220  0.00  0.00    +0.000 C 
ATOM      3  C   UNL     1       4.887   5.333  15.892  0.00  0.00    +0.000 C 
ATOM      4  C   UNL     1       4.018   5.125  17.137  0.00  0.00    +0.000 C 
ATOM      5  C   UNL     1       3.551   6.450  17.760  0.00  0.00    +0.000 C 
ATOM      6  N   UNL     1       3.144   6.381  19.150  0.00  0.00    +0.000 NA
ATOM      7  C   UNL     1       3.768   5.441  20.056  0.00  0.00    +0.000 C 
ATOM      8  C   UNL     1       4.252   4.145  19.424  0.00  0.00    +0.000 C 
ATOM      9  C   UNL     1       4.899   4.269  18.050  0.00  0.00    +0.000 C 
ENDROOT
BRANCH   1  11
ATOM     10  C   UNL     1       7.972   5.501  19.401  0.00  0.00    +0.000 C 
ATOM     11  C   UNL     1       6.853   5.851  18.396  0.00  0.00    +0.000 C 
ATOM     12  C   UNL     1       7.497   6.990  17.571  0.00  0.00    +0.000 C 
ENDBRANCH   1  11
BRANCH   2  13
ATOM     13  C   UNL     1       7.334   5.000  15.239  0.00  0.00    +0.000 C 
BRANCH  13  14
ATOM     14  N   UNL     1       7.111   4.604  13.866  0.00  0.00    +0.000 N 
ATOM     15  C   UNL     1       7.705   5.045  12.723  0.00  0.00    +0.000 A 
ATOM     16  N   UNL     1       7.264   4.356  11.697  0.00  0.00    +0.000 NA
ATOM     17  C   UNL     1       6.379   3.491  12.269  0.00  0.00    +0.000 A 
ATOM     18  N   UNL     1       6.246   3.604  13.593  0.00  0.00    +0.000 NA
ENDBRANCH  13  14
ENDBRANCH   2  13
BRANCH   6  19
ATOM     19  C   UNL     1       1.820   6.856  19.517  0.00  0.00    +0.000 C 
BRANCH  19  20
ATOM     20  C   UNL     1       1.625   8.316  19.228  0.00  0.00    +0.000 A 
ATOM     21  C   UNL     1       2.002   9.030  18.102  0.00  0.00    +0.000 A 
ATOM     22  C   UNL     1       1.677  10.411  18.202  0.00  0.00    +0.000 A 
ATOM     23  C   UNL     1       1.060  10.708  19.395  0.00  0.00    +0.000 A 
ATOM     24  S   UNL     1       0.886   9.336  20.393  0.00  0.00    +0.000 S 
ENDBRANCH  19  20
ENDBRANCH   6  19
TORSDOF 5
ENDMDL
MODEL 4
REMARK VINA RESULT:      -6.3      2.042      2.793
REMARK  Name = 
REMARK  7 active torsions:
REMARK  status: ('A' for Active; 'I' for Inactive)
REMARK    1  A    between atoms: C_1  and  C_2
REMARK    2  A    between atoms: C_2  and  C_3
REMARK    3  A    between atoms: C_2  and  N_4
REMARK    4  A    between atoms: C_5  and  C_6
REMARK    5  A    between atoms: C_6  and  N_7
REMARK    6  A    between atoms: N_15  and  C_16
REMARK    7  A    between atoms: C_16  and  C_17
REMARK                            x       y       z     vdW  Elec       q    Type
REMARK                         _______ _______ _______ _____ _____    ______ ____
ROOT
ATOM      1  N   UNL     1       4.884   5.160  18.885  0.00  0.00    +0.000 NA
ATOM      2  C   UNL     1       3.877   6.273  18.833  0.00  0.00    +0.000 C 
ATOM      3  C   UNL     1       3.854   6.751  17.368  0.00  0.00    +0.000 C 
ATOM      4  C   UNL     1       5.237   6.389  16.817  0.00  0.00    +0.000 C 
ATOM      5  C   UNL     1       5.163   5.463  15.593  0.00  0.00    +0.000 C 
ATOM      6  N   UNL     1       6.368   4.710  15.304  0.00  0.00    +0.000 NA
ATOM      7  C   UNL     1       7.244   4.278  16.371  0.00  0.00    +0.000 C 
ATOM      8  C   UNL     1       7.288   5.188  17.590  0.00  0.00    +0.000 C 
ATOM      9  C   UNL     1       5.958   5.789  18.027  0.00  0.00    +0.000 C 
ENDROOT
BRANCH   1  11
ATOM     10  C   UNL     1       4.355   2.853  19.710  0.00  0.00    +0.000 C 
ATOM     11  C   UNL     1       4.466   3.789  18.487  0.00  0.00    +0.000 C 
ATOM     12  C   UNL     1       3.111   3.560  17.776  0.00  0.00    +0.000 C 
ENDBRANCH   1  11
BRANCH   2  13
ATOM     13  C   UNL     1       2.479   6.244  19.460  0.00  0.00    +0.000 C 
BRANCH  13  14
ATOM     14  N   UNL     1       1.913   7.538  19.775  0.00  0.00    +0.000 N 
ATOM     15  C   UNL     1       1.711   8.620  18.974  0.00  0.00    +0.000 A 
ATOM     16  N   UNL     1       1.091   9.561  19.646  0.00  0.00    +0.000 NA
ATOM     17  C   UNL     1       0.937   9.004  20.880  0.00  0.00    +0.000 A 
ATOM     18  N   UNL     1       1.425   7.768  21.012  0.00  0.00    +0.000 NA
ENDBRANCH  13  14
ENDBRANCH   2  13
BRANCH   6  19
ATOM     19  C   UNL     1       6.960   4.817  13.980  0.00  0.00    +0.000 C 
BRANCH  19  20
ATOM     20  C   UNL     1       6.287   3.936  12.968  0.00  0.00    +0.000 A 
ATOM     21  C   UNL     1       4.936   3.830  12.680  0.00  0.00    +0.000 A 
ATOM     22  C   UNL     1       4.670   2.859  11.675  0.00  0.00    +0.000 A 
ATOM     23  C   UNL     1       5.823   2.257  11.227  0.00  0.00    +0.000 A 
ATOM     24  S   UNL     1       7.213   2.848  12.018  0.00  0.00    +0.000 S 
ENDBRANCH  19  20
ENDBRANCH   6  19
TORSDOF 5
ENDMDL
MODEL 5
REMARK VINA RESULT:      -6.3      3.423      7.687
REMARK  Name = 
REMARK  7 active torsions:
REMARK  status: ('A' for Active; 'I' for Inactive)
REMARK    1  A    between atoms: C_1  and  C_2
REMARK    2  A    between atoms: C_2  and  C_3
REMARK    3  A    between atoms: C_2  and  N_4
REMARK    4  A    between atoms: C_5  and  C_6
REMARK    5  A    between atoms: C_6  and  N_7
REMARK    6  A    between atoms: N_15  and  C_16
REMARK    7  A    between atoms: C_16  and  C_17
REMARK                            x       y       z     vdW  Elec       q    Type
REMARK                         _______ _______ _______ _____ _____    ______ ____
ROOT
ATOM      1  N   UNL     1       3.984   4.895  17.904  0.00  0.00    +0.000 NA
ATOM      2  C   UNL     1       4.388   5.957  16.923  0.00  0.00    +0.000 C 
ATOM      3  C   UNL     1       3.719   7.257  17.411  0.00  0.00    +0.000 C 
ATOM      4  C   UNL     1       2.492   6.791  18.203  0.00  0.00    +0.000 C 
ATOM      5  C   UNL     1       2.500   7.290  19.656  0.00  0.00    +0.000 C 
ATOM      6  N   UNL     1       1.670   6.542  20.580  0.00  0.00    +0.000 NA
ATOM      7  C   UNL     1       1.458   5.123  20.400  0.00  0.00    +0.000 C 
ATOM      8  C   UNL     1       1.479   4.635  18.960  0.00  0.00    +0.000 C 
ATOM      9  C   UNL     1       2.527   5.268  18.052  0.00  0.00    +0.000 C 
ENDROOT
BRANCH   1  11
ATOM     10  C   UNL     1       4.813   3.290  19.643  0.00  0.00    +0.000 C 
ATOM     11  C   UNL     1       4.745   4.760  19.176  0.00  0.00    +0.000 C 
ATOM     12  C   UNL     1       6.228   5.197  19.251  0.00  0.00    +0.000 C 
ENDBRANCH   1  11
BRANCH   2  13
ATOM     13  C   UNL     1       5.807   6.195  16.394  0.00  0.00    +0.000 C 
BRANCH  13  14
ATOM     14  N   UNL     1       6.204   5.356  15.285  0.00  0.00    +0.000 N 
ATOM     15  C   UNL     1       5.506   4.389  14.628  0.00  0.00    +0.000 A 
ATOM     16  N   UNL     1       6.216   3.932  13.624  0.00  0.00    +0.000 NA
ATOM     17  C   UNL     1       7.368   4.657  13.710  0.00  0.00    +0.000 A 
ATOM     18  N   UNL     1       7.413   5.539  14.711  0.00  0.00    +0.000 NA
ENDBRANCH  13  14
ENDBRANCH   2  13
BRANCH   6  19
ATOM     19  C   UNL     1       0.670   7.256  21.357  0.00  0.00    +0.000 C 
BRANCH  19  20
ATOM     20  C   UNL     1       0.603   8.717  21.017  0.00  0.00    +0.000 A 
ATOM     21  C   UNL     1       0.199   9.309  19.832  0.00  0.00    +0.000 A 
ATOM     22  C   UNL     1       0.303  10.727  19.871  0.00  0.00    +0.000 A 
ATOM     23  C   UNL     1       0.777  11.173  21.083  0.00  0.00    +0.000 A 
ATOM     24  S   UNL     1       1.108   9.893  22.160  0.00  0.00    +0.000 S 
ENDBRANCH  19  20
ENDBRANCH   6  19
TORSDOF 5
ENDMDL
MODEL 6
REMARK VINA RESULT:      -6.2      2.854      7.620
REMARK  Name = 
REMARK  7 active torsions:
REMARK  status: ('A' for Active; 'I' for Inactive)
REMARK    1  A    between atoms: C_1  and  C_2
REMARK    2  A    between atoms: C_2  and  C_3
REMARK    3  A    between atoms: C_2  and  N_4
REMARK    4  A    between atoms: C_5  and  C_6
REMARK    5  A    between atoms: C_6  and  N_7
REMARK    6  A    between atoms: N_15  and  C_16
REMARK    7  A    between atoms: C_16  and  C_17
REMARK                            x       y       z     vdW  Elec       q    Type
REMARK                         _______ _______ _______ _____ _____    ______ ____
ROOT
ATOM      1  N   UNL     1       6.335   4.572  17.821  0.00  0.00    +0.000 NA
ATOM      2  C   UNL     1       6.229   4.645  16.325  0.00  0.00    +0.000 C 
ATOM      3  C   UNL     1       4.844   5.256  16.031  0.00  0.00    +0.000 C 
ATOM      4  C   UNL     1       3.993   4.901  17.255  0.00  0.00    +0.000 C 
ATOM      5  C   UNL     1       3.415   6.142  17.953  0.00  0.00    +0.000 C 
ATOM      6  N   UNL     1       3.013   5.954  19.334  0.00  0.00    +0.000 NA
ATOM      7  C   UNL     1       3.713   5.017  20.186  0.00  0.00    +0.000 C 
ATOM      8  C   UNL     1       4.306   3.807  19.480  0.00  0.00    +0.000 C 
ATOM      9  C   UNL     1       4.942   4.068  18.121  0.00  0.00    +0.000 C 
ENDROOT
BRANCH   1  11
ATOM     10  C   UNL     1       7.860   5.459  19.602  0.00  0.00    +0.000 C 
ATOM     11  C   UNL     1       6.755   5.785  18.575  0.00  0.00    +0.000 C 
ATOM     12  C   UNL     1       7.349   7.003  17.828  0.00  0.00    +0.000 C 
ENDBRANCH   1  11
BRANCH   2  13
ATOM     13  C   UNL     1       7.311   5.170  15.376  0.00  0.00    +0.000 C 
BRANCH  13  14
ATOM     14  N   UNL     1       7.198   4.732  14.002  0.00  0.00    +0.000 N 
ATOM     15  C   UNL     1       6.433   3.743  13.462  0.00  0.00    +0.000 A 
ATOM     16  N   UNL     1       6.571   3.736  12.157  0.00  0.00    +0.000 NA
ATOM     17  C   UNL     1       7.452   4.753  11.939  0.00  0.00    +0.000 A 
ATOM     18  N   UNL     1       7.869   5.392  13.034  0.00  0.00    +0.000 NA
ENDBRANCH  13  14
ENDBRANCH   2  13
BRANCH   6  19
ATOM     19  C   UNL     1       1.653   6.293  19.720  0.00  0.00    +0.000 C 
BRANCH  19  20
ATOM     20  C   UNL     1       1.501   7.736  20.105  0.00  0.00    +0.000 A 
ATOM     21  C   UNL     1       1.389   8.283  21.373  0.00  0.00    +0.000 A 
ATOM     22  C   UNL     1       1.225   9.696  21.342  0.00  0.00    +0.000 A 
ATOM     23  C   UNL     1       1.221  10.183  20.056  0.00  0.00    +0.000 A 
ATOM     24  S   UNL     1       1.399   8.947  18.894  0.00  0.00    +0.000 S 
ENDBRANCH  19  20
ENDBRANCH   6  19
TORSDOF 5
ENDMDL
MODEL 7
REMARK VINA RESULT:      -6.0      2.394      2.984
REMARK  Name = 
REMARK  7 active torsions:
REMARK  status: ('A' for Active; 'I' for Inactive)
REMARK    1  A    between atoms: C_1  and  C_2
REMARK    2  A    between atoms: C_2  and  C_3
REMARK    3  A    between atoms: C_2  and  N_4
REMARK    4  A    between atoms: C_5  and  C_6
REMARK    5  A    between atoms: C_6  and  N_7
REMARK    6  A    between atoms: N_15  and  C_16
REMARK    7  A    between atoms: C_16  and  C_17
REMARK                            x       y       z     vdW  Elec       q    Type
REMARK                         _______ _______ _______ _____ _____    ______ ____
ROOT
ATOM      1  N   UNL     1       3.892   5.481  19.376  0.00  0.00    +0.000 NA
ATOM      2  C   UNL     1       3.164   6.791  19.273  0.00  0.00    +0.000 C 
ATOM      3  C   UNL     1       3.600   7.410  17.930  0.00  0.00    +0.000 C 
ATOM      4  C   UNL     1       4.980   6.805  17.651  0.00  0.00    +0.000 C 
ATOM      5  C   UNL     1       5.036   6.050  16.314  0.00  0.00    +0.000 C 
ATOM      6  N   UNL     1       6.105   5.079  16.187  0.00  0.00    +0.000 NA
ATOM      7  C   UNL     1       6.586   4.355  17.343  0.00  0.00    +0.000 C 
ATOM      8  C   UNL     1       6.500   5.101  18.666  0.00  0.00    +0.000 C 
ATOM      9  C   UNL     1       5.246   5.937  18.884  0.00  0.00    +0.000 C 
ENDROOT
BRANCH   1  11
ATOM     10  C   UNL     1       2.925   3.191  19.700  0.00  0.00    +0.000 C 
ATOM     11  C   UNL     1       3.328   4.287  18.690  0.00  0.00    +0.000 C 
ATOM     12  C   UNL     1       2.055   4.414  17.818  0.00  0.00    +0.000 C 
ENDBRANCH   1  11
BRANCH   2  13
ATOM     13  C   UNL     1       1.676   7.013  19.562  0.00  0.00    +0.000 C 
BRANCH  13  14
ATOM     14  N   UNL     1       1.358   8.225  20.286  0.00  0.00    +0.000 N 
ATOM     15  C   UNL     1       1.383   8.475  21.624  0.00  0.00    +0.000 A 
ATOM     16  N   UNL     1       1.103   9.737  21.847  0.00  0.00    +0.000 NA
ATOM     17  C   UNL     1       0.902  10.230  20.592  0.00  0.00    +0.000 A 
ATOM     18  N   UNL     1       1.043   9.346  19.602  0.00  0.00    +0.000 NA
ENDBRANCH  13  14
ENDBRANCH   2  13
BRANCH   6  19
ATOM     19  C   UNL     1       7.018   5.186  15.060  0.00  0.00    +0.000 C 
BRANCH  19  20
ATOM     20  C   UNL     1       6.533   4.446  13.847  0.00  0.00    +0.000 A 
ATOM     21  C   UNL     1       5.369   3.711  13.693  0.00  0.00    +0.000 A 
ATOM     22  C   UNL     1       5.266   3.123  12.402  0.00  0.00    +0.000 A 
ATOM     23  C   UNL     1       6.349   3.428  11.612  0.00  0.00    +0.000 A 
ATOM     24  S   UNL     1       7.488   4.405  12.422  0.00  0.00    +0.000 S 
ENDBRANCH  19  20
ENDBRANCH   6  19
TORSDOF 5
ENDMDL
MODEL 8
REMARK VINA RESULT:      -5.9      1.516      2.820
REMARK  Name = 
REMARK  7 active torsions:
REMARK  status: ('A' for Active; 'I' for Inactive)
REMARK    1  A    between atoms: C_1  and  C_2
REMARK    2  A    between atoms: C_2  and  C_3
REMARK    3  A    between atoms: C_2  and  N_4
REMARK    4  A    between atoms: C_5  and  C_6
REMARK    5  A    between atoms: C_6  and  N_7
REMARK    6  A    between atoms: N_15  and  C_16
REMARK    7  A    between atoms: C_16  and  C_17
REMARK                            x       y       z     vdW  Elec       q    Type
REMARK                         _______ _______ _______ _____ _____    ______ ____
ROOT
ATOM      1  N   UNL     1       5.181   5.658  17.795  0.00  0.00    +0.000 NA
ATOM      2  C   UNL     1       4.315   4.537  18.294  0.00  0.00    +0.000 C 
ATOM      3  C   UNL     1       4.487   3.389  17.280  0.00  0.00    +0.000 C 
ATOM      4  C   UNL     1       4.877   4.080  15.970  0.00  0.00    +0.000 C 
ATOM      5  C   UNL     1       6.225   3.589  15.420  0.00  0.00    +0.000 C 
ATOM      6  N   UNL     1       6.883   4.482  14.485  0.00  0.00    +0.000 NA
ATOM      7  C   UNL     1       6.731   5.916  14.602  0.00  0.00    +0.000 C 
ATOM      8  C   UNL     1       5.404   6.390  15.174  0.00  0.00    +0.000 C 
ATOM      9  C   UNL     1       4.838   5.569  16.326  0.00  0.00    +0.000 C 
ENDROOT
BRANCH   1  11
ATOM     10  C   UNL     1       7.304   6.990  17.761  0.00  0.00    +0.000 C 
ATOM     11  C   UNL     1       6.634   5.645  18.117  0.00  0.00    +0.000 C 
ATOM     12  C   UNL     1       7.111   5.415  19.570  0.00  0.00    +0.000 C 
ENDBRANCH   1  11
BRANCH   2  13
ATOM     13  C   UNL     1       4.249   4.033  19.740  0.00  0.00    +0.000 C 
BRANCH  13  14
ATOM     14  N   UNL     1       2.935   3.640  20.201  0.00  0.00    +0.000 N 
ATOM     15  C   UNL     1       2.579   2.849  21.250  0.00  0.00    +0.000 A 
ATOM     16  N   UNL     1       1.272   2.821  21.363  0.00  0.00    +0.000 NA
ATOM     17  C   UNL     1       0.861   3.619  20.337  0.00  0.00    +0.000 A 
ATOM     18  N   UNL     1       1.838   4.142  19.594  0.00  0.00    +0.000 NA
ENDBRANCH  13  14
ENDBRANCH   2  13
BRANCH   6  19
ATOM     19  C   UNL     1       7.259   3.972  13.176  0.00  0.00    +0.000 C 
BRANCH  19  20
ATOM     20  C   UNL     1       6.083   3.475  12.386  0.00  0.00    +0.000 A 
ATOM     21  C   UNL     1       4.845   4.073  12.213  0.00  0.00    +0.000 A 
ATOM     22  C   UNL     1       3.968   3.283  11.419  0.00  0.00    +0.000 A 
ATOM     23  C   UNL     1       4.562   2.113  11.009  0.00  0.00    +0.000 A 
ATOM     24  S   UNL     1       6.159   1.959  11.587  0.00  0.00    +0.000 S 
ENDBRANCH  19  20
ENDBRANCH   6  19
TORSDOF 5
ENDMDL
MODEL 9
REMARK VINA RESULT:      -5.8      2.287      3.195
REMARK  Name = 
REMARK  7 active torsions:
REMARK  status: ('A' for Active; 'I' for Inactive)
REMARK    1  A    between atoms: C_1  and  C_2
REMARK    2  A    between atoms: C_2  and  C_3
REMARK    3  A    between atoms: C_2  and  N_4
REMARK    4  A    between atoms: C_5  and  C_6
REMARK    5  A    between atoms: C_6  and  N_7
REMARK    6  A    between atoms: N_15  and  C_16
REMARK    7  A    between atoms: C_16  and  C_17
REMARK                            x       y       z     vdW  Elec       q    Type
REMARK                         _______ _______ _______ _____ _____    ______ ____
ROOT
ATOM      1  N   UNL     1       4.319   4.831  18.387  0.00  0.00    +0.000 NA
ATOM      2  C   UNL     1       3.871   6.235  18.676  0.00  0.00    +0.000 C 
ATOM      3  C   UNL     1       4.203   7.051  17.411  0.00  0.00    +0.000 C 
ATOM      4  C   UNL     1       5.366   6.298  16.755  0.00  0.00    +0.000 C 
ATOM      5  C   UNL     1       5.049   5.857  15.318  0.00  0.00    +0.000 C 
ATOM      6  N   UNL     1       5.861   4.771  14.802  0.00  0.00    +0.000 NA
ATOM      7  C   UNL     1       6.362   3.740  15.685  0.00  0.00    +0.000 C 
ATOM      8  C   UNL     1       6.645   4.181  17.113  0.00  0.00    +0.000 C 
ATOM      9  C   UNL     1       5.641   5.149  17.728  0.00  0.00    +0.000 C 
ENDROOT
BRANCH   1  11
ATOM     10  C   UNL     1       3.586   2.457  18.052  0.00  0.00    +0.000 C 
ATOM     11  C   UNL     1       3.418   3.930  17.618  0.00  0.00    +0.000 C 
ATOM     12  C   UNL     1       1.884   4.118  17.681  0.00  0.00    +0.000 C 
ENDBRANCH   1  11
BRANCH   2  13
ATOM     13  C   UNL     1       2.526   6.636  19.292  0.00  0.00    +0.000 C 
BRANCH  13  14
ATOM     14  N   UNL     1       2.051   7.956  18.939  0.00  0.00    +0.000 N 
ATOM     15  C   UNL     1       2.025   8.579  17.729  0.00  0.00    +0.000 A 
ATOM     16  N   UNL     1       1.430   9.743  17.841  0.00  0.00    +0.000 NA
ATOM     17  C   UNL     1       1.108   9.795  19.164  0.00  0.00    +0.000 A 
ATOM     18  N   UNL     1       1.468   8.728  19.881  0.00  0.00    +0.000 NA
ENDBRANCH  13  14
ENDBRANCH   2  13
BRANCH   6  19
ATOM     19  C   UNL     1       6.583   4.968  13.556  0.00  0.00    +0.000 C 
BRANCH  19  20
ATOM     20  C   UNL     1       6.477   3.790  12.631  0.00  0.00    +0.000 A 
ATOM     21  C   UNL     1       7.492   3.119  11.969  0.00  0.00    +0.000 A 
ATOM     22  C   UNL     1       7.002   2.065  11.149  0.00  0.00    +0.000 A 
ATOM     23  C   UNL     1       5.632   1.963  11.212  0.00  0.00    +0.000 A 
ATOM     24  S   UNL     1       4.941   3.134  12.241  0.00  0.00    +0.000 S 
ENDBRANCH  19  20
ENDBRANCH   6  19
TORSDOF 5
ENDMDL
