MODEL 1
REMARK VINA RESULT:      -7.3      0.000      0.000
REMARK  Name = 
REMARK  7 active torsions:
REMARK  status: ('A' for Active; 'I' for Inactive)
REMARK    1  A    between atoms: C_1  and  C_2
REMARK    2  A    between atoms: C_10  and  N_11
REMARK    3  A    between atoms: N_14  and  C_15
REMARK    4  A    between atoms: C_18  and  C_19
REMARK    5  A    between atoms: C_19  and  C_20
REMARK    6  A    between atoms: C_20  and  C_21
REMARK    7  A    between atoms: C_21  and  O_23
REMARK                            x       y       z     vdW  Elec       q    Type
REMARK                         _______ _______ _______ _____ _____    ______ ____
ROOT
ATOM      1  C   UNL     1      -1.673  13.064  20.512  0.00  0.00    +0.000 C 
ATOM      2  C   UNL     1      -1.037  11.820  19.995  0.00  0.00    +0.000 A 
ATOM      3  C   UNL     1      -0.833  11.541  18.662  0.00  0.00    +0.000 A 
ATOM      4  S   UNL     1      -0.142  10.010  18.424  0.00  0.00    +0.000 S 
ATOM      5  C   UNL     1       0.101   9.744  20.118  0.00  0.00    +0.000 A 
ATOM      6  C   UNL     1       0.771   8.706  20.824  0.00  0.00    +0.000 A 
ATOM      7  N   UNL     1       1.533   7.673  20.257  0.00  0.00    +0.000 N 
ATOM      8  C   UNL     1       2.448   8.034  19.180  0.00  0.00    +0.000 C 
ATOM      9  C   UNL     1       2.754   6.792  18.357  0.00  0.00    +0.000 C 
ATOM     10  C   UNL     1       3.228   5.578  19.178  0.00  0.00    +0.000 C 
ATOM     11  C   UNL     1       2.374   5.376  20.493  0.00  0.00    +0.000 C 
ATOM     12  C   UNL     1       2.186   6.743  21.195  0.00  0.00    +0.000 C 
ATOM     13  N   UNL     1       0.585   8.699  22.173  0.00  0.00    +0.000 NA
ATOM     14  C   UNL     1      -0.105   9.685  22.762  0.00  0.00    +0.000 A 
ATOM     15  N   UNL     1      -0.654  10.747  22.181  0.00  0.00    +0.000 NA
ATOM     16  C   UNL     1      -0.544  10.757  20.831  0.00  0.00    +0.000 A 
ENDROOT
BRANCH  10  17
ATOM     17  N   UNL     1       3.572   4.353  18.402  0.00  0.00    +0.000 NA
ATOM     18  C   UNL     1       4.857   3.727  18.797  0.00  0.00    +0.000 C 
ATOM     19  C   UNL     1       6.139   4.268  18.096  0.00  0.00    +0.000 C 
ATOM     20  N   UNL     1       6.041   4.503  16.644  0.00  0.00    +0.000 NA
ATOM     21  C   UNL     1       7.118   5.374  16.176  0.00  0.00    +0.000 C 
ATOM     22  C   UNL     1       4.744   5.051  16.238  0.00  0.00    +0.000 C 
ATOM     23  C   UNL     1       3.563   4.356  16.929  0.00  0.00    +0.000 C 
ENDBRANCH  10  17
BRANCH  11  24
ATOM     24  C   UNL     1       1.016   4.666  20.298  0.00  0.00    +0.000 C 
BRANCH  24  25
ATOM     25  C   UNL     1       0.958   3.160  20.552  0.00  0.00    +0.000 C 
BRANCH  25  26
ATOM     26  C   UNL     1       1.038   2.379  19.259  0.00  0.00    +0.000 C 
ATOM     27  O   UNL     1       0.161   2.343  18.417  0.00  0.00    +0.000 OA
BRANCH  26  28
ATOM     28  O   UNL     1       2.198   1.694  19.108  0.00  0.00    +0.000 OA
ATOM     29  H   UNL     1       2.993   2.232  19.282  0.00  0.00    +0.000 HD
ENDBRANCH  26  28
ENDBRANCH  25  26
ENDBRANCH  24  25
ENDBRANCH  11  24
TORSDOF 5
ENDMDL
MODEL 2
REMARK VINA RESULT:      -7.2      1.104      1.278
REMARK  Name = 
REMARK  7 active torsions:
REMARK  status: ('A' for Active; 'I' for Inactive)
REMARK    1  A    between atoms: C_1  and  C_2
REMARK    2  A    between atoms: C_10  and  N_11
REMARK    3  A    between atoms: N_14  and  C_15
REMARK    4  A    between atoms: C_18  and  C_19
REMARK    5  A    between atoms: C_19  and  C_20
REMARK    6  A    between atoms: C_20  and  C_21
REMARK    7  A    between atoms: C_21  and  O_23
REMARK                            x       y       z     vdW  Elec       q    Type
REMARK                         _______ _______ _______ _____ _____    ______ ____
ROOT
ATOM      1  C   UNL     1      -2.026  13.121  20.832  0.00  0.00    +0.000 C 
ATOM      2  C   UNL     1      -1.396  11.897  20.263  0.00  0.00    +0.000 A 
ATOM      3  C   UNL     1      -1.321  11.610  18.918  0.00  0.00    +0.000 A 
ATOM      4  S   UNL     1      -0.594  10.105  18.623  0.00  0.00    +0.000 S 
ATOM      5  C   UNL     1      -0.164   9.871  20.284  0.00  0.00    +0.000 A 
ATOM      6  C   UNL     1       0.620   8.872  20.926  0.00  0.00    +0.000 A 
ATOM      7  N   UNL     1       1.361   7.863  20.291  0.00  0.00    +0.000 N 
ATOM      8  C   UNL     1       2.143   8.248  19.120  0.00  0.00    +0.000 C 
ATOM      9  C   UNL     1       2.413   7.008  18.281  0.00  0.00    +0.000 C 
ATOM     10  C   UNL     1       3.021   5.826  19.059  0.00  0.00    +0.000 C 
ATOM     11  C   UNL     1       2.318   5.606  20.457  0.00  0.00    +0.000 C 
ATOM     12  C   UNL     1       2.148   6.974  21.163  0.00  0.00    +0.000 C 
ATOM     13  N   UNL     1       0.576   8.875  22.286  0.00  0.00    +0.000 NA
ATOM     14  C   UNL     1      -0.090   9.840  22.935  0.00  0.00    +0.000 A 
ATOM     15  N   UNL     1      -0.741  10.870  22.405  0.00  0.00    +0.000 NA
ATOM     16  C   UNL     1      -0.773  10.867  21.051  0.00  0.00    +0.000 A 
ENDROOT
BRANCH  10  17
ATOM     17  N   UNL     1       3.333   4.605  18.262  0.00  0.00    +0.000 NA
ATOM     18  C   UNL     1       4.347   3.719  18.884  0.00  0.00    +0.000 C 
ATOM     19  C   UNL     1       5.839   4.042  18.572  0.00  0.00    +0.000 C 
ATOM     20  N   UNL     1       6.157   4.377  17.173  0.00  0.00    +0.000 NA
ATOM     21  C   UNL     1       7.452   5.048  17.071  0.00  0.00    +0.000 C 
ATOM     22  C   UNL     1       5.121   5.190  16.528  0.00  0.00    +0.000 C 
ATOM     23  C   UNL     1       3.702   4.699  16.838  0.00  0.00    +0.000 C 
ENDBRANCH  10  17
BRANCH  11  24
ATOM     24  C   UNL     1       0.979   4.839  20.412  0.00  0.00    +0.000 C 
BRANCH  24  25
ATOM     25  C   UNL     1       1.034   3.311  20.418  0.00  0.00    +0.000 C 
BRANCH  25  26
ATOM     26  C   UNL     1       1.651   2.787  21.696  0.00  0.00    +0.000 C 
ATOM     27  O   UNL     1       2.844   2.636  21.879  0.00  0.00    +0.000 OA
BRANCH  26  28
ATOM     28  O   UNL     1       0.741   2.481  22.654  0.00  0.00    +0.000 OA
ATOM     29  H   UNL     1       0.829   3.022  23.461  0.00  0.00    +0.000 HD
ENDBRANCH  26  28
ENDBRANCH  25  26
ENDBRANCH  24  25
ENDBRANCH  11  24
TORSDOF 5
ENDMDL
MODEL 3
REMARK VINA RESULT:      -6.9      1.136      1.475
REMARK  Name = 
REMARK  7 active torsions:
REMARK  status: ('A' for Active; 'I' for Inactive)
REMARK    1  A    between atoms: C_1  and  C_2
REMARK    2  A    between atoms: C_10  and  N_11
REMARK    3  A    between atoms: N_14  and  C_15
REMARK    4  A    between atoms: C_18  and  C_19
REMARK    5  A    between atoms: C_19  and  C_20
REMARK    6  A    between atoms: C_20  and  C_21
REMARK    7  A    between atoms: C_21  and  O_23
REMARK                            x       y       z     vdW  Elec       q    Type
REMARK                         _______ _______ _______ _____ _____    ______ ____
ROOT
ATOM      1  C   UNL     1      -2.384  12.940  20.674  0.00  0.00    +0.000 C 
ATOM      2  C   UNL     1      -1.623  11.873  19.964  0.00  0.00    +0.000 A 
ATOM      3  C   UNL     1      -1.558  11.739  18.595  0.00  0.00    +0.000 A 
ATOM      4  S   UNL     1      -0.657  10.380  18.125  0.00  0.00    +0.000 S 
ATOM      5  C   UNL     1      -0.145  10.032  19.743  0.00  0.00    +0.000 A 
ATOM      6  C   UNL     1       0.779   9.081  20.258  0.00  0.00    +0.000 A 
ATOM      7  N   UNL     1       1.620   8.248  19.503  0.00  0.00    +0.000 N 
ATOM      8  C   UNL     1       2.307   8.850  18.365  0.00  0.00    +0.000 C 
ATOM      9  C   UNL     1       2.704   7.749  17.393  0.00  0.00    +0.000 C 
ATOM     10  C   UNL     1       3.482   6.581  18.027  0.00  0.00    +0.000 C 
ATOM     11  C   UNL     1       2.860   6.129  19.407  0.00  0.00    +0.000 C 
ATOM     12  C   UNL     1       2.542   7.383  20.259  0.00  0.00    +0.000 C 
ATOM     13  N   UNL     1       0.781   8.938  21.611  0.00  0.00    +0.000 NA
ATOM     14  C   UNL     1       0.021   9.735  22.373  0.00  0.00    +0.000 A 
ATOM     15  N   UNL     1      -0.772  10.723  21.970  0.00  0.00    +0.000 NA
ATOM     16  C   UNL     1      -0.850  10.856  20.625  0.00  0.00    +0.000 A 
ENDROOT
BRANCH  10  17
ATOM     17  N   UNL     1       3.919   5.501  17.097  0.00  0.00    +0.000 NA
ATOM     18  C   UNL     1       4.237   4.218  17.769  0.00  0.00    +0.000 C 
ATOM     19  C   UNL     1       5.693   4.051  18.300  0.00  0.00    +0.000 C 
ATOM     20  N   UNL     1       6.771   4.511  17.406  0.00  0.00    +0.000 NA
ATOM     21  C   UNL     1       8.023   4.695  18.140  0.00  0.00    +0.000 C 
ATOM     22  C   UNL     1       6.432   5.740  16.682  0.00  0.00    +0.000 C 
ATOM     23  C   UNL     1       5.003   5.725  16.125  0.00  0.00    +0.000 C 
ENDBRANCH  10  17
BRANCH  11  24
ATOM     24  C   UNL     1       1.627   5.203  19.307  0.00  0.00    +0.000 C 
BRANCH  24  25
ATOM     25  C   UNL     1       1.095   4.587  20.601  0.00  0.00    +0.000 C 
BRANCH  25  26
ATOM     26  C   UNL     1       1.873   3.347  20.982  0.00  0.00    +0.000 C 
ATOM     27  O   UNL     1       2.181   3.045  22.119  0.00  0.00    +0.000 OA
BRANCH  26  28
ATOM     28  O   UNL     1       2.219   2.575  19.922  0.00  0.00    +0.000 OA
ATOM     29  H   UNL     1       1.470   2.083  19.539  0.00  0.00    +0.000 HD
ENDBRANCH  26  28
ENDBRANCH  25  26
ENDBRANCH  24  25
ENDBRANCH  11  24
TORSDOF 5
ENDMDL
MODEL 4
REMARK VINA RESULT:      -6.8      3.264      8.630
REMARK  Name = 
REMARK  7 active torsions:
REMARK  status: ('A' for Active; 'I' for Inactive)
REMARK    1  A    between atoms: C_1  and  C_2
REMARK    2  A    between atoms: C_10  and  N_11
REMARK    3  A    between atoms: N_14  and  C_15
REMARK    4  A    between atoms: C_18  and  C_19
REMARK    5  A    between atoms: C_19  and  C_20
REMARK    6  A    between atoms: C_20  and  C_21
REMARK    7  A    between atoms: C_21  and  O_23
REMARK                            x       y       z     vdW  Elec       q    Type
REMARK                         _______ _______ _______ _____ _____    ______ ____
ROOT
ATOM      1  C   UNL     1       4.511   3.348  19.358  0.00  0.00    +0.000 C 
ATOM      2  C   UNL     1       3.490   4.389  19.662  0.00  0.00    +0.000 A 
ATOM      3  C   UNL     1       2.585   4.318  20.697  0.00  0.00    +0.000 A 
ATOM      4  S   UNL     1       1.526   5.644  20.717  0.00  0.00    +0.000 S 
ATOM      5  C   UNL     1       2.376   6.472  19.455  0.00  0.00    +0.000 A 
ATOM      6  C   UNL     1       2.221   7.778  18.911  0.00  0.00    +0.000 A 
ATOM      7  N   UNL     1       1.371   8.784  19.395  0.00  0.00    +0.000 N 
ATOM      8  C   UNL     1       1.327   8.980  20.841  0.00  0.00    +0.000 C 
ATOM      9  C   UNL     1       0.024   9.676  21.203  0.00  0.00    +0.000 C 
ATOM     10  C   UNL     1      -0.262  10.961  20.404  0.00  0.00    +0.000 C 
ATOM     11  C   UNL     1       0.057  10.792  18.865  0.00  0.00    +0.000 C 
ATOM     12  C   UNL     1       1.425  10.083  18.704  0.00  0.00    +0.000 C 
ATOM     13  N   UNL     1       2.927   8.027  17.774  0.00  0.00    +0.000 NA
ATOM     14  C   UNL     1       3.777   7.109  17.295  0.00  0.00    +0.000 A 
ATOM     15  N   UNL     1       4.061   5.920  17.817  0.00  0.00    +0.000 NA
ATOM     16  C   UNL     1       3.333   5.609  18.915  0.00  0.00    +0.000 A 
ENDROOT
BRANCH  10  17
ATOM     17  N   UNL     1      -1.513  11.690  20.756  0.00  0.00    +0.000 NA
ATOM     18  C   UNL     1      -1.675  12.988  20.057  0.00  0.00    +0.000 C 
ATOM     19  C   UNL     1      -1.019  14.230  20.732  0.00  0.00    +0.000 C 
ATOM     20  N   UNL     1      -1.184  14.344  22.192  0.00  0.00    +0.000 NA
ATOM     21  C   UNL     1      -0.214  15.278  22.762  0.00  0.00    +0.000 C 
ATOM     22  C   UNL     1      -1.100  13.053  22.882  0.00  0.00    +0.000 C 
ATOM     23  C   UNL     1      -1.877  11.944  22.162  0.00  0.00    +0.000 C 
ENDBRANCH  10  17
BRANCH  11  24
ATOM     24  C   UNL     1      -1.034  10.080  18.036  0.00  0.00    +0.000 C 
BRANCH  24  25
ATOM     25  C   UNL     1      -1.864  10.929  17.074  0.00  0.00    +0.000 C 
BRANCH  25  26
ATOM     26  C   UNL     1      -3.332  10.897  17.436  0.00  0.00    +0.000 C 
ATOM     27  O   UNL     1      -3.939   9.901  17.778  0.00  0.00    +0.000 OA
BRANCH  26  28
ATOM     28  O   UNL     1      -3.943  12.104  17.341  0.00  0.00    +0.000 OA
ATOM     29  H   UNL     1      -4.861  12.051  17.017  0.00  0.00    +0.000 HD
ENDBRANCH  26  28
ENDBRANCH  25  26
ENDBRANCH  24  25
ENDBRANCH  11  24
TORSDOF 5
ENDMDL
MODEL 5
REMARK VINA RESULT:      -6.1      5.481     11.077
REMARK  Name = 
REMARK  7 active torsions:
REMARK  status: ('A' for Active; 'I' for Inactive)
REMARK    1  A    between atoms: C_1  and  C_2
REMARK    2  A    between atoms: C_10  and  N_11
REMARK    3  A    between atoms: N_14  and  C_15
REMARK    4  A    between atoms: C_18  and  C_19
REMARK    5  A    between atoms: C_19  and  C_20
REMARK    6  A    between atoms: C_20  and  C_21
REMARK    7  A    between atoms: C_21  and  O_23
REMARK                            x       y       z     vdW  Elec       q    Type
REMARK                         _______ _______ _______ _____ _____    ______ ____
ROOT
ATOM      1  C   UNL     1       1.894   8.282  18.467  0.00  0.00    +0.000 C 
ATOM      2  C   UNL     1       1.166   9.073  19.498  0.00  0.00    +0.000 A 
ATOM      3  C   UNL     1       1.466   9.070  20.842  0.00  0.00    +0.000 A 
ATOM      4  S   UNL     1       0.398  10.035  21.741  0.00  0.00    +0.000 S 
ATOM      5  C   UNL     1      -0.387  10.661  20.329  0.00  0.00    +0.000 A 
ATOM      6  C   UNL     1      -1.369  11.677  20.168  0.00  0.00    +0.000 A 
ATOM      7  N   UNL     1      -1.856  12.530  21.171  0.00  0.00    +0.000 N 
ATOM      8  C   UNL     1      -0.877  13.107  22.086  0.00  0.00    +0.000 C 
ATOM      9  C   UNL     1      -1.586  13.524  23.365  0.00  0.00    +0.000 C 
ATOM     10  C   UNL     1      -2.824  14.416  23.152  0.00  0.00    +0.000 C 
ATOM     11  C   UNL     1      -3.731  13.907  21.963  0.00  0.00    +0.000 C 
ATOM     12  C   UNL     1      -2.832  13.551  20.753  0.00  0.00    +0.000 C 
ATOM     13  N   UNL     1      -1.923  11.766  18.927  0.00  0.00    +0.000 NA
ATOM     14  C   UNL     1      -1.466  10.996  17.930  0.00  0.00    +0.000 A 
ATOM     15  N   UNL     1      -0.472  10.114  17.979  0.00  0.00    +0.000 NA
ATOM     16  C   UNL     1       0.063   9.952  19.213  0.00  0.00    +0.000 A 
ENDROOT
BRANCH  10  17
ATOM     17  N   UNL     1      -3.524  14.874  24.386  0.00  0.00    +0.000 NA
ATOM     18  C   UNL     1      -4.273  16.144  24.221  0.00  0.00    +0.000 C 
ATOM     19  C   UNL     1      -3.470  17.460  24.448  0.00  0.00    +0.000 C 
ATOM     20  N   UNL     1      -2.563  17.480  25.609  0.00  0.00    +0.000 NA
ATOM     21  C   UNL     1      -1.583  18.559  25.496  0.00  0.00    +0.000 C 
ATOM     22  C   UNL     1      -1.876  16.203  25.823  0.00  0.00    +0.000 C 
ATOM     23  C   UNL     1      -2.809  14.994  25.668  0.00  0.00    +0.000 C 
ENDBRANCH  10  17
BRANCH  11  24
ATOM     24  C   UNL     1      -4.680  12.738  22.306  0.00  0.00    +0.000 C 
BRANCH  24  25
ATOM     25  C   UNL     1      -6.151  13.067  22.556  0.00  0.00    +0.000 C 
BRANCH  25  26
ATOM     26  C   UNL     1      -6.531  12.831  24.002  0.00  0.00    +0.000 C 
ATOM     27  O   UNL     1      -7.664  12.894  24.439  0.00  0.00    +0.000 OA
BRANCH  26  28
ATOM     28  O   UNL     1      -5.475  12.540  24.801  0.00  0.00    +0.000 OA
ATOM     29  H   UNL     1      -5.500  13.000  25.661  0.00  0.00    +0.000 HD
ENDBRANCH  26  28
ENDBRANCH  25  26
ENDBRANCH  24  25
ENDBRANCH  11  24
TORSDOF 5
ENDMDL
MODEL 6
REMARK VINA RESULT:      -5.7      3.475      9.336
REMARK  Name = 
REMARK  7 active torsions:
REMARK  status: ('A' for Active; 'I' for Inactive)
REMARK    1  A    between atoms: C_1  and  C_2
REMARK    2  A    between atoms: C_10  and  N_11
REMARK    3  A    between atoms: N_14  and  C_15
REMARK    4  A    between atoms: C_18  and  C_19
REMARK    5  A    between atoms: C_19  and  C_20
REMARK    6  A    between atoms: C_20  and  C_21
REMARK    7  A    between atoms: C_21  and  O_23
REMARK                            x       y       z     vdW  Elec       q    Type
REMARK                         _______ _______ _______ _____ _____    ______ ____
ROOT
ATOM      1  C   UNL     1       3.524   5.925  19.301  0.00  0.00    +0.000 C 
ATOM      2  C   UNL     1       2.449   6.818  19.818  0.00  0.00    +0.000 A 
ATOM      3  C   UNL     1       1.708   6.574  20.953  0.00  0.00    +0.000 A 
ATOM      4  S   UNL     1       0.527   7.764  21.217  0.00  0.00    +0.000 S 
ATOM      5  C   UNL     1       1.103   8.767  19.927  0.00  0.00    +0.000 A 
ATOM      6  C   UNL     1       0.737  10.079  19.516  0.00  0.00    +0.000 A 
ATOM      7  N   UNL     1      -0.140  10.945  20.187  0.00  0.00    +0.000 N 
ATOM      8  C   UNL     1      -0.006  11.038  21.637  0.00  0.00    +0.000 C 
ATOM      9  C   UNL     1      -1.314  11.553  22.219  0.00  0.00    +0.000 C 
ATOM     10  C   UNL     1      -1.841  12.846  21.571  0.00  0.00    +0.000 C 
ATOM     11  C   UNL     1      -1.720  12.818  19.996  0.00  0.00    +0.000 C 
ATOM     12  C   UNL     1      -0.321  12.285  19.602  0.00  0.00    +0.000 C 
ATOM     13  N   UNL     1       1.249  10.484  18.322  0.00  0.00    +0.000 NA
ATOM     14  C   UNL     1       2.118   9.705  17.664  0.00  0.00    +0.000 A 
ATOM     15  N   UNL     1       2.596   8.524  18.046  0.00  0.00    +0.000 NA
ATOM     16  C   UNL     1       2.062   8.059  19.200  0.00  0.00    +0.000 A 
ENDROOT
BRANCH  10  17
ATOM     17  N   UNL     1      -3.102  13.400  22.141  0.00  0.00    +0.000 NA
ATOM     18  C   UNL     1      -3.380  14.803  21.746  0.00  0.00    +0.000 C 
ATOM     19  C   UNL     1      -2.746  15.915  22.634  0.00  0.00    +0.000 C 
ATOM     20  N   UNL     1      -2.817  15.708  24.091  0.00  0.00    +0.000 NA
ATOM     21  C   UNL     1      -1.861  16.562  24.794  0.00  0.00    +0.000 C 
ATOM     22  C   UNL     1      -2.618  14.309  24.483  0.00  0.00    +0.000 C 
ATOM     23  C   UNL     1      -3.383  13.328  23.585  0.00  0.00    +0.000 C 
ENDBRANCH  10  17
BRANCH  11  24
ATOM     24  C   UNL     1      -2.833  12.041  19.259  0.00  0.00    +0.000 C 
BRANCH  24  25
ATOM     25  C   UNL     1      -2.622  11.730  17.778  0.00  0.00    +0.000 C 
BRANCH  25  26
ATOM     26  C   UNL     1      -2.545  10.239  17.532  0.00  0.00    +0.000 C 
ATOM     27  O   UNL     1      -3.395   9.437  17.867  0.00  0.00    +0.000 OA
BRANCH  26  28
ATOM     28  O   UNL     1      -1.413   9.851  16.894  0.00  0.00    +0.000 OA
ATOM     29  H   UNL     1      -1.467   9.930  15.923  0.00  0.00    +0.000 HD
ENDBRANCH  26  28
ENDBRANCH  25  26
ENDBRANCH  24  25
ENDBRANCH  11  24
TORSDOF 5
ENDMDL
MODEL 7
REMARK VINA RESULT:      -5.7      3.209      8.938
REMARK  Name = 
REMARK  7 active torsions:
REMARK  status: ('A' for Active; 'I' for Inactive)
REMARK    1  A    between atoms: C_1  and  C_2
REMARK    2  A    between atoms: C_10  and  N_11
REMARK    3  A    between atoms: N_14  and  C_15
REMARK    4  A    between atoms: C_18  and  C_19
REMARK    5  A    between atoms: C_19  and  C_20
REMARK    6  A    between atoms: C_20  and  C_21
REMARK    7  A    between atoms: C_21  and  O_23
REMARK                            x       y       z     vdW  Elec       q    Type
REMARK                         _______ _______ _______ _____ _____    ______ ____
ROOT
ATOM      1  C   UNL     1       3.755   4.907  19.179  0.00  0.00    +0.000 C 
ATOM      2  C   UNL     1       2.785   5.908  19.703  0.00  0.00    +0.000 A 
ATOM      3  C   UNL     1       2.058   5.761  20.863  0.00  0.00    +0.000 A 
ATOM      4  S   UNL     1       1.002   7.062  21.130  0.00  0.00    +0.000 S 
ATOM      5  C   UNL     1       1.629   7.976  19.799  0.00  0.00    +0.000 A 
ATOM      6  C   UNL     1       1.374   9.307  19.365  0.00  0.00    +0.000 A 
ATOM      7  N   UNL     1       0.602  10.267  20.037  0.00  0.00    +0.000 N 
ATOM      8  C   UNL     1       0.788  10.381  21.480  0.00  0.00    +0.000 C 
ATOM      9  C   UNL     1      -0.448  11.028  22.085  0.00  0.00    +0.000 C 
ATOM     10  C   UNL     1      -0.872  12.350  21.419  0.00  0.00    +0.000 C 
ATOM     11  C   UNL     1      -0.802  12.274  19.842  0.00  0.00    +0.000 C 
ATOM     12  C   UNL     1       0.529  11.604  19.422  0.00  0.00    +0.000 C 
ATOM     13  N   UNL     1       1.885   9.634  18.146  0.00  0.00    +0.000 NA
ATOM     14  C   UNL     1       2.658   8.762  17.485  0.00  0.00    +0.000 A 
ATOM     15  N   UNL     1       3.035   7.552  17.883  0.00  0.00    +0.000 NA
ATOM     16  C   UNL     1       2.496   7.165  19.064  0.00  0.00    +0.000 A 
ENDROOT
BRANCH  10  17
ATOM     17  N   UNL     1      -2.059  13.033  22.009  0.00  0.00    +0.000 NA
ATOM     18  C   UNL     1      -2.425  14.302  21.333  0.00  0.00    +0.000 C 
ATOM     19  C   UNL     1      -1.706  15.590  21.834  0.00  0.00    +0.000 C 
ATOM     20  N   UNL     1      -1.573  15.739  23.294  0.00  0.00    +0.000 NA
ATOM     21  C   UNL     1      -0.553  16.731  23.634  0.00  0.00    +0.000 C 
ATOM     22  C   UNL     1      -1.285  14.474  23.976  0.00  0.00    +0.000 C 
ATOM     23  C   UNL     1      -2.138  13.311  23.454  0.00  0.00    +0.000 C 
ENDBRANCH  10  17
BRANCH  11  24
ATOM     24  C   UNL     1      -2.004  11.588  19.157  0.00  0.00    +0.000 C 
BRANCH  24  25
ATOM     25  C   UNL     1      -2.063  11.613  17.630  0.00  0.00    +0.000 C 
BRANCH  25  26
ATOM     26  C   UNL     1      -2.152  10.216  17.058  0.00  0.00    +0.000 C 
ATOM     27  O   UNL     1      -3.186   9.664  16.735  0.00  0.00    +0.000 OA
BRANCH  26  28
ATOM     28  O   UNL     1      -0.949   9.601  16.935  0.00  0.00    +0.000 OA
ATOM     29  H   UNL     1      -0.935   8.697  17.302  0.00  0.00    +0.000 HD
ENDBRANCH  26  28
ENDBRANCH  25  26
ENDBRANCH  24  25
ENDBRANCH  11  24
TORSDOF 5
ENDMDL
MODEL 8
REMARK VINA RESULT:      -5.5      4.917     10.629
REMARK  Name = 
REMARK  7 active torsions:
REMARK  status: ('A' for Active; 'I' for Inactive)
REMARK    1  A    between atoms: C_1  and  C_2
REMARK    2  A    between atoms: C_10  and  N_11
REMARK    3  A    between atoms: N_14  and  C_15
REMARK    4  A    between atoms: C_18  and  C_19
REMARK    5  A    between atoms: C_19  and  C_20
REMARK    6  A    between atoms: C_20  and  C_21
REMARK    7  A    between atoms: C_21  and  O_23
REMARK                            x       y       z     vdW  Elec       q    Type
REMARK                         _______ _______ _______ _____ _____    ______ ____
ROOT
ATOM      1  C   UNL     1       2.329   7.518  18.992  0.00  0.00    +0.000 C 
ATOM      2  C   UNL     1       1.475   8.358  19.879  0.00  0.00    +0.000 A 
ATOM      3  C   UNL     1       1.449   8.269  21.253  0.00  0.00    +0.000 A 
ATOM      4  S   UNL     1       0.318   9.329  21.944  0.00  0.00    +0.000 S 
ATOM      5  C   UNL     1      -0.037  10.098  20.433  0.00  0.00    +0.000 A 
ATOM      6  C   UNL     1      -0.830  11.236  20.116  0.00  0.00    +0.000 A 
ATOM      7  N   UNL     1      -1.437  12.107  21.034  0.00  0.00    +0.000 N 
ATOM      8  C   UNL     1      -0.641  12.523  22.184  0.00  0.00    +0.000 C 
ATOM      9  C   UNL     1      -1.578  12.981  23.291  0.00  0.00    +0.000 C 
ATOM     10  C   UNL     1      -2.620  14.029  22.859  0.00  0.00    +0.000 C 
ATOM     11  C   UNL     1      -3.275  13.681  21.463  0.00  0.00    +0.000 C 
ATOM     12  C   UNL     1      -2.164  13.258  20.471  0.00  0.00    +0.000 C 
ATOM     13  N   UNL     1      -1.063  11.439  18.790  0.00  0.00    +0.000 NA
ATOM     14  C   UNL     1      -0.476  10.653  17.877  0.00  0.00    +0.000 A 
ATOM     15  N   UNL     1       0.370   9.651  18.095  0.00  0.00    +0.000 NA
ATOM     16  C   UNL     1       0.578   9.379  19.406  0.00  0.00    +0.000 A 
ENDROOT
BRANCH  10  17
ATOM     17  N   UNL     1      -3.533  14.528  23.926  0.00  0.00    +0.000 NA
ATOM     18  C   UNL     1      -4.235  15.788  23.582  0.00  0.00    +0.000 C 
ATOM     19  C   UNL     1      -3.485  17.115  23.906  0.00  0.00    +0.000 C 
ATOM     20  N   UNL     1      -2.805  17.179  25.212  0.00  0.00    +0.000 NA
ATOM     21  C   UNL     1      -1.817  18.257  25.241  0.00  0.00    +0.000 C 
ATOM     22  C   UNL     1      -2.172  15.913  25.592  0.00  0.00    +0.000 C 
ATOM     23  C   UNL     1      -3.064  14.696  25.313  0.00  0.00    +0.000 C 
ENDBRANCH  10  17
BRANCH  11  24
ATOM     24  C   UNL     1      -4.406  12.631  21.505  0.00  0.00    +0.000 C 
BRANCH  24  25
ATOM     25  C   UNL     1      -5.248  12.442  20.244  0.00  0.00    +0.000 C 
BRANCH  25  26
ATOM     26  C   UNL     1      -6.623  11.907  20.574  0.00  0.00    +0.000 C 
ATOM     27  O   UNL     1      -7.544  11.829  19.783  0.00  0.00    +0.000 OA
BRANCH  26  28
ATOM     28  O   UNL     1      -6.758  11.512  21.864  0.00  0.00    +0.000 OA
ATOM     29  H   UNL     1      -7.359  12.077  22.383  0.00  0.00    +0.000 HD
ENDBRANCH  26  28
ENDBRANCH  25  26
ENDBRANCH  24  25
ENDBRANCH  11  24
TORSDOF 5
ENDMDL
MODEL 9
REMARK VINA RESULT:      -5.5      2.750      4.488
REMARK  Name = 
REMARK  7 active torsions:
REMARK  status: ('A' for Active; 'I' for Inactive)
REMARK    1  A    between atoms: C_1  and  C_2
REMARK    2  A    between atoms: C_10  and  N_11
REMARK    3  A    between atoms: N_14  and  C_15
REMARK    4  A    between atoms: C_18  and  C_19
REMARK    5  A    between atoms: C_19  and  C_20
REMARK    6  A    between atoms: C_20  and  C_21
REMARK    7  A    between atoms: C_21  and  O_23
REMARK                            x       y       z     vdW  Elec       q    Type
REMARK                         _______ _______ _______ _____ _____    ______ ____
ROOT
ATOM      1  C   UNL     1      -0.426  12.676  21.027  0.00  0.00    +0.000 C 
ATOM      2  C   UNL     1       0.196  11.340  20.803  0.00  0.00    +0.000 A 
ATOM      3  C   UNL     1       0.014  10.247  21.620  0.00  0.00    +0.000 A 
ATOM      4  S   UNL     1       0.918   8.905  21.108  0.00  0.00    +0.000 S 
ATOM      5  C   UNL     1       1.431   9.680  19.647  0.00  0.00    +0.000 A 
ATOM      6  C   UNL     1       2.155   9.191  18.523  0.00  0.00    +0.000 A 
ATOM      7  N   UNL     1       2.525   7.858  18.289  0.00  0.00    +0.000 N 
ATOM      8  C   UNL     1       1.523   6.832  18.555  0.00  0.00    +0.000 C 
ATOM      9  C   UNL     1       2.228   5.502  18.774  0.00  0.00    +0.000 C 
ATOM     10  C   UNL     1       3.222   5.111  17.664  0.00  0.00    +0.000 C 
ATOM     11  C   UNL     1       4.117   6.330  17.207  0.00  0.00    +0.000 C 
ATOM     12  C   UNL     1       3.220   7.579  17.021  0.00  0.00    +0.000 C 
ATOM     13  N   UNL     1       2.572  10.138  17.638  0.00  0.00    +0.000 NA
ATOM     14  C   UNL     1       2.212  11.418  17.802  0.00  0.00    +0.000 A 
ATOM     15  N   UNL     1       1.441  11.925  18.758  0.00  0.00    +0.000 NA
ATOM     16  C   UNL     1       1.056  11.024  19.694  0.00  0.00    +0.000 A 
ENDROOT
BRANCH  10  17
ATOM     17  N   UNL     1       3.905   3.796  17.826  0.00  0.00    +0.000 NA
ATOM     18  C   UNL     1       3.000   2.626  17.720  0.00  0.00    +0.000 C 
ATOM     19  C   UNL     1       2.288   2.174  19.030  0.00  0.00    +0.000 C 
ATOM     20  N   UNL     1       3.119   2.143  20.247  0.00  0.00    +0.000 NA
ATOM     21  C   UNL     1       2.291   2.114  21.452  0.00  0.00    +0.000 C 
ATOM     22  C   UNL     1       4.070   3.257  20.322  0.00  0.00    +0.000 C 
ATOM     23  C   UNL     1       4.774   3.526  18.986  0.00  0.00    +0.000 C 
ENDBRANCH  10  17
BRANCH  11  24
ATOM     24  C   UNL     1       5.321   6.648  18.120  0.00  0.00    +0.000 C 
BRANCH  24  25
ATOM     25  C   UNL     1       6.655   6.975  17.450  0.00  0.00    +0.000 C 
BRANCH  25  26
ATOM     26  C   UNL     1       7.265   5.749  16.807  0.00  0.00    +0.000 C 
ATOM     27  O   UNL     1       7.610   4.750  17.410  0.00  0.00    +0.000 OA
BRANCH  26  28
ATOM     28  O   UNL     1       7.408   5.854  15.463  0.00  0.00    +0.000 OA
ATOM     29  H   UNL     1       7.132   6.719  15.109  0.00  0.00    +0.000 HD
ENDBRANCH  26  28
ENDBRANCH  25  26
ENDBRANCH  24  25
ENDBRANCH  11  24
TORSDOF 5
ENDMDL
