MODEL 1
REMARK VINA RESULT:      -7.8      0.000      0.000
REMARK  Name = 
REMARK  4 active torsions:
REMARK  status: ('A' for Active; 'I' for Inactive)
REMARK    1  A    between atoms: C_1  and  N_2
REMARK    2  A    between atoms: N_5  and  S_6
REMARK    3  A    between atoms: S_6  and  C_9
REMARK    4  A    between atoms: N_19  and  C_20
REMARK                            x       y       z     vdW  Elec       q    Type
REMARK                         _______ _______ _______ _____ _____    ______ ____
ROOT
ATOM      1  C   UNL     1       2.191   7.310  19.356  0.00  0.00    +0.000 A 
ATOM      2  C   UNL     1       2.401   7.748  18.045  0.00  0.00    +0.000 A 
ATOM      3  C   UNL     1       2.020   9.037  17.653  0.00  0.00    +0.000 A 
ATOM      4  C   UNL     1       1.388   9.849  18.605  0.00  0.00    +0.000 A 
ATOM      5  N   UNL     1       0.886  11.131  18.493  0.00  0.00    +0.000 N 
ATOM      6  C   UNL     1       0.246  11.468  19.649  0.00  0.00    +0.000 A 
ATOM      7  C   UNL     1       0.377  10.436  20.552  0.00  0.00    +0.000 A 
ATOM      8  C   UNL     1       1.122   9.410  19.908  0.00  0.00    +0.000 A 
ATOM      9  C   UNL     1       1.541   8.122  20.293  0.00  0.00    +0.000 A 
ATOM     10  C   UNL     1      -0.294  10.414  21.890  0.00  0.00    +0.000 C 
ATOM     11  N   UNL     1      -0.942  11.714  22.208  0.00  0.00    +0.000 NA
ATOM     12  C   UNL     1      -1.942  11.502  23.256  0.00  0.00    +0.000 C 
ATOM     13  C   UNL     1      -1.569  12.364  21.029  0.00  0.00    +0.000 C 
ATOM     14  C   UNL     1      -0.539  12.697  19.918  0.00  0.00    +0.000 C 
ATOM     15  H   UNL     1       0.931  11.697  17.655  0.00  0.00    +0.000 HD
ENDROOT
BRANCH   1  16
ATOM     16  S   UNL     1       2.629   5.637  19.808  0.00  0.00    +0.000 S 
ATOM     17  O   UNL     1       1.936   5.334  21.045  0.00  0.00    +0.000 OA
ATOM     18  O   UNL     1       4.067   5.526  19.726  0.00  0.00    +0.000 OA
BRANCH  16  23
ATOM     19  C   UNL     1       4.006   0.944  18.746  0.00  0.00    +0.000 C 
ATOM     20  N   UNL     1       3.047   1.964  18.320  0.00  0.00    +0.000 NA
ATOM     21  C   UNL     1       3.755   3.148  17.789  0.00  0.00    +0.000 C 
ATOM     22  C   UNL     1       2.806   4.313  17.427  0.00  0.00    +0.000 C 
ATOM     23  N   UNL     1       1.920   4.692  18.572  0.00  0.00    +0.000 NA
ATOM     24  C   UNL     1       1.189   3.467  19.040  0.00  0.00    +0.000 C 
ATOM     25  C   UNL     1       2.166   2.347  19.444  0.00  0.00    +0.000 C 
ENDBRANCH  16  23
ENDBRANCH   1  16
TORSDOF 2
ENDMDL
MODEL 2
REMARK VINA RESULT:      -7.6      5.413      8.367
REMARK  Name = 
REMARK  4 active torsions:
REMARK  status: ('A' for Active; 'I' for Inactive)
REMARK    1  A    between atoms: C_1  and  N_2
REMARK    2  A    between atoms: N_5  and  S_6
REMARK    3  A    between atoms: S_6  and  C_9
REMARK    4  A    between atoms: N_19  and  C_20
REMARK                            x       y       z     vdW  Elec       q    Type
REMARK                         _______ _______ _______ _____ _____    ______ ____
ROOT
ATOM      1  C   UNL     1       4.870   5.525  17.564  0.00  0.00    +0.000 A 
ATOM      2  C   UNL     1       6.110   6.045  17.944  0.00  0.00    +0.000 A 
ATOM      3  C   UNL     1       7.164   6.125  17.025  0.00  0.00    +0.000 A 
ATOM      4  C   UNL     1       6.941   5.629  15.733  0.00  0.00    +0.000 A 
ATOM      5  N   UNL     1       7.793   5.552  14.648  0.00  0.00    +0.000 N 
ATOM      6  C   UNL     1       7.174   4.877  13.637  0.00  0.00    +0.000 A 
ATOM      7  C   UNL     1       5.891   4.563  14.025  0.00  0.00    +0.000 A 
ATOM      8  C   UNL     1       5.722   5.057  15.348  0.00  0.00    +0.000 A 
ATOM      9  C   UNL     1       4.665   5.015  16.277  0.00  0.00    +0.000 A 
ATOM     10  C   UNL     1       4.957   3.727  13.206  0.00  0.00    +0.000 C 
ATOM     11  N   UNL     1       5.501   3.454  11.850  0.00  0.00    +0.000 NA
ATOM     12  C   UNL     1       4.808   2.293  11.285  0.00  0.00    +0.000 C 
ATOM     13  C   UNL     1       6.968   3.228  11.837  0.00  0.00    +0.000 C 
ATOM     14  C   UNL     1       7.763   4.461  12.340  0.00  0.00    +0.000 C 
ATOM     15  H   UNL     1       8.748   5.884  14.639  0.00  0.00    +0.000 HD
ENDROOT
BRANCH   1  16
ATOM     16  S   UNL     1       3.565   5.377  18.777  0.00  0.00    +0.000 S 
ATOM     17  O   UNL     1       2.595   6.416  18.491  0.00  0.00    +0.000 OA
ATOM     18  O   UNL     1       4.188   5.292  20.077  0.00  0.00    +0.000 OA
BRANCH  16  23
ATOM     19  C   UNL     1       1.289   2.454  22.142  0.00  0.00    +0.000 C 
ATOM     20  N   UNL     1       1.597   2.502  20.713  0.00  0.00    +0.000 NA
ATOM     21  C   UNL     1       3.060   2.493  20.500  0.00  0.00    +0.000 C 
ATOM     22  C   UNL     1       3.460   2.659  19.016  0.00  0.00    +0.000 C 
ATOM     23  N   UNL     1       2.841   3.874  18.401  0.00  0.00    +0.000 NA
ATOM     24  C   UNL     1       1.354   3.810  18.600  0.00  0.00    +0.000 C 
ATOM     25  C   UNL     1       0.991   3.700  20.093  0.00  0.00    +0.000 C 
ENDBRANCH  16  23
ENDBRANCH   1  16
TORSDOF 2
ENDMDL
MODEL 3
REMARK VINA RESULT:      -7.2      4.070      8.608
REMARK  Name = 
REMARK  4 active torsions:
REMARK  status: ('A' for Active; 'I' for Inactive)
REMARK    1  A    between atoms: C_1  and  N_2
REMARK    2  A    between atoms: N_5  and  S_6
REMARK    3  A    between atoms: S_6  and  C_9
REMARK    4  A    between atoms: N_19  and  C_20
REMARK                            x       y       z     vdW  Elec       q    Type
REMARK                         _______ _______ _______ _____ _____    ______ ____
ROOT
ATOM      1  C   UNL     1       5.098   4.298  18.063  0.00  0.00    +0.000 A 
ATOM      2  C   UNL     1       6.204   5.040  18.485  0.00  0.00    +0.000 A 
ATOM      3  C   UNL     1       7.118   5.552  17.555  0.00  0.00    +0.000 A 
ATOM      4  C   UNL     1       6.904   5.258  16.202  0.00  0.00    +0.000 A 
ATOM      5  N   UNL     1       7.646   5.600  15.087  0.00  0.00    +0.000 N 
ATOM      6  C   UNL     1       7.120   4.984  13.990  0.00  0.00    +0.000 A 
ATOM      7  C   UNL     1       5.992   4.286  14.363  0.00  0.00    +0.000 A 
ATOM      8  C   UNL     1       5.831   4.473  15.764  0.00  0.00    +0.000 A 
ATOM      9  C   UNL     1       4.906   3.993  16.710  0.00  0.00    +0.000 A 
ATOM     10  C   UNL     1       5.219   3.402  13.436  0.00  0.00    +0.000 C 
ATOM     11  N   UNL     1       5.686   3.527  12.030  0.00  0.00    +0.000 NA
ATOM     12  C   UNL     1       5.247   2.350  11.277  0.00  0.00    +0.000 C 
ATOM     13  C   UNL     1       7.156   3.690  11.909  0.00  0.00    +0.000 C 
ATOM     14  C   UNL     1       7.670   4.974  12.612  0.00  0.00    +0.000 C 
ATOM     15  H   UNL     1       8.487   6.161  15.102  0.00  0.00    +0.000 HD
ENDROOT
BRANCH   1  16
ATOM     16  S   UNL     1       3.985   3.603  19.278  0.00  0.00    +0.000 S 
ATOM     17  O   UNL     1       4.274   4.253  20.542  0.00  0.00    +0.000 OA
ATOM     18  O   UNL     1       4.053   2.166  19.159  0.00  0.00    +0.000 OA
BRANCH  16  23
ATOM     19  C   UNL     1       1.727   7.712  21.028  0.00  0.00    +0.000 C 
ATOM     20  N   UNL     1       1.517   6.633  20.063  0.00  0.00    +0.000 NA
ATOM     21  C   UNL     1       1.457   5.327  20.754  0.00  0.00    +0.000 C 
ATOM     22  C   UNL     1       1.354   4.129  19.783  0.00  0.00    +0.000 C 
ATOM     23  N   UNL     1       2.446   4.140  18.760  0.00  0.00    +0.000 NA
ATOM     24  C   UNL     1       2.432   5.465  18.055  0.00  0.00    +0.000 C 
ATOM     25  C   UNL     1       2.591   6.633  19.047  0.00  0.00    +0.000 C 
ENDBRANCH  16  23
ENDBRANCH   1  16
TORSDOF 2
ENDMDL
MODEL 4
REMARK VINA RESULT:      -7.2      3.320      4.610
REMARK  Name = 
REMARK  4 active torsions:
REMARK  status: ('A' for Active; 'I' for Inactive)
REMARK    1  A    between atoms: C_1  and  N_2
REMARK    2  A    between atoms: N_5  and  S_6
REMARK    3  A    between atoms: S_6  and  C_9
REMARK    4  A    between atoms: N_19  and  C_20
REMARK                            x       y       z     vdW  Elec       q    Type
REMARK                         _______ _______ _______ _____ _____    ______ ____
ROOT
ATOM      1  C   UNL     1       4.313   6.561  17.733  0.00  0.00    +0.000 A 
ATOM      2  C   UNL     1       4.332   5.584  18.732  0.00  0.00    +0.000 A 
ATOM      3  C   UNL     1       3.419   5.629  19.793  0.00  0.00    +0.000 A 
ATOM      4  C   UNL     1       2.522   6.705  19.837  0.00  0.00    +0.000 A 
ATOM      5  N   UNL     1       1.548   7.018  20.765  0.00  0.00    +0.000 N 
ATOM      6  C   UNL     1       1.006   8.231  20.459  0.00  0.00    +0.000 A 
ATOM      7  C   UNL     1       1.573   8.695  19.293  0.00  0.00    +0.000 A 
ATOM      8  C   UNL     1       2.522   7.722  18.874  0.00  0.00    +0.000 A 
ATOM      9  C   UNL     1       3.426   7.642  17.798  0.00  0.00    +0.000 A 
ATOM     10  C   UNL     1       1.295  10.048  18.716  0.00  0.00    +0.000 C 
ATOM     11  N   UNL     1       0.192  10.741  19.431  0.00  0.00    +0.000 NA
ATOM     12  C   UNL     1       0.275  12.177  19.156  0.00  0.00    +0.000 C 
ATOM     13  C   UNL     1       0.197  10.502  20.896  0.00  0.00    +0.000 C 
ATOM     14  C   UNL     1       0.019   9.003  21.253  0.00  0.00    +0.000 C 
ATOM     15  H   UNL     1       1.327   6.462  21.581  0.00  0.00    +0.000 HD
ENDROOT
BRANCH   1  16
ATOM     16  S   UNL     1       5.532   6.512  16.427  0.00  0.00    +0.000 S 
ATOM     17  O   UNL     1       6.676   7.278  16.881  0.00  0.00    +0.000 OA
ATOM     18  O   UNL     1       4.863   6.852  15.194  0.00  0.00    +0.000 OA
BRANCH  16  23
ATOM     19  C   UNL     1       6.619   4.040  12.213  0.00  0.00    +0.000 C 
ATOM     20  N   UNL     1       6.560   3.834  13.660  0.00  0.00    +0.000 NA
ATOM     21  C   UNL     1       5.177   4.015  14.151  0.00  0.00    +0.000 C 
ATOM     22  C   UNL     1       5.061   3.925  15.690  0.00  0.00    +0.000 C 
ATOM     23  N   UNL     1       5.998   4.867  16.379  0.00  0.00    +0.000 NA
ATOM     24  C   UNL     1       7.391   4.608  15.883  0.00  0.00    +0.000 C 
ATOM     25  C   UNL     1       7.482   4.759  14.353  0.00  0.00    +0.000 C 
ENDBRANCH  16  23
ENDBRANCH   1  16
TORSDOF 2
ENDMDL
MODEL 5
REMARK VINA RESULT:      -7.2      2.854      4.120
REMARK  Name = 
REMARK  4 active torsions:
REMARK  status: ('A' for Active; 'I' for Inactive)
REMARK    1  A    between atoms: C_1  and  N_2
REMARK    2  A    between atoms: N_5  and  S_6
REMARK    3  A    between atoms: S_6  and  C_9
REMARK    4  A    between atoms: N_19  and  C_20
REMARK                            x       y       z     vdW  Elec       q    Type
REMARK                         _______ _______ _______ _____ _____    ______ ____
ROOT
ATOM      1  C   UNL     1       3.104   5.645  19.084  0.00  0.00    +0.000 A 
ATOM      2  C   UNL     1       2.557   5.125  20.260  0.00  0.00    +0.000 A 
ATOM      3  C   UNL     1       1.670   5.885  21.033  0.00  0.00    +0.000 A 
ATOM      4  C   UNL     1       1.389   7.191  20.608  0.00  0.00    +0.000 A 
ATOM      5  N   UNL     1       0.589   8.162  21.178  0.00  0.00    +0.000 N 
ATOM      6  C   UNL     1       0.720   9.324  20.475  0.00  0.00    +0.000 A 
ATOM      7  C   UNL     1       1.555   9.108  19.402  0.00  0.00    +0.000 A 
ATOM      8  C   UNL     1       1.968   7.748  19.461  0.00  0.00    +0.000 A 
ATOM      9  C   UNL     1       2.832   6.957  18.680  0.00  0.00    +0.000 A 
ATOM     10  C   UNL     1       2.010  10.190  18.474  0.00  0.00    +0.000 C 
ATOM     11  N   UNL     1       1.298  11.471  18.723  0.00  0.00    +0.000 NA
ATOM     12  C   UNL     1       2.078  12.569  18.145  0.00  0.00    +0.000 C 
ATOM     13  C   UNL     1       1.039  11.732  20.161  0.00  0.00    +0.000 C 
ATOM     14  C   UNL     1       0.139  10.647  20.808  0.00  0.00    +0.000 C 
ATOM     15  H   UNL     1       0.050   8.042  22.025  0.00  0.00    +0.000 HD
ENDROOT
BRANCH   1  16
ATOM     16  S   UNL     1       4.282   4.674  18.154  0.00  0.00    +0.000 S 
ATOM     17  O   UNL     1       3.627   4.269  16.926  0.00  0.00    +0.000 OA
ATOM     18  O   UNL     1       4.837   3.687  19.050  0.00  0.00    +0.000 OA
BRANCH  16  23
ATOM     19  C   UNL     1       6.941   4.506  13.918  0.00  0.00    +0.000 C 
ATOM     20  N   UNL     1       6.792   5.318  15.126  0.00  0.00    +0.000 NA
ATOM     21  C   UNL     1       7.141   4.526  16.325  0.00  0.00    +0.000 C 
ATOM     22  C   UNL     1       6.895   5.286  17.649  0.00  0.00    +0.000 C 
ATOM     23  N   UNL     1       5.496   5.808  17.744  0.00  0.00    +0.000 NA
ATOM     24  C   UNL     1       5.210   6.643  16.530  0.00  0.00    +0.000 C 
ATOM     25  C   UNL     1       5.413   5.839  15.232  0.00  0.00    +0.000 C 
ENDBRANCH  16  23
ENDBRANCH   1  16
TORSDOF 2
ENDMDL
MODEL 6
REMARK VINA RESULT:      -6.9      2.803      8.428
REMARK  Name = 
REMARK  4 active torsions:
REMARK  status: ('A' for Active; 'I' for Inactive)
REMARK    1  A    between atoms: C_1  and  N_2
REMARK    2  A    between atoms: N_5  and  S_6
REMARK    3  A    between atoms: S_6  and  C_9
REMARK    4  A    between atoms: N_19  and  C_20
REMARK                            x       y       z     vdW  Elec       q    Type
REMARK                         _______ _______ _______ _____ _____    ______ ____
ROOT
ATOM      1  C   UNL     1       1.372   8.997  19.402  0.00  0.00    +0.000 A 
ATOM      2  C   UNL     1       0.829   8.528  20.601  0.00  0.00    +0.000 A 
ATOM      3  C   UNL     1       1.225   7.294  21.130  0.00  0.00    +0.000 A 
ATOM      4  C   UNL     1       2.147   6.535  20.396  0.00  0.00    +0.000 A 
ATOM      5  N   UNL     1       2.685   5.289  20.656  0.00  0.00    +0.000 N 
ATOM      6  C   UNL     1       3.446   4.896  19.595  0.00  0.00    +0.000 A 
ATOM      7  C   UNL     1       3.467   5.906  18.659  0.00  0.00    +0.000 A 
ATOM      8  C   UNL     1       2.663   6.964  19.168  0.00  0.00    +0.000 A 
ATOM      9  C   UNL     1       2.278   8.222  18.667  0.00  0.00    +0.000 A 
ATOM     10  C   UNL     1       4.117   5.780  17.316  0.00  0.00    +0.000 C 
ATOM     11  N   UNL     1       4.905   4.525  17.196  0.00  0.00    +0.000 NA
ATOM     12  C   UNL     1       5.114   4.229  15.777  0.00  0.00    +0.000 C 
ATOM     13  C   UNL     1       4.271   3.364  17.870  0.00  0.00    +0.000 C 
ATOM     14  C   UNL     1       4.105   3.582  19.397  0.00  0.00    +0.000 C 
ATOM     15  H   UNL     1       2.483   4.733  21.476  0.00  0.00    +0.000 HD
ENDROOT
BRANCH   1  16
ATOM     16  S   UNL     1       0.799  10.547  18.719  0.00  0.00    +0.000 S 
ATOM     17  O   UNL     1      -0.356  10.249  17.895  0.00  0.00    +0.000 OA
ATOM     18  O   UNL     1       1.944  11.227  18.161  0.00  0.00    +0.000 OA
BRANCH  16  23
ATOM     19  C   UNL     1       0.403  15.532  18.916  0.00  0.00    +0.000 C 
ATOM     20  N   UNL     1       0.164  14.347  19.740  0.00  0.00    +0.000 NA
ATOM     21  C   UNL     1       1.433  13.631  19.994  0.00  0.00    +0.000 C 
ATOM     22  C   UNL     1       1.240  12.304  20.762  0.00  0.00    +0.000 C 
ATOM     23  N   UNL     1       0.248  11.407  20.091  0.00  0.00    +0.000 NA
ATOM     24  C   UNL     1      -1.035  12.163  19.902  0.00  0.00    +0.000 C 
ATOM     25  C   UNL     1      -0.815  13.451  19.087  0.00  0.00    +0.000 C 
ENDBRANCH  16  23
ENDBRANCH   1  16
TORSDOF 2
ENDMDL
MODEL 7
REMARK VINA RESULT:      -6.7      5.071      8.587
REMARK  Name = 
REMARK  4 active torsions:
REMARK  status: ('A' for Active; 'I' for Inactive)
REMARK    1  A    between atoms: C_1  and  N_2
REMARK    2  A    between atoms: N_5  and  S_6
REMARK    3  A    between atoms: S_6  and  C_9
REMARK    4  A    between atoms: N_19  and  C_20
REMARK                            x       y       z     vdW  Elec       q    Type
REMARK                         _______ _______ _______ _____ _____    ______ ____
ROOT
ATOM      1  C   UNL     1       5.662   4.869  17.743  0.00  0.00    +0.000 A 
ATOM      2  C   UNL     1       6.777   5.692  17.921  0.00  0.00    +0.000 A 
ATOM      3  C   UNL     1       7.566   6.072  16.828  0.00  0.00    +0.000 A 
ATOM      4  C   UNL     1       7.221   5.565  15.568  0.00  0.00    +0.000 A 
ATOM      5  N   UNL     1       7.826   5.744  14.338  0.00  0.00    +0.000 N 
ATOM      6  C   UNL     1       7.210   4.953  13.414  0.00  0.00    +0.000 A 
ATOM      7  C   UNL     1       6.156   4.298  14.013  0.00  0.00    +0.000 A 
ATOM      8  C   UNL     1       6.138   4.698  15.378  0.00  0.00    +0.000 A 
ATOM      9  C   UNL     1       5.338   4.353  16.483  0.00  0.00    +0.000 A 
ATOM     10  C   UNL     1       5.323   3.263  13.323  0.00  0.00    +0.000 C 
ATOM     11  N   UNL     1       5.632   3.177  11.872  0.00  0.00    +0.000 NA
ATOM     12  C   UNL     1       5.162   1.888  11.361  0.00  0.00    +0.000 C 
ATOM     13  C   UNL     1       7.074   3.351  11.565  0.00  0.00    +0.000 C 
ATOM     14  C   UNL     1       7.611   4.739  12.001  0.00  0.00    +0.000 C 
ATOM     15  H   UNL     1       8.642   6.319  14.174  0.00  0.00    +0.000 HD
ENDROOT
BRANCH   1  16
ATOM     16  S   UNL     1       4.712   4.350  19.166  0.00  0.00    +0.000 S 
ATOM     17  O   UNL     1       4.556   5.509  20.023  0.00  0.00    +0.000 OA
ATOM     18  O   UNL     1       5.314   3.138  19.672  0.00  0.00    +0.000 OA
BRANCH  16  23
ATOM     19  C   UNL     1       0.915   2.459  21.822  0.00  0.00    +0.000 C 
ATOM     20  N   UNL     1       1.235   2.897  20.464  0.00  0.00    +0.000 NA
ATOM     21  C   UNL     1       2.310   2.059  19.891  0.00  0.00    +0.000 C 
ATOM     22  C   UNL     1       2.780   2.540  18.499  0.00  0.00    +0.000 C 
ATOM     23  N   UNL     1       3.177   3.982  18.508  0.00  0.00    +0.000 NA
ATOM     24  C   UNL     1       2.035   4.793  19.050  0.00  0.00    +0.000 C 
ATOM     25  C   UNL     1       1.630   4.322  20.460  0.00  0.00    +0.000 C 
ENDBRANCH  16  23
ENDBRANCH   1  16
TORSDOF 2
ENDMDL
MODEL 8
REMARK VINA RESULT:      -6.6      1.012      1.348
REMARK  Name = 
REMARK  4 active torsions:
REMARK  status: ('A' for Active; 'I' for Inactive)
REMARK    1  A    between atoms: C_1  and  N_2
REMARK    2  A    between atoms: N_5  and  S_6
REMARK    3  A    between atoms: S_6  and  C_9
REMARK    4  A    between atoms: N_19  and  C_20
REMARK                            x       y       z     vdW  Elec       q    Type
REMARK                         _______ _______ _______ _____ _____    ______ ____
ROOT
ATOM      1  C   UNL     1       2.017   7.470  19.267  0.00  0.00    +0.000 A 
ATOM      2  C   UNL     1       2.309   7.967  17.995  0.00  0.00    +0.000 A 
ATOM      3  C   UNL     1       2.022   9.298  17.665  0.00  0.00    +0.000 A 
ATOM      4  C   UNL     1       1.398  10.091  18.637  0.00  0.00    +0.000 A 
ATOM      5  N   UNL     1       0.979  11.407  18.581  0.00  0.00    +0.000 N 
ATOM      6  C   UNL     1       0.309  11.715  19.729  0.00  0.00    +0.000 A 
ATOM      7  C   UNL     1       0.340  10.628  20.573  0.00  0.00    +0.000 A 
ATOM      8  C   UNL     1       1.051   9.596  19.900  0.00  0.00    +0.000 A 
ATOM      9  C   UNL     1       1.376   8.266  20.225  0.00  0.00    +0.000 A 
ATOM     10  C   UNL     1      -0.388  10.572  21.880  0.00  0.00    +0.000 C 
ATOM     11  N   UNL     1      -0.972  11.888  22.248  0.00  0.00    +0.000 NA
ATOM     12  C   UNL     1      -2.027  11.680  23.241  0.00  0.00    +0.000 C 
ATOM     13  C   UNL     1      -1.507  12.642  21.086  0.00  0.00    +0.000 C 
ATOM     14  C   UNL     1      -0.413  12.973  20.039  0.00  0.00    +0.000 C 
ATOM     15  H   UNL     1       1.092  12.015  17.781  0.00  0.00    +0.000 HD
ENDROOT
BRANCH   1  16
ATOM     16  S   UNL     1       2.336   5.750  19.637  0.00  0.00    +0.000 S 
ATOM     17  O   UNL     1       1.270   4.978  19.030  0.00  0.00    +0.000 OA
ATOM     18  O   UNL     1       2.599   5.651  21.054  0.00  0.00    +0.000 OA
BRANCH  16  23
ATOM     19  C   UNL     1       3.794   1.150  18.311  0.00  0.00    +0.000 C 
ATOM     20  N   UNL     1       4.217   2.546  18.194  0.00  0.00    +0.000 NA
ATOM     21  C   UNL     1       4.482   3.118  19.532  0.00  0.00    +0.000 C 
ATOM     22  C   UNL     1       4.820   4.626  19.493  0.00  0.00    +0.000 C 
ATOM     23  N   UNL     1       3.774   5.417  18.773  0.00  0.00    +0.000 NA
ATOM     24  C   UNL     1       3.580   4.828  17.407  0.00  0.00    +0.000 C 
ATOM     25  C   UNL     1       3.190   3.339  17.485  0.00  0.00    +0.000 C 
ENDBRANCH  16  23
ENDBRANCH   1  16
TORSDOF 2
ENDMDL
MODEL 9
REMARK VINA RESULT:      -6.5      2.655      8.100
REMARK  Name = 
REMARK  4 active torsions:
REMARK  status: ('A' for Active; 'I' for Inactive)
REMARK    1  A    between atoms: C_1  and  N_2
REMARK    2  A    between atoms: N_5  and  S_6
REMARK    3  A    between atoms: S_6  and  C_9
REMARK    4  A    between atoms: N_19  and  C_20
REMARK                            x       y       z     vdW  Elec       q    Type
REMARK                         _______ _______ _______ _____ _____    ______ ____
ROOT
ATOM      1  C   UNL     1       1.429   9.191  19.473  0.00  0.00    +0.000 A 
ATOM      2  C   UNL     1       2.162   9.548  18.339  0.00  0.00    +0.000 A 
ATOM      3  C   UNL     1       2.856   8.578  17.603  0.00  0.00    +0.000 A 
ATOM      4  C   UNL     1       2.821   7.257  18.069  0.00  0.00    +0.000 A 
ATOM      5  N   UNL     1       3.425   6.119  17.571  0.00  0.00    +0.000 N 
ATOM      6  C   UNL     1       3.209   5.081  18.429  0.00  0.00    +0.000 A 
ATOM      7  C   UNL     1       2.407   5.512  19.463  0.00  0.00    +0.000 A 
ATOM      8  C   UNL     1       2.134   6.889  19.232  0.00  0.00    +0.000 A 
ATOM      9  C   UNL     1       1.416   7.871  19.941  0.00  0.00    +0.000 A 
ATOM     10  C   UNL     1       2.055   4.667  20.647  0.00  0.00    +0.000 C 
ATOM     11  N   UNL     1       2.496   3.258  20.476  0.00  0.00    +0.000 NA
ATOM     12  C   UNL     1       2.556   2.616  21.790  0.00  0.00    +0.000 C 
ATOM     13  C   UNL     1       3.804   3.130  19.786  0.00  0.00    +0.000 C 
ATOM     14  C   UNL     1       3.777   3.713  18.349  0.00  0.00    +0.000 C 
ATOM     15  H   UNL     1       3.996   6.086  16.737  0.00  0.00    +0.000 HD
ENDROOT
BRANCH   1  16
ATOM     16  S   UNL     1       0.607  10.460  20.428  0.00  0.00    +0.000 S 
ATOM     17  O   UNL     1       1.190  10.441  21.755  0.00  0.00    +0.000 OA
ATOM     18  O   UNL     1      -0.815  10.288  20.248  0.00  0.00    +0.000 OA
BRANCH  16  23
ATOM     19  C   UNL     1      -1.441  14.931  21.357  0.00  0.00    +0.000 C 
ATOM     20  N   UNL     1      -0.389  14.317  20.546  0.00  0.00    +0.000 NA
ATOM     21  C   UNL     1      -0.972  13.349  19.592  0.00  0.00    +0.000 C 
ATOM     22  C   UNL     1       0.093  12.576  18.781  0.00  0.00    +0.000 C 
ATOM     23  N   UNL     1       1.099  11.911  19.667  0.00  0.00    +0.000 NA
ATOM     24  C   UNL     1       1.695  12.943  20.579  0.00  0.00    +0.000 C 
ATOM     25  C   UNL     1       0.611  13.655  21.410  0.00  0.00    +0.000 C 
ENDBRANCH  16  23
ENDBRANCH   1  16
TORSDOF 2
ENDMDL
