MODEL 1
REMARK VINA RESULT:      -8.1      0.000      0.000
REMARK  Name = 
REMARK  10 active torsions:
REMARK  status: ('A' for Active; 'I' for Inactive)
REMARK    1  A    between atoms: C_1  and  C_2
REMARK    2  A    between atoms: C_2  and  C_3
REMARK    3  A    between atoms: C_2  and  C_4
REMARK    4  A    between atoms: C_2  and  O_5
REMARK    5  A    between atoms: O_5  and  C_6
REMARK    6  A    between atoms: C_9  and  C_11
REMARK    7  A    between atoms: C_14  and  N_15
REMARK    8  A    between atoms: C_16  and  C_18
REMARK    9  A    between atoms: C_18  and  N_19
REMARK   10  A    between atoms: C_22  and  N_23
REMARK                            x       y       z     vdW  Elec       q    Type
REMARK                         _______ _______ _______ _____ _____    ______ ____
ROOT
ATOM      1  C   UNL     1       1.036   9.818  19.044  0.00  0.00    +0.000 A 
ATOM      2  C   UNL     1       1.148   8.968  20.140  0.00  0.00    +0.000 A 
ATOM      3  C   UNL     1       1.924   7.810  20.041  0.00  0.00    +0.000 A 
ATOM      4  C   UNL     1       2.589   7.484  18.854  0.00  0.00    +0.000 A 
ATOM      5  C   UNL     1       2.476   8.344  17.756  0.00  0.00    +0.000 A 
ATOM      6  C   UNL     1       1.682   9.495  17.844  0.00  0.00    +0.000 A 
ENDROOT
BRANCH   1  10
ATOM      7  C   UNL     1      -1.626  12.155  20.267  0.00  0.00    +0.000 C 
ATOM      8  O   UNL     1      -1.599  13.164  19.578  0.00  0.00    +0.000 OA
ATOM      9  N   UNL     1      -0.790  11.083  20.064  0.00  0.00    +0.000 N 
ATOM     10  C   UNL     1       0.202  11.040  19.112  0.00  0.00    +0.000 C 
ATOM     11  N   UNL     1       0.440  12.015  18.299  0.00  0.00    +0.000 NA
ATOM     12  H   UNL     1      -0.903  10.327  20.726  0.00  0.00    +0.000 HD
ATOM     13  H   UNL     1      -0.238  12.778  18.476  0.00  0.00    +0.000 HD
BRANCH   7  14
ATOM     14  O   UNL     1      -2.476  11.942  21.313  0.00  0.00    +0.000 OA
BRANCH  14  16
ATOM     15  C   UNL     1      -3.109  12.398  23.657  0.00  0.00    +0.000 C 
ATOM     16  C   UNL     1      -1.962  12.187  22.656  0.00  0.00    +0.000 C 
ATOM     17  C   UNL     1      -0.960  13.352  22.662  0.00  0.00    +0.000 C 
ATOM     18  C   UNL     1      -1.204  10.918  23.086  0.00  0.00    +0.000 C 
ENDBRANCH  14  16
ENDBRANCH   7  14
ENDBRANCH   1  10
BRANCH   4  19
ATOM     19  N   UNL     1       3.373   6.315  18.715  0.00  0.00    +0.000 N 
ATOM     20  C   UNL     1       2.924   5.111  18.193  0.00  0.00    +0.000 C 
ATOM     21  O   UNL     1       1.806   4.897  17.729  0.00  0.00    +0.000 OA
ATOM     22  H   UNL     1       4.360   6.415  18.925  0.00  0.00    +0.000 HD
BRANCH  20  23
ATOM     23  C   UNL     1       3.943   3.994  18.213  0.00  0.00    +0.000 C 
BRANCH  23  24
ATOM     24  N   UNL     1       5.094   4.290  17.383  0.00  0.00    +0.000 N 
ATOM     25  C   UNL     1       6.379   4.479  17.815  0.00  0.00    +0.000 A 
ATOM     26  N   UNL     1       7.206   4.655  16.808  0.00  0.00    +0.000 NA
ATOM     27  C   UNL     1       6.419   4.560  15.678  0.00  0.00    +0.000 A 
ATOM     28  C   UNL     1       5.098   4.342  16.016  0.00  0.00    +0.000 A 
BRANCH  27  29
ATOM     29  N   UNL     1       6.980   4.665  14.348  0.00  0.00    +0.000 N 
ATOM     30  O   UNL     1       7.888   5.496  14.199  0.00  0.00    +0.000 OA
ATOM     31  O   UNL     1       6.519   3.932  13.464  0.00  0.00    +0.000 OA
ENDBRANCH  27  29
ENDBRANCH  23  24
ENDBRANCH  20  23
ENDBRANCH   4  19
TORSDOF 7
ENDMDL
MODEL 2
REMARK VINA RESULT:      -7.9      1.646      2.753
REMARK  Name = 
REMARK  10 active torsions:
REMARK  status: ('A' for Active; 'I' for Inactive)
REMARK    1  A    between atoms: C_1  and  C_2
REMARK    2  A    between atoms: C_2  and  C_3
REMARK    3  A    between atoms: C_2  and  C_4
REMARK    4  A    between atoms: C_2  and  O_5
REMARK    5  A    between atoms: O_5  and  C_6
REMARK    6  A    between atoms: C_9  and  C_11
REMARK    7  A    between atoms: C_14  and  N_15
REMARK    8  A    between atoms: C_16  and  C_18
REMARK    9  A    between atoms: C_18  and  N_19
REMARK   10  A    between atoms: C_22  and  N_23
REMARK                            x       y       z     vdW  Elec       q    Type
REMARK                         _______ _______ _______ _____ _____    ______ ____
ROOT
ATOM      1  C   UNL     1       1.023   9.690  19.196  0.00  0.00    +0.000 A 
ATOM      2  C   UNL     1       1.627   9.456  17.965  0.00  0.00    +0.000 A 
ATOM      3  C   UNL     1       2.419   8.318  17.789  0.00  0.00    +0.000 A 
ATOM      4  C   UNL     1       2.624   7.410  18.833  0.00  0.00    +0.000 A 
ATOM      5  C   UNL     1       2.011   7.649  20.068  0.00  0.00    +0.000 A 
ATOM      6  C   UNL     1       1.232   8.798  20.255  0.00  0.00    +0.000 A 
ENDROOT
BRANCH   1  10
ATOM      7  C   UNL     1      -2.043  11.843  19.300  0.00  0.00    +0.000 C 
ATOM      8  O   UNL     1      -1.721  12.952  19.697  0.00  0.00    +0.000 OA
ATOM      9  N   UNL     1      -1.144  10.818  19.122  0.00  0.00    +0.000 N 
ATOM     10  C   UNL     1       0.197  10.899  19.420  0.00  0.00    +0.000 C 
ATOM     11  N   UNL     1       0.749  11.966  19.893  0.00  0.00    +0.000 NA
ATOM     12  H   UNL     1      -1.553   9.945  18.816  0.00  0.00    +0.000 HD
ATOM     13  H   UNL     1       0.034  12.711  19.975  0.00  0.00    +0.000 HD
BRANCH   7  14
ATOM     14  O   UNL     1      -3.312  11.464  18.975  0.00  0.00    +0.000 OA
BRANCH  14  16
ATOM     15  C   UNL     1      -2.380  11.468  16.686  0.00  0.00    +0.000 C 
ATOM     16  C   UNL     1      -3.568  11.093  17.587  0.00  0.00    +0.000 C 
ATOM     17  C   UNL     1      -4.891  11.695  17.088  0.00  0.00    +0.000 C 
ATOM     18  C   UNL     1      -3.708   9.561  17.550  0.00  0.00    +0.000 C 
ENDBRANCH  14  16
ENDBRANCH   7  14
ENDBRANCH   1  10
BRANCH   4  19
ATOM     19  N   UNL     1       3.428   6.255  18.693  0.00  0.00    +0.000 N 
ATOM     20  C   UNL     1       2.998   5.040  18.179  0.00  0.00    +0.000 C 
ATOM     21  O   UNL     1       1.880   4.804  17.723  0.00  0.00    +0.000 OA
ATOM     22  H   UNL     1       4.414   6.373  18.897  0.00  0.00    +0.000 HD
BRANCH  20  23
ATOM     23  C   UNL     1       4.036   3.942  18.197  0.00  0.00    +0.000 C 
BRANCH  23  24
ATOM     24  N   UNL     1       5.156   4.236  17.324  0.00  0.00    +0.000 N 
ATOM     25  C   UNL     1       6.452   4.446  17.712  0.00  0.00    +0.000 A 
ATOM     26  N   UNL     1       7.245   4.613  16.675  0.00  0.00    +0.000 NA
ATOM     27  C   UNL     1       6.423   4.491  15.573  0.00  0.00    +0.000 A 
ATOM     28  C   UNL     1       5.116   4.265  15.957  0.00  0.00    +0.000 A 
BRANCH  27  29
ATOM     29  N   UNL     1       6.939   4.579  14.225  0.00  0.00    +0.000 N 
ATOM     30  O   UNL     1       6.460   3.784  13.401  0.00  0.00    +0.000 OA
ATOM     31  O   UNL     1       7.810   5.425  13.989  0.00  0.00    +0.000 OA
ENDBRANCH  27  29
ENDBRANCH  23  24
ENDBRANCH  20  23
ENDBRANCH   4  19
TORSDOF 7
ENDMDL
MODEL 3
REMARK VINA RESULT:      -7.9      1.874      2.619
REMARK  Name = 
REMARK  10 active torsions:
REMARK  status: ('A' for Active; 'I' for Inactive)
REMARK    1  A    between atoms: C_1  and  C_2
REMARK    2  A    between atoms: C_2  and  C_3
REMARK    3  A    between atoms: C_2  and  C_4
REMARK    4  A    between atoms: C_2  and  O_5
REMARK    5  A    between atoms: O_5  and  C_6
REMARK    6  A    between atoms: C_9  and  C_11
REMARK    7  A    between atoms: C_14  and  N_15
REMARK    8  A    between atoms: C_16  and  C_18
REMARK    9  A    between atoms: C_18  and  N_19
REMARK   10  A    between atoms: C_22  and  N_23
REMARK                            x       y       z     vdW  Elec       q    Type
REMARK                         _______ _______ _______ _____ _____    ______ ____
ROOT
ATOM      1  C   UNL     1       1.097   9.396  18.961  0.00  0.00    +0.000 A 
ATOM      2  C   UNL     1       1.241   8.527  20.038  0.00  0.00    +0.000 A 
ATOM      3  C   UNL     1       2.121   7.446  19.941  0.00  0.00    +0.000 A 
ATOM      4  C   UNL     1       2.858   7.214  18.775  0.00  0.00    +0.000 A 
ATOM      5  C   UNL     1       2.711   8.094  17.696  0.00  0.00    +0.000 A 
ATOM      6  C   UNL     1       1.816   9.167  17.781  0.00  0.00    +0.000 A 
ENDROOT
BRANCH   1  10
ATOM      7  C   UNL     1      -0.136  12.918  18.613  0.00  0.00    +0.000 C 
ATOM      8  O   UNL     1      -1.296  12.959  18.992  0.00  0.00    +0.000 OA
ATOM      9  N   UNL     1       0.623  11.771  18.634  0.00  0.00    +0.000 N 
ATOM     10  C   UNL     1       0.156  10.538  19.026  0.00  0.00    +0.000 C 
ATOM     11  N   UNL     1      -1.056  10.339  19.427  0.00  0.00    +0.000 NA
ATOM     12  H   UNL     1       1.557  11.876  18.263  0.00  0.00    +0.000 HD
ATOM     13  H   UNL     1      -1.568  11.239  19.421  0.00  0.00    +0.000 HD
BRANCH   7  14
ATOM     14  O   UNL     1       0.569  13.981  18.127  0.00  0.00    +0.000 OA
BRANCH  14  16
ATOM     15  C   UNL     1       0.966  14.631  20.478  0.00  0.00    +0.000 C 
ATOM     16  C   UNL     1       0.790  15.107  19.026  0.00  0.00    +0.000 C 
ATOM     17  C   UNL     1      -0.325  16.155  18.887  0.00  0.00    +0.000 C 
ATOM     18  C   UNL     1       2.111  15.772  18.598  0.00  0.00    +0.000 C 
ENDBRANCH  14  16
ENDBRANCH   7  14
ENDBRANCH   1  10
BRANCH   4  19
ATOM     19  N   UNL     1       3.748   6.124  18.638  0.00  0.00    +0.000 N 
ATOM     20  C   UNL     1       3.369   4.807  18.417  0.00  0.00    +0.000 C 
ATOM     21  O   UNL     1       2.218   4.405  18.257  0.00  0.00    +0.000 OA
ATOM     22  H   UNL     1       4.733   6.357  18.601  0.00  0.00    +0.000 HD
BRANCH  20  23
ATOM     23  C   UNL     1       4.511   3.819  18.373  0.00  0.00    +0.000 C 
BRANCH  23  24
ATOM     24  N   UNL     1       5.544   4.222  17.439  0.00  0.00    +0.000 N 
ATOM     25  C   UNL     1       6.840   4.535  17.748  0.00  0.00    +0.000 A 
ATOM     26  N   UNL     1       7.547   4.786  16.668  0.00  0.00    +0.000 NA
ATOM     27  C   UNL     1       6.670   4.611  15.617  0.00  0.00    +0.000 A 
ATOM     28  C   UNL     1       5.414   4.268  16.078  0.00  0.00    +0.000 A 
BRANCH  27  29
ATOM     29  N   UNL     1       7.089   4.763  14.241  0.00  0.00    +0.000 N 
ATOM     30  O   UNL     1       6.512   4.046  13.409  0.00  0.00    +0.000 OA
ATOM     31  O   UNL     1       7.982   5.583  13.993  0.00  0.00    +0.000 OA
ENDBRANCH  27  29
ENDBRANCH  23  24
ENDBRANCH  20  23
ENDBRANCH   4  19
TORSDOF 7
ENDMDL
MODEL 4
REMARK VINA RESULT:      -7.8      0.722      1.135
REMARK  Name = 
REMARK  10 active torsions:
REMARK  status: ('A' for Active; 'I' for Inactive)
REMARK    1  A    between atoms: C_1  and  C_2
REMARK    2  A    between atoms: C_2  and  C_3
REMARK    3  A    between atoms: C_2  and  C_4
REMARK    4  A    between atoms: C_2  and  O_5
REMARK    5  A    between atoms: O_5  and  C_6
REMARK    6  A    between atoms: C_9  and  C_11
REMARK    7  A    between atoms: C_14  and  N_15
REMARK    8  A    between atoms: C_16  and  C_18
REMARK    9  A    between atoms: C_18  and  N_19
REMARK   10  A    between atoms: C_22  and  N_23
REMARK                            x       y       z     vdW  Elec       q    Type
REMARK                         _______ _______ _______ _____ _____    ______ ____
ROOT
ATOM      1  C   UNL     1       0.983   9.711  18.989  0.00  0.00    +0.000 A 
ATOM      2  C   UNL     1       1.106   8.890  20.105  0.00  0.00    +0.000 A 
ATOM      3  C   UNL     1       1.906   7.747  20.038  0.00  0.00    +0.000 A 
ATOM      4  C   UNL     1       2.585   7.406  18.863  0.00  0.00    +0.000 A 
ATOM      5  C   UNL     1       2.460   8.238  17.744  0.00  0.00    +0.000 A 
ATOM      6  C   UNL     1       1.642   9.374  17.800  0.00  0.00    +0.000 A 
ENDROOT
BRANCH   1  10
ATOM      7  C   UNL     1      -0.729  12.730  20.404  0.00  0.00    +0.000 C 
ATOM      8  O   UNL     1      -1.398  13.242  19.520  0.00  0.00    +0.000 OA
ATOM      9  N   UNL     1       0.008  11.584  20.220  0.00  0.00    +0.000 N 
ATOM     10  C   UNL     1       0.124  10.918  19.023  0.00  0.00    +0.000 C 
ATOM     11  N   UNL     1      -0.466  11.306  17.941  0.00  0.00    +0.000 NA
ATOM     12  H   UNL     1       0.538  11.288  21.029  0.00  0.00    +0.000 HD
ATOM     13  H   UNL     1      -1.029  12.151  18.146  0.00  0.00    +0.000 HD
BRANCH   7  14
ATOM     14  O   UNL     1      -0.618  13.203  21.679  0.00  0.00    +0.000 OA
BRANCH  14  16
ATOM     15  C   UNL     1      -1.771  13.815  23.777  0.00  0.00    +0.000 C 
ATOM     16  C   UNL     1      -1.635  12.790  22.639  0.00  0.00    +0.000 C 
ATOM     17  C   UNL     1      -1.359  11.371  23.161  0.00  0.00    +0.000 C 
ATOM     18  C   UNL     1      -2.978  12.757  21.887  0.00  0.00    +0.000 C 
ENDBRANCH  14  16
ENDBRANCH   7  14
ENDBRANCH   1  10
BRANCH   4  19
ATOM     19  N   UNL     1       3.393   6.251  18.756  0.00  0.00    +0.000 N 
ATOM     20  C   UNL     1       2.927   4.973  18.482  0.00  0.00    +0.000 C 
ATOM     21  O   UNL     1       1.761   4.666  18.241  0.00  0.00    +0.000 OA
ATOM     22  H   UNL     1       4.395   6.405  18.786  0.00  0.00    +0.000 HD
BRANCH  20  23
ATOM     23  C   UNL     1       3.990   3.898  18.486  0.00  0.00    +0.000 C 
BRANCH  23  24
ATOM     24  N   UNL     1       5.108   4.234  17.627  0.00  0.00    +0.000 N 
ATOM     25  C   UNL     1       6.379   4.541  18.033  0.00  0.00    +0.000 A 
ATOM     26  N   UNL     1       7.183   4.724  17.008  0.00  0.00    +0.000 NA
ATOM     27  C   UNL     1       6.397   4.510  15.894  0.00  0.00    +0.000 A 
ATOM     28  C   UNL     1       5.098   4.213  16.259  0.00  0.00    +0.000 A 
BRANCH  27  29
ATOM     29  N   UNL     1       6.937   4.585  14.554  0.00  0.00    +0.000 N 
ATOM     30  O   UNL     1       6.478   3.778  13.731  0.00  0.00    +0.000 OA
ATOM     31  O   UNL     1       7.808   5.433  14.325  0.00  0.00    +0.000 OA
ENDBRANCH  27  29
ENDBRANCH  23  24
ENDBRANCH  20  23
ENDBRANCH   4  19
TORSDOF 7
ENDMDL
MODEL 5
REMARK VINA RESULT:      -7.8      2.213     10.732
REMARK  Name = 
REMARK  10 active torsions:
REMARK  status: ('A' for Active; 'I' for Inactive)
REMARK    1  A    between atoms: C_1  and  C_2
REMARK    2  A    between atoms: C_2  and  C_3
REMARK    3  A    between atoms: C_2  and  C_4
REMARK    4  A    between atoms: C_2  and  O_5
REMARK    5  A    between atoms: O_5  and  C_6
REMARK    6  A    between atoms: C_9  and  C_11
REMARK    7  A    between atoms: C_14  and  N_15
REMARK    8  A    between atoms: C_16  and  C_18
REMARK    9  A    between atoms: C_18  and  N_19
REMARK   10  A    between atoms: C_22  and  N_23
REMARK                            x       y       z     vdW  Elec       q    Type
REMARK                         _______ _______ _______ _____ _____    ______ ____
ROOT
ATOM      1  C   UNL     1       2.349   7.244  19.292  0.00  0.00    +0.000 A 
ATOM      2  C   UNL     1       2.283   8.043  18.155  0.00  0.00    +0.000 A 
ATOM      3  C   UNL     1       1.606   9.264  18.206  0.00  0.00    +0.000 A 
ATOM      4  C   UNL     1       0.984   9.698  19.381  0.00  0.00    +0.000 A 
ATOM      5  C   UNL     1       1.056   8.892  20.523  0.00  0.00    +0.000 A 
ATOM      6  C   UNL     1       1.716   7.657  20.470  0.00  0.00    +0.000 A 
ENDROOT
BRANCH   1  10
ATOM      7  C   UNL     1       4.087   4.255  17.847  0.00  0.00    +0.000 C 
ATOM      8  O   UNL     1       4.371   3.495  18.760  0.00  0.00    +0.000 OA
ATOM      9  N   UNL     1       3.416   5.440  18.035  0.00  0.00    +0.000 N 
ATOM     10  C   UNL     1       3.040   5.934  19.262  0.00  0.00    +0.000 C 
ATOM     11  N   UNL     1       3.276   5.316  20.372  0.00  0.00    +0.000 NA
ATOM     12  H   UNL     1       3.274   5.983  17.194  0.00  0.00    +0.000 HD
ATOM     13  H   UNL     1       3.752   4.419  20.167  0.00  0.00    +0.000 HD
BRANCH   7  14
ATOM     14  O   UNL     1       4.381   4.043  16.531  0.00  0.00    +0.000 OA
BRANCH  14  16
ATOM     15  C   UNL     1       6.043   3.946  14.705  0.00  0.00    +0.000 C 
ATOM     16  C   UNL     1       5.614   4.626  16.016  0.00  0.00    +0.000 C 
ATOM     17  C   UNL     1       6.725   4.599  17.078  0.00  0.00    +0.000 C 
ATOM     18  C   UNL     1       5.314   6.101  15.692  0.00  0.00    +0.000 C 
ENDBRANCH  14  16
ENDBRANCH   7  14
ENDBRANCH   1  10
BRANCH   4  19
ATOM     19  N   UNL     1       0.281  10.922  19.465  0.00  0.00    +0.000 N 
ATOM     20  C   UNL     1      -1.037  11.114  19.073  0.00  0.00    +0.000 C 
ATOM     21  O   UNL     1      -1.797  10.246  18.648  0.00  0.00    +0.000 OA
ATOM     22  H   UNL     1       0.759  11.677  19.942  0.00  0.00    +0.000 HD
BRANCH  20  23
ATOM     23  C   UNL     1      -1.535  12.535  19.205  0.00  0.00    +0.000 C 
BRANCH  23  24
ATOM     24  N   UNL     1      -2.502  12.675  20.277  0.00  0.00    +0.000 N 
ATOM     25  C   UNL     1      -3.865  12.656  20.146  0.00  0.00    +0.000 A 
ATOM     26  N   UNL     1      -4.463  12.731  21.315  0.00  0.00    +0.000 NA
ATOM     27  C   UNL     1      -3.438  12.785  22.238  0.00  0.00    +0.000 A 
ATOM     28  C   UNL     1      -2.209  12.761  21.610  0.00  0.00    +0.000 A 
BRANCH  27  29
ATOM     29  N   UNL     1      -3.696  12.839  23.661  0.00  0.00    +0.000 N 
ATOM     30  O   UNL     1      -3.528  13.939  24.209  0.00  0.00    +0.000 OA
ATOM     31  O   UNL     1      -4.057  11.799  24.226  0.00  0.00    +0.000 OA
ENDBRANCH  27  29
ENDBRANCH  23  24
ENDBRANCH  20  23
ENDBRANCH   4  19
TORSDOF 7
ENDMDL
MODEL 6
REMARK VINA RESULT:      -7.8      2.216     10.688
REMARK  Name = 
REMARK  10 active torsions:
REMARK  status: ('A' for Active; 'I' for Inactive)
REMARK    1  A    between atoms: C_1  and  C_2
REMARK    2  A    between atoms: C_2  and  C_3
REMARK    3  A    between atoms: C_2  and  C_4
REMARK    4  A    between atoms: C_2  and  O_5
REMARK    5  A    between atoms: O_5  and  C_6
REMARK    6  A    between atoms: C_9  and  C_11
REMARK    7  A    between atoms: C_14  and  N_15
REMARK    8  A    between atoms: C_16  and  C_18
REMARK    9  A    between atoms: C_18  and  N_19
REMARK   10  A    between atoms: C_22  and  N_23
REMARK                            x       y       z     vdW  Elec       q    Type
REMARK                         _______ _______ _______ _____ _____    ______ ____
ROOT
ATOM      1  C   UNL     1       2.392   7.099  19.259  0.00  0.00    +0.000 A 
ATOM      2  C   UNL     1       1.810   7.510  20.454  0.00  0.00    +0.000 A 
ATOM      3  C   UNL     1       1.115   8.721  20.505  0.00  0.00    +0.000 A 
ATOM      4  C   UNL     1       0.997   9.536  19.373  0.00  0.00    +0.000 A 
ATOM      5  C   UNL     1       1.581   9.115  18.173  0.00  0.00    +0.000 A 
ATOM      6  C   UNL     1       2.297   7.912  18.123  0.00  0.00    +0.000 A 
ENDROOT
BRANCH   1  10
ATOM      7  C   UNL     1       4.230   4.231  17.697  0.00  0.00    +0.000 C 
ATOM      8  O   UNL     1       4.597   3.479  18.587  0.00  0.00    +0.000 OA
ATOM      9  N   UNL     1       3.502   5.374  17.931  0.00  0.00    +0.000 N 
ATOM     10  C   UNL     1       3.154   5.832  19.181  0.00  0.00    +0.000 C 
ATOM     11  N   UNL     1       3.475   5.216  20.270  0.00  0.00    +0.000 NA
ATOM     12  H   UNL     1       3.291   5.917  17.105  0.00  0.00    +0.000 HD
ATOM     13  H   UNL     1       3.991   4.351  20.032  0.00  0.00    +0.000 HD
BRANCH   7  14
ATOM     14  O   UNL     1       4.475   4.051  16.367  0.00  0.00    +0.000 OA
BRANCH  14  16
ATOM     15  C   UNL     1       6.877   4.536  16.682  0.00  0.00    +0.000 C 
ATOM     16  C   UNL     1       5.633   4.732  15.800  0.00  0.00    +0.000 C 
ATOM     17  C   UNL     1       5.331   6.216  15.539  0.00  0.00    +0.000 C 
ATOM     18  C   UNL     1       5.924   4.069  14.441  0.00  0.00    +0.000 C 
ENDBRANCH  14  16
ENDBRANCH   7  14
ENDBRANCH   1  10
BRANCH   4  19
ATOM     19  N   UNL     1       0.312  10.772  19.391  0.00  0.00    +0.000 N 
ATOM     20  C   UNL     1      -0.992  10.968  18.955  0.00  0.00    +0.000 C 
ATOM     21  O   UNL     1      -1.754  10.096  18.543  0.00  0.00    +0.000 OA
ATOM     22  H   UNL     1       0.789  11.539  19.852  0.00  0.00    +0.000 HD
BRANCH  20  23
ATOM     23  C   UNL     1      -1.471  12.400  19.019  0.00  0.00    +0.000 C 
BRANCH  23  24
ATOM     24  N   UNL     1      -2.511  12.583  20.013  0.00  0.00    +0.000 N 
ATOM     25  C   UNL     1      -3.861  12.569  19.786  0.00  0.00    +0.000 A 
ATOM     26  N   UNL     1      -4.540  12.687  20.906  0.00  0.00    +0.000 NA
ATOM     27  C   UNL     1      -3.584  12.764  21.898  0.00  0.00    +0.000 A 
ATOM     28  C   UNL     1      -2.312  12.710  21.361  0.00  0.00    +0.000 A 
BRANCH  27  29
ATOM     29  N   UNL     1      -3.942  12.866  23.296  0.00  0.00    +0.000 N 
ATOM     30  O   UNL     1      -4.404  13.956  23.667  0.00  0.00    +0.000 OA
ATOM     31  O   UNL     1      -3.762  11.875  24.016  0.00  0.00    +0.000 OA
ENDBRANCH  27  29
ENDBRANCH  23  24
ENDBRANCH  20  23
ENDBRANCH   4  19
TORSDOF 7
ENDMDL
MODEL 7
REMARK VINA RESULT:      -7.7      1.256      1.899
REMARK  Name = 
REMARK  10 active torsions:
REMARK  status: ('A' for Active; 'I' for Inactive)
REMARK    1  A    between atoms: C_1  and  C_2
REMARK    2  A    between atoms: C_2  and  C_3
REMARK    3  A    between atoms: C_2  and  C_4
REMARK    4  A    between atoms: C_2  and  O_5
REMARK    5  A    between atoms: O_5  and  C_6
REMARK    6  A    between atoms: C_9  and  C_11
REMARK    7  A    between atoms: C_14  and  N_15
REMARK    8  A    between atoms: C_16  and  C_18
REMARK    9  A    between atoms: C_18  and  N_19
REMARK   10  A    between atoms: C_22  and  N_23
REMARK                            x       y       z     vdW  Elec       q    Type
REMARK                         _______ _______ _______ _____ _____    ______ ____
ROOT
ATOM      1  C   UNL     1       0.762   9.911  19.465  0.00  0.00    +0.000 A 
ATOM      2  C   UNL     1       0.822   9.194  20.656  0.00  0.00    +0.000 A 
ATOM      3  C   UNL     1       1.546   8.000  20.708  0.00  0.00    +0.000 A 
ATOM      4  C   UNL     1       2.208   7.505  19.580  0.00  0.00    +0.000 A 
ATOM      5  C   UNL     1       2.147   8.232  18.386  0.00  0.00    +0.000 A 
ATOM      6  C   UNL     1       1.405   9.419  18.323  0.00  0.00    +0.000 A 
ENDROOT
BRANCH   1  10
ATOM      7  C   UNL     1      -1.885  12.437  20.277  0.00  0.00    +0.000 C 
ATOM      8  O   UNL     1      -1.749  13.392  19.527  0.00  0.00    +0.000 OA
ATOM      9  N   UNL     1      -1.085  11.320  20.225  0.00  0.00    +0.000 N 
ATOM     10  C   UNL     1      -0.016  11.168  19.373  0.00  0.00    +0.000 C 
ATOM     11  N   UNL     1       0.338  12.072  18.520  0.00  0.00    +0.000 NA
ATOM     12  H   UNL     1      -1.291  10.620  20.924  0.00  0.00    +0.000 HD
ATOM     13  H   UNL     1      -0.316  12.872  18.582  0.00  0.00    +0.000 HD
BRANCH   7  14
ATOM     14  O   UNL     1      -2.832  12.336  21.254  0.00  0.00    +0.000 OA
BRANCH  14  16
ATOM     15  C   UNL     1      -1.076  13.117  22.806  0.00  0.00    +0.000 C 
ATOM     16  C   UNL     1      -2.582  13.037  22.508  0.00  0.00    +0.000 C 
ATOM     17  C   UNL     1      -3.373  12.404  23.663  0.00  0.00    +0.000 C 
ATOM     18  C   UNL     1      -3.092  14.478  22.328  0.00  0.00    +0.000 C 
ENDBRANCH  14  16
ENDBRANCH   7  14
ENDBRANCH   1  10
BRANCH   4  19
ATOM     19  N   UNL     1       2.940   6.295  19.594  0.00  0.00    +0.000 N 
ATOM     20  C   UNL     1       2.396   5.037  19.810  0.00  0.00    +0.000 C 
ATOM     21  O   UNL     1       1.203   4.782  19.967  0.00  0.00    +0.000 OA
ATOM     22  H   UNL     1       3.915   6.362  19.326  0.00  0.00    +0.000 HD
BRANCH  20  23
ATOM     23  C   UNL     1       3.403   3.910  19.840  0.00  0.00    +0.000 C 
BRANCH  23  24
ATOM     24  N   UNL     1       4.284   3.935  18.689  0.00  0.00    +0.000 N 
ATOM     25  C   UNL     1       3.924   3.704  17.388  0.00  0.00    +0.000 A 
ATOM     26  N   UNL     1       4.939   3.876  16.569  0.00  0.00    +0.000 NA
ATOM     27  C   UNL     1       5.993   4.249  17.379  0.00  0.00    +0.000 A 
ATOM     28  C   UNL     1       5.607   4.282  18.704  0.00  0.00    +0.000 A 
BRANCH  27  29
ATOM     29  N   UNL     1       7.296   4.568  16.836  0.00  0.00    +0.000 N 
ATOM     30  O   UNL     1       7.306   5.209  15.774  0.00  0.00    +0.000 OA
ATOM     31  O   UNL     1       8.294   4.182  17.456  0.00  0.00    +0.000 OA
ENDBRANCH  27  29
ENDBRANCH  23  24
ENDBRANCH  20  23
ENDBRANCH   4  19
TORSDOF 7
ENDMDL
MODEL 8
REMARK VINA RESULT:      -7.7      1.251      1.955
REMARK  Name = 
REMARK  10 active torsions:
REMARK  status: ('A' for Active; 'I' for Inactive)
REMARK    1  A    between atoms: C_1  and  C_2
REMARK    2  A    between atoms: C_2  and  C_3
REMARK    3  A    between atoms: C_2  and  C_4
REMARK    4  A    between atoms: C_2  and  O_5
REMARK    5  A    between atoms: O_5  and  C_6
REMARK    6  A    between atoms: C_9  and  C_11
REMARK    7  A    between atoms: C_14  and  N_15
REMARK    8  A    between atoms: C_16  and  C_18
REMARK    9  A    between atoms: C_18  and  N_19
REMARK   10  A    between atoms: C_22  and  N_23
REMARK                            x       y       z     vdW  Elec       q    Type
REMARK                         _______ _______ _______ _____ _____    ______ ____
ROOT
ATOM      1  C   UNL     1       0.683   9.999  19.338  0.00  0.00    +0.000 A 
ATOM      2  C   UNL     1       1.317   9.545  18.186  0.00  0.00    +0.000 A 
ATOM      3  C   UNL     1       2.059   8.362  18.227  0.00  0.00    +0.000 A 
ATOM      4  C   UNL     1       2.183   7.625  19.409  0.00  0.00    +0.000 A 
ATOM      5  C   UNL     1       1.540   8.085  20.564  0.00  0.00    +0.000 A 
ATOM      6  C   UNL     1       0.812   9.281  20.533  0.00  0.00    +0.000 A 
ENDROOT
BRANCH   1  10
ATOM      7  C   UNL     1      -1.914  12.498  20.367  0.00  0.00    +0.000 C 
ATOM      8  O   UNL     1      -1.805  13.483  19.653  0.00  0.00    +0.000 OA
ATOM      9  N   UNL     1      -1.123  11.381  20.234  0.00  0.00    +0.000 N 
ATOM     10  C   UNL     1      -0.092  11.262  19.331  0.00  0.00    +0.000 C 
ATOM     11  N   UNL     1       0.231  12.199  18.503  0.00  0.00    +0.000 NA
ATOM     12  H   UNL     1      -1.303  10.652  20.911  0.00  0.00    +0.000 HD
ATOM     13  H   UNL     1      -0.416  12.999  18.627  0.00  0.00    +0.000 HD
BRANCH   7  14
ATOM     14  O   UNL     1      -2.820  12.358  21.378  0.00  0.00    +0.000 OA
BRANCH  14  16
ATOM     15  C   UNL     1      -3.213  14.554  22.439  0.00  0.00    +0.000 C 
ATOM     16  C   UNL     1      -2.607  13.149  22.584  0.00  0.00    +0.000 C 
ATOM     17  C   UNL     1      -1.118  13.192  22.963  0.00  0.00    +0.000 C 
ATOM     18  C   UNL     1      -3.359  12.440  23.725  0.00  0.00    +0.000 C 
ENDBRANCH  14  16
ENDBRANCH   7  14
ENDBRANCH   1  10
BRANCH   4  19
ATOM     19  N   UNL     1       2.935   6.430  19.489  0.00  0.00    +0.000 N 
ATOM     20  C   UNL     1       2.408   5.170  19.738  0.00  0.00    +0.000 C 
ATOM     21  O   UNL     1       1.216   4.900  19.872  0.00  0.00    +0.000 OA
ATOM     22  H   UNL     1       3.916   6.505  19.245  0.00  0.00    +0.000 HD
BRANCH  20  23
ATOM     23  C   UNL     1       3.433   4.064  19.839  0.00  0.00    +0.000 C 
BRANCH  23  24
ATOM     24  N   UNL     1       4.312   4.030  18.686  0.00  0.00    +0.000 N 
ATOM     25  C   UNL     1       3.939   3.806  17.388  0.00  0.00    +0.000 A 
ATOM     26  N   UNL     1       4.960   3.915  16.566  0.00  0.00    +0.000 NA
ATOM     27  C   UNL     1       6.034   4.238  17.371  0.00  0.00    +0.000 A 
ATOM     28  C   UNL     1       5.652   4.305  18.697  0.00  0.00    +0.000 A 
BRANCH  27  29
ATOM     29  N   UNL     1       7.351   4.479  16.824  0.00  0.00    +0.000 N 
ATOM     30  O   UNL     1       7.392   4.947  15.675  0.00  0.00    +0.000 OA
ATOM     31  O   UNL     1       8.332   4.205  17.526  0.00  0.00    +0.000 OA
ENDBRANCH  27  29
ENDBRANCH  23  24
ENDBRANCH  20  23
ENDBRANCH   4  19
TORSDOF 7
ENDMDL
MODEL 9
REMARK VINA RESULT:      -7.7      1.368      1.847
REMARK  Name = 
REMARK  10 active torsions:
REMARK  status: ('A' for Active; 'I' for Inactive)
REMARK    1  A    between atoms: C_1  and  C_2
REMARK    2  A    between atoms: C_2  and  C_3
REMARK    3  A    between atoms: C_2  and  C_4
REMARK    4  A    between atoms: C_2  and  O_5
REMARK    5  A    between atoms: O_5  and  C_6
REMARK    6  A    between atoms: C_9  and  C_11
REMARK    7  A    between atoms: C_14  and  N_15
REMARK    8  A    between atoms: C_16  and  C_18
REMARK    9  A    between atoms: C_18  and  N_19
REMARK   10  A    between atoms: C_22  and  N_23
REMARK                            x       y       z     vdW  Elec       q    Type
REMARK                         _______ _______ _______ _____ _____    ______ ____
ROOT
ATOM      1  C   UNL     1       0.847   9.926  19.361  0.00  0.00    +0.000 A 
ATOM      2  C   UNL     1       0.904   9.190  20.539  0.00  0.00    +0.000 A 
ATOM      3  C   UNL     1       1.596   7.976  20.564  0.00  0.00    +0.000 A 
ATOM      4  C   UNL     1       2.230   7.481  19.419  0.00  0.00    +0.000 A 
ATOM      5  C   UNL     1       2.172   8.228  18.237  0.00  0.00    +0.000 A 
ATOM      6  C   UNL     1       1.462   9.435  18.202  0.00  0.00    +0.000 A 
ENDROOT
BRANCH   1  10
ATOM      7  C   UNL     1      -0.887  13.012  20.593  0.00  0.00    +0.000 C 
ATOM      8  O   UNL     1      -1.300  13.633  19.626  0.00  0.00    +0.000 OA
ATOM      9  N   UNL     1      -0.222  11.812  20.488  0.00  0.00    +0.000 N 
ATOM     10  C   UNL     1       0.102  11.205  19.298  0.00  0.00    +0.000 C 
ATOM     11  N   UNL     1      -0.200  11.706  18.146  0.00  0.00    +0.000 NA
ATOM     12  H   UNL     1       0.089  11.423  21.368  0.00  0.00    +0.000 HD
ATOM     13  H   UNL     1      -0.725  12.588  18.287  0.00  0.00    +0.000 HD
BRANCH   7  14
ATOM     14  O   UNL     1      -1.023  13.401  21.893  0.00  0.00    +0.000 OA
BRANCH  14  16
ATOM     15  C   UNL     1      -1.821  11.486  23.235  0.00  0.00    +0.000 C 
ATOM     16  C   UNL     1      -2.155  12.864  22.641  0.00  0.00    +0.000 C 
ATOM     17  C   UNL     1      -3.425  12.835  21.777  0.00  0.00    +0.000 C 
ATOM     18  C   UNL     1      -2.412  13.822  23.818  0.00  0.00    +0.000 C 
ENDBRANCH  14  16
ENDBRANCH   7  14
ENDBRANCH   1  10
BRANCH   4  19
ATOM     19  N   UNL     1       2.929   6.252  19.405  0.00  0.00    +0.000 N 
ATOM     20  C   UNL     1       2.415   5.036  19.835  0.00  0.00    +0.000 C 
ATOM     21  O   UNL     1       1.270   4.839  20.238  0.00  0.00    +0.000 OA
ATOM     22  H   UNL     1       3.835   6.261  18.952  0.00  0.00    +0.000 HD
BRANCH  20  23
ATOM     23  C   UNL     1       3.388   3.882  19.777  0.00  0.00    +0.000 C 
BRANCH  23  24
ATOM     24  N   UNL     1       4.272   3.971  18.630  0.00  0.00    +0.000 N 
ATOM     25  C   UNL     1       3.933   3.733  17.325  0.00  0.00    +0.000 A 
ATOM     26  N   UNL     1       4.939   3.974  16.513  0.00  0.00    +0.000 NA
ATOM     27  C   UNL     1       5.965   4.400  17.332  0.00  0.00    +0.000 A 
ATOM     28  C   UNL     1       5.571   4.396  18.656  0.00  0.00    +0.000 A 
BRANCH  27  29
ATOM     29  N   UNL     1       7.249   4.801  16.800  0.00  0.00    +0.000 N 
ATOM     30  O   UNL     1       8.237   4.177  17.218  0.00  0.00    +0.000 OA
ATOM     31  O   UNL     1       7.274   5.726  15.978  0.00  0.00    +0.000 OA
ENDBRANCH  27  29
ENDBRANCH  23  24
ENDBRANCH  20  23
ENDBRANCH   4  19
TORSDOF 7
ENDMDL
