MODEL 1
REMARK VINA RESULT:      -8.3      0.000      0.000
REMARK  Name = 
REMARK  4 active torsions:
REMARK  status: ('A' for Active; 'I' for Inactive)
REMARK    1  A    between atoms: C_2  and  C_20
REMARK    2  A    between atoms: N_3  and  C_4
REMARK    3  A    between atoms: C_13  and  C_15
REMARK    4  A    between atoms: C_26  and  O_27
REMARK                            x       y       z     vdW  Elec       q    Type
REMARK                         _______ _______ _______ _____ _____    ______ ____
ROOT
ATOM      1  C   UNL     1       4.004   4.883  17.614  0.00  0.00    +0.000 A 
ATOM      2  C   UNL     1       4.016   3.824  18.534  0.00  0.00    +0.000 A 
ATOM      3  C   UNL     1       3.400   3.928  19.778  0.00  0.00    +0.000 A 
ATOM      4  C   UNL     1       2.754   5.100  20.158  0.00  0.00    +0.000 A 
ATOM      5  C   UNL     1       2.782   6.187  19.268  0.00  0.00    +0.000 A 
ATOM      6  C   UNL     1       3.411   6.100  18.022  0.00  0.00    +0.000 A 
ATOM      7  C   UNL     1       3.221   7.373  17.452  0.00  0.00    +0.000 A 
ATOM      8  N   UNL     1       2.552   8.212  18.239  0.00  0.00    +0.000 NA
ATOM      9  N   UNL     1       2.242   7.471  19.350  0.00  0.00    +0.000 N 
ATOM     10  C   UNL     1       1.427   8.026  20.379  0.00  0.00    +0.000 C 
ATOM     11  O   UNL     1       1.122   7.270  21.302  0.00  0.00    +0.000 OA
ENDROOT
BRANCH  10  12
ATOM     12  C   UNL     1       0.965   9.405  20.335  0.00  0.00    +0.000 A 
ATOM     13  C   UNL     1       0.213  10.136  19.430  0.00  0.00    +0.000 A 
ATOM     14  C   UNL     1       0.100  11.449  19.948  0.00  0.00    +0.000 A 
ATOM     15  C   UNL     1       0.783  11.448  21.139  0.00  0.00    +0.000 A 
ATOM     16  O   UNL     1       1.325  10.226  21.374  0.00  0.00    +0.000 OA
ENDBRANCH  10  12
BRANCH   1  19
ATOM     17  O   UNL     1       6.771   4.374  16.863  0.00  0.00    +0.000 OA
ATOM     18  C   UNL     1       5.884   4.540  16.027  0.00  0.00    +0.000 C 
ATOM     19  N   UNL     1       4.552   4.763  16.318  0.00  0.00    +0.000 N 
ATOM     20  H   UNL     1       3.912   4.735  15.527  0.00  0.00    +0.000 HD
BRANCH  18  21
ATOM     21  C   UNL     1       6.277   4.454  14.588  0.00  0.00    +0.000 A 
ATOM     22  C   UNL     1       5.465   3.647  13.769  0.00  0.00    +0.000 A 
ATOM     23  C   UNL     1       5.779   3.457  12.428  0.00  0.00    +0.000 A 
ATOM     24 CL   UNL     1       4.785   2.451  11.451  0.00  0.00    +0.000 Cl
ATOM     25  C   UNL     1       6.899   4.072  11.878  0.00  0.00    +0.000 A 
ATOM     26  C   UNL     1       7.706   4.890  12.672  0.00  0.00    +0.000 A 
ATOM     27  C   UNL     1       7.396   5.081  14.024  0.00  0.00    +0.000 A 
BRANCH  27  28
ATOM     28  O   UNL     1       8.207   5.887  14.780  0.00  0.00    +0.000 OA
ATOM     29  H   UNL     1       8.642   5.339  15.459  0.00  0.00    +0.000 HD
ENDBRANCH  27  28
ENDBRANCH  18  21
ENDBRANCH   1  19
TORSDOF 4
ENDMDL
MODEL 2
REMARK VINA RESULT:      -8.2      1.054      1.176
REMARK  Name = 
REMARK  4 active torsions:
REMARK  status: ('A' for Active; 'I' for Inactive)
REMARK    1  A    between atoms: C_2  and  C_20
REMARK    2  A    between atoms: N_3  and  C_4
REMARK    3  A    between atoms: C_13  and  C_15
REMARK    4  A    between atoms: C_26  and  O_27
REMARK                            x       y       z     vdW  Elec       q    Type
REMARK                         _______ _______ _______ _____ _____    ______ ____
ROOT
ATOM      1  C   UNL     1       3.766   5.855  18.035  0.00  0.00    +0.000 A 
ATOM      2  C   UNL     1       3.674   4.857  19.017  0.00  0.00    +0.000 A 
ATOM      3  C   UNL     1       2.890   5.019  20.155  0.00  0.00    +0.000 A 
ATOM      4  C   UNL     1       2.171   6.192  20.365  0.00  0.00    +0.000 A 
ATOM      5  C   UNL     1       2.299   7.221  19.417  0.00  0.00    +0.000 A 
ATOM      6  C   UNL     1       3.095   7.076  18.278  0.00  0.00    +0.000 A 
ATOM      7  C   UNL     1       2.958   8.304  17.604  0.00  0.00    +0.000 A 
ATOM      8  N   UNL     1       2.168   9.171  18.235  0.00  0.00    +0.000 NA
ATOM      9  N   UNL     1       1.724   8.491  19.339  0.00  0.00    +0.000 N 
ATOM     10  C   UNL     1       0.763   9.084  20.208  0.00  0.00    +0.000 C 
ATOM     11  O   UNL     1       0.349   8.377  21.129  0.00  0.00    +0.000 OA
ENDROOT
BRANCH  10  12
ATOM     12  C   UNL     1       0.281  10.442  20.010  0.00  0.00    +0.000 A 
ATOM     13  C   UNL     1      -0.790  10.989  19.323  0.00  0.00    +0.000 A 
ATOM     14  C   UNL     1      -0.726  12.392  19.502  0.00  0.00    +0.000 A 
ATOM     15  C   UNL     1       0.374  12.625  20.290  0.00  0.00    +0.000 A 
ATOM     16  O   UNL     1       0.999  11.459  20.588  0.00  0.00    +0.000 OA
ENDBRANCH  10  12
BRANCH   1  19
ATOM     17  O   UNL     1       4.696   3.363  16.850  0.00  0.00    +0.000 OA
ATOM     18  C   UNL     1       4.922   4.458  16.337  0.00  0.00    +0.000 C 
ATOM     19  N   UNL     1       4.491   5.672  16.837  0.00  0.00    +0.000 N 
ATOM     20  H   UNL     1       4.625   6.477  16.231  0.00  0.00    +0.000 HD
BRANCH  18  21
ATOM     21  C   UNL     1       5.688   4.467  15.055  0.00  0.00    +0.000 A 
ATOM     22  C   UNL     1       5.146   3.709  14.001  0.00  0.00    +0.000 A 
ATOM     23  C   UNL     1       5.814   3.608  12.785  0.00  0.00    +0.000 A 
ATOM     24 CL   UNL     1       5.143   2.659  11.518  0.00  0.00    +0.000 Cl
ATOM     25  C   UNL     1       7.024   4.265  12.595  0.00  0.00    +0.000 A 
ATOM     26  C   UNL     1       7.569   5.036  13.625  0.00  0.00    +0.000 A 
ATOM     27  C   UNL     1       6.903   5.137  14.852  0.00  0.00    +0.000 A 
BRANCH  27  28
ATOM     28  O   UNL     1       7.460   5.899  15.846  0.00  0.00    +0.000 OA
ATOM     29  H   UNL     1       8.098   6.517  15.442  0.00  0.00    +0.000 HD
ENDBRANCH  27  28
ENDBRANCH  18  21
ENDBRANCH   1  19
TORSDOF 4
ENDMDL
MODEL 3
REMARK VINA RESULT:      -8.0      3.045      8.971
REMARK  Name = 
REMARK  4 active torsions:
REMARK  status: ('A' for Active; 'I' for Inactive)
REMARK    1  A    between atoms: C_2  and  C_20
REMARK    2  A    between atoms: N_3  and  C_4
REMARK    3  A    between atoms: C_13  and  C_15
REMARK    4  A    between atoms: C_26  and  O_27
REMARK                            x       y       z     vdW  Elec       q    Type
REMARK                         _______ _______ _______ _____ _____    ______ ____
ROOT
ATOM      1  C   UNL     1       1.831   7.139  20.103  0.00  0.00    +0.000 A 
ATOM      2  C   UNL     1       1.478   6.123  21.005  0.00  0.00    +0.000 A 
ATOM      3  C   UNL     1       1.996   4.836  20.899  0.00  0.00    +0.000 A 
ATOM      4  C   UNL     1       2.882   4.506  19.877  0.00  0.00    +0.000 A 
ATOM      5  C   UNL     1       3.200   5.499  18.934  0.00  0.00    +0.000 A 
ATOM      6  C   UNL     1       2.673   6.791  19.023  0.00  0.00    +0.000 A 
ATOM      7  C   UNL     1       3.222   7.462  17.913  0.00  0.00    +0.000 A 
ATOM      8  N   UNL     1       4.013   6.694  17.167  0.00  0.00    +0.000 NA
ATOM      9  N   UNL     1       4.036   5.488  17.816  0.00  0.00    +0.000 N 
ATOM     10  C   UNL     1       4.876   4.436  17.349  0.00  0.00    +0.000 C 
ATOM     11  O   UNL     1       4.906   3.414  18.036  0.00  0.00    +0.000 OA
ENDROOT
BRANCH  10  12
ATOM     12  C   UNL     1       5.671   4.568  16.138  0.00  0.00    +0.000 A 
ATOM     13  C   UNL     1       6.887   5.164  15.848  0.00  0.00    +0.000 A 
ATOM     14  C   UNL     1       7.134   4.957  14.469  0.00  0.00    +0.000 A 
ATOM     15  C   UNL     1       6.062   4.243  13.994  0.00  0.00    +0.000 A 
ATOM     16  O   UNL     1       5.164   4.019  14.986  0.00  0.00    +0.000 OA
ENDBRANCH  10  12
BRANCH   1  19
ATOM     17  O   UNL     1      -0.473   8.109  21.596  0.00  0.00    +0.000 OA
ATOM     18  C   UNL     1       0.259   8.863  20.958  0.00  0.00    +0.000 C 
ATOM     19  N   UNL     1       1.378   8.468  20.249  0.00  0.00    +0.000 N 
ATOM     20  H   UNL     1       1.968   9.217  19.894  0.00  0.00    +0.000 HD
BRANCH  18  21
ATOM     21  C   UNL     1      -0.066  10.320  20.988  0.00  0.00    +0.000 A 
ATOM     22  C   UNL     1      -0.116  10.972  19.742  0.00  0.00    +0.000 A 
ATOM     23  C   UNL     1      -0.355  12.340  19.668  0.00  0.00    +0.000 A 
ATOM     24 CL   UNL     1      -0.391  13.120  18.136  0.00  0.00    +0.000 Cl
ATOM     25  C   UNL     1      -0.558  13.079  20.828  0.00  0.00    +0.000 A 
ATOM     26  C   UNL     1      -0.530  12.445  22.073  0.00  0.00    +0.000 A 
ATOM     27  C   UNL     1      -0.285  11.069  22.153  0.00  0.00    +0.000 A 
BRANCH  27  28
ATOM     28  O   UNL     1      -0.260  10.473  23.386  0.00  0.00    +0.000 OA
ATOM     29  H   UNL     1      -0.831   9.683  23.361  0.00  0.00    +0.000 HD
ENDBRANCH  27  28
ENDBRANCH  18  21
ENDBRANCH   1  19
TORSDOF 4
ENDMDL
MODEL 4
REMARK VINA RESULT:      -7.9      3.564      8.700
REMARK  Name = 
REMARK  4 active torsions:
REMARK  status: ('A' for Active; 'I' for Inactive)
REMARK    1  A    between atoms: C_2  and  C_20
REMARK    2  A    between atoms: N_3  and  C_4
REMARK    3  A    between atoms: C_13  and  C_15
REMARK    4  A    between atoms: C_26  and  O_27
REMARK                            x       y       z     vdW  Elec       q    Type
REMARK                         _______ _______ _______ _____ _____    ______ ____
ROOT
ATOM      1  C   UNL     1       1.933   7.346  19.909  0.00  0.00    +0.000 A 
ATOM      2  C   UNL     1       1.354   6.350  20.710  0.00  0.00    +0.000 A 
ATOM      3  C   UNL     1       1.636   5.000  20.519  0.00  0.00    +0.000 A 
ATOM      4  C   UNL     1       2.503   4.589  19.510  0.00  0.00    +0.000 A 
ATOM      5  C   UNL     1       3.045   5.573  18.666  0.00  0.00    +0.000 A 
ATOM      6  C   UNL     1       2.757   6.929  18.839  0.00  0.00    +0.000 A 
ATOM      7  C   UNL     1       3.477   7.567  17.811  0.00  0.00    +0.000 A 
ATOM      8  N   UNL     1       4.156   6.724  17.036  0.00  0.00    +0.000 NA
ATOM      9  N   UNL     1       3.925   5.489  17.586  0.00  0.00    +0.000 N 
ATOM     10  C   UNL     1       4.586   4.338  17.068  0.00  0.00    +0.000 C 
ATOM     11  O   UNL     1       4.394   3.281  17.669  0.00  0.00    +0.000 OA
ENDROOT
BRANCH  10  12
ATOM     12  C   UNL     1       5.457   4.409  15.904  0.00  0.00    +0.000 A 
ATOM     13  C   UNL     1       5.284   4.131  14.558  0.00  0.00    +0.000 A 
ATOM     14  C   UNL     1       6.518   4.396  13.917  0.00  0.00    +0.000 A 
ATOM     15  C   UNL     1       7.374   4.825  14.901  0.00  0.00    +0.000 A 
ATOM     16  O   UNL     1       6.751   4.819  16.106  0.00  0.00    +0.000 OA
ENDBRANCH  10  12
BRANCH   1  19
ATOM     17  O   UNL     1       0.541   9.273  18.227  0.00  0.00    +0.000 OA
ATOM     18  C   UNL     1       1.065   9.591  19.293  0.00  0.00    +0.000 C 
ATOM     19  N   UNL     1       1.720   8.722  20.145  0.00  0.00    +0.000 N 
ATOM     20  H   UNL     1       1.972   9.097  21.056  0.00  0.00    +0.000 HD
BRANCH  18  21
ATOM     21  C   UNL     1       0.949  11.020  19.713  0.00  0.00    +0.000 A 
ATOM     22  C   UNL     1       0.233  11.263  20.900  0.00  0.00    +0.000 A 
ATOM     23  C   UNL     1       0.020  12.563  21.344  0.00  0.00    +0.000 A 
ATOM     24 CL   UNL     1      -0.875  12.838  22.786  0.00  0.00    +0.000 Cl
ATOM     25  C   UNL     1       0.523  13.640  20.623  0.00  0.00    +0.000 A 
ATOM     26  C   UNL     1       1.251  13.417  19.451  0.00  0.00    +0.000 A 
ATOM     27  C   UNL     1       1.463  12.110  18.997  0.00  0.00    +0.000 A 
BRANCH  27  28
ATOM     28  O   UNL     1       2.179  11.920  17.844  0.00  0.00    +0.000 OA
ATOM     29  H   UNL     1       2.799  11.180  17.982  0.00  0.00    +0.000 HD
ENDBRANCH  27  28
ENDBRANCH  18  21
ENDBRANCH   1  19
TORSDOF 4
ENDMDL
MODEL 5
REMARK VINA RESULT:      -7.7      3.659      9.095
REMARK  Name = 
REMARK  4 active torsions:
REMARK  status: ('A' for Active; 'I' for Inactive)
REMARK    1  A    between atoms: C_2  and  C_20
REMARK    2  A    between atoms: N_3  and  C_4
REMARK    3  A    between atoms: C_13  and  C_15
REMARK    4  A    between atoms: C_26  and  O_27
REMARK                            x       y       z     vdW  Elec       q    Type
REMARK                         _______ _______ _______ _____ _____    ______ ____
ROOT
ATOM      1  C   UNL     1       1.849   7.449  19.931  0.00  0.00    +0.000 A 
ATOM      2  C   UNL     1       1.457   6.496  20.883  0.00  0.00    +0.000 A 
ATOM      3  C   UNL     1       1.943   5.193  20.858  0.00  0.00    +0.000 A 
ATOM      4  C   UNL     1       2.835   4.783  19.871  0.00  0.00    +0.000 A 
ATOM      5  C   UNL     1       3.192   5.712  18.880  0.00  0.00    +0.000 A 
ATOM      6  C   UNL     1       2.698   7.020  18.886  0.00  0.00    +0.000 A 
ATOM      7  C   UNL     1       3.280   7.613  17.749  0.00  0.00    +0.000 A 
ATOM      8  N   UNL     1       4.062   6.784  17.061  0.00  0.00    +0.000 NA
ATOM      9  N   UNL     1       4.044   5.616  17.778  0.00  0.00    +0.000 N 
ATOM     10  C   UNL     1       4.864   4.519  17.385  0.00  0.00    +0.000 C 
ATOM     11  O   UNL     1       4.857   3.538  18.129  0.00  0.00    +0.000 OA
ENDROOT
BRANCH  10  12
ATOM     12  C   UNL     1       5.680   4.561  16.181  0.00  0.00    +0.000 A 
ATOM     13  C   UNL     1       6.951   5.035  15.899  0.00  0.00    +0.000 A 
ATOM     14  C   UNL     1       7.190   4.791  14.525  0.00  0.00    +0.000 A 
ATOM     15  C   UNL     1       6.059   4.180  14.045  0.00  0.00    +0.000 A 
ATOM     16  O   UNL     1       5.135   4.052  15.029  0.00  0.00    +0.000 OA
ENDBRANCH  10  12
BRANCH   1  19
ATOM     17  O   UNL     1      -0.378   8.579  21.430  0.00  0.00    +0.000 OA
ATOM     18  C   UNL     1       0.345   9.267  20.711  0.00  0.00    +0.000 C 
ATOM     19  N   UNL     1       1.428   8.796  19.993  0.00  0.00    +0.000 N 
ATOM     20  H   UNL     1       2.019   9.503  19.563  0.00  0.00    +0.000 HD
BRANCH  18  21
ATOM     21  C   UNL     1       0.050  10.730  20.644  0.00  0.00    +0.000 A 
ATOM     22  C   UNL     1      -0.350  11.339  21.848  0.00  0.00    +0.000 A 
ATOM     23  C   UNL     1      -0.702  12.685  21.877  0.00  0.00    +0.000 A 
ATOM     24 CL   UNL     1      -1.207  13.404  23.354  0.00  0.00    +0.000 Cl
ATOM     25  C   UNL     1      -0.652  13.446  20.714  0.00  0.00    +0.000 A 
ATOM     26  C   UNL     1      -0.241  12.861  19.514  0.00  0.00    +0.000 A 
ATOM     27  C   UNL     1       0.109  11.507  19.479  0.00  0.00    +0.000 A 
BRANCH  27  28
ATOM     28  O   UNL     1       0.507  10.958  18.288  0.00  0.00    +0.000 OA
ATOM     29  H   UNL     1      -0.281  10.622  17.822  0.00  0.00    +0.000 HD
ENDBRANCH  27  28
ENDBRANCH  18  21
ENDBRANCH   1  19
TORSDOF 4
ENDMDL
MODEL 6
REMARK VINA RESULT:      -7.7      3.222      8.519
REMARK  Name = 
REMARK  4 active torsions:
REMARK  status: ('A' for Active; 'I' for Inactive)
REMARK    1  A    between atoms: C_2  and  C_20
REMARK    2  A    between atoms: N_3  and  C_4
REMARK    3  A    between atoms: C_13  and  C_15
REMARK    4  A    between atoms: C_26  and  O_27
REMARK                            x       y       z     vdW  Elec       q    Type
REMARK                         _______ _______ _______ _____ _____    ______ ____
ROOT
ATOM      1  C   UNL     1       2.976   6.269  18.887  0.00  0.00    +0.000 A 
ATOM      2  C   UNL     1       2.637   5.095  19.576  0.00  0.00    +0.000 A 
ATOM      3  C   UNL     1       3.121   3.850  19.185  0.00  0.00    +0.000 A 
ATOM      4  C   UNL     1       3.958   3.726  18.079  0.00  0.00    +0.000 A 
ATOM      5  C   UNL     1       4.260   4.887  17.348  0.00  0.00    +0.000 A 
ATOM      6  C   UNL     1       3.767   6.140  17.723  0.00  0.00    +0.000 A 
ATOM      7  C   UNL     1       4.286   7.017  16.752  0.00  0.00    +0.000 A 
ATOM      8  N   UNL     1       5.029   6.409  15.830  0.00  0.00    +0.000 NA
ATOM      9  N   UNL     1       5.051   5.094  16.216  0.00  0.00    +0.000 N 
ATOM     10  C   UNL     1       5.848   4.150  15.507  0.00  0.00    +0.000 C 
ATOM     11  O   UNL     1       5.882   3.008  15.967  0.00  0.00    +0.000 OA
ENDROOT
BRANCH  10  12
ATOM     12  C   UNL     1       6.597   4.517  14.315  0.00  0.00    +0.000 A 
ATOM     13  C   UNL     1       6.496   4.177  12.976  0.00  0.00    +0.000 A 
ATOM     14  C   UNL     1       7.529   4.864  12.293  0.00  0.00    +0.000 A 
ATOM     15  C   UNL     1       8.199   5.588  13.248  0.00  0.00    +0.000 A 
ATOM     16  O   UNL     1       7.658   5.373  14.473  0.00  0.00    +0.000 OA
ENDBRANCH  10  12
BRANCH   1  19
ATOM     17  O   UNL     1       1.225   8.158  17.528  0.00  0.00    +0.000 OA
ATOM     18  C   UNL     1       1.739   8.406  18.617  0.00  0.00    +0.000 C 
ATOM     19  N   UNL     1       2.559   7.546  19.322  0.00  0.00    +0.000 N 
ATOM     20  H   UNL     1       2.789   7.828  20.272  0.00  0.00    +0.000 HD
BRANCH  18  21
ATOM     21  C   UNL     1       1.416   9.725  19.240  0.00  0.00    +0.000 A 
ATOM     22  C   UNL     1       0.805   9.682  20.506  0.00  0.00    +0.000 A 
ATOM     23  C   UNL     1       0.414  10.855  21.144  0.00  0.00    +0.000 A 
ATOM     24 CL   UNL     1      -0.350  10.778  22.682  0.00  0.00    +0.000 Cl
ATOM     25  C   UNL     1       0.634  12.088  20.538  0.00  0.00    +0.000 A 
ATOM     26  C   UNL     1       1.256  12.150  19.289  0.00  0.00    +0.000 A 
ATOM     27  C   UNL     1       1.646  10.972  18.641  0.00  0.00    +0.000 A 
BRANCH  27  28
ATOM     28  O   UNL     1       2.253  11.062  17.415  0.00  0.00    +0.000 OA
ATOM     29  H   UNL     1       2.520  11.988  17.268  0.00  0.00    +0.000 HD
ENDBRANCH  27  28
ENDBRANCH  18  21
ENDBRANCH   1  19
TORSDOF 4
ENDMDL
MODEL 7
REMARK VINA RESULT:      -7.7      5.762     10.513
REMARK  Name = 
REMARK  4 active torsions:
REMARK  status: ('A' for Active; 'I' for Inactive)
REMARK    1  A    between atoms: C_2  and  C_20
REMARK    2  A    between atoms: N_3  and  C_4
REMARK    3  A    between atoms: C_13  and  C_15
REMARK    4  A    between atoms: C_26  and  O_27
REMARK                            x       y       z     vdW  Elec       q    Type
REMARK                         _______ _______ _______ _____ _____    ______ ____
ROOT
ATOM      1  C   UNL     1       0.960  10.512  20.133  0.00  0.00    +0.000 A 
ATOM      2  C   UNL     1       1.357  11.037  18.894  0.00  0.00    +0.000 A 
ATOM      3  C   UNL     1       1.900  10.232  17.897  0.00  0.00    +0.000 A 
ATOM      4  C   UNL     1       2.078   8.867  18.102  0.00  0.00    +0.000 A 
ATOM      5  C   UNL     1       1.736   8.339  19.358  0.00  0.00    +0.000 A 
ATOM      6  C   UNL     1       1.204   9.140  20.372  0.00  0.00    +0.000 A 
ATOM      7  C   UNL     1       1.006   8.251  21.445  0.00  0.00    +0.000 A 
ATOM      8  N   UNL     1       1.378   7.001  21.174  0.00  0.00    +0.000 NA
ATOM      9  N   UNL     1       1.794   7.040  19.868  0.00  0.00    +0.000 N 
ATOM     10  C   UNL     1       2.174   5.841  19.200  0.00  0.00    +0.000 C 
ATOM     11  O   UNL     1       2.452   5.947  18.004  0.00  0.00    +0.000 OA
ENDROOT
BRANCH  10  12
ATOM     12  C   UNL     1       2.214   4.558  19.885  0.00  0.00    +0.000 A 
ATOM     13  C   UNL     1       1.265   3.788  20.536  0.00  0.00    +0.000 A 
ATOM     14  C   UNL     1       1.923   2.627  21.008  0.00  0.00    +0.000 A 
ATOM     15  C   UNL     1       3.234   2.747  20.616  0.00  0.00    +0.000 A 
ATOM     16  O   UNL     1       3.425   3.916  19.954  0.00  0.00    +0.000 OA
ENDBRANCH  10  12
BRANCH   1  19
ATOM     17  O   UNL     1      -1.755  11.565  20.149  0.00  0.00    +0.000 OA
ATOM     18  C   UNL     1      -0.959  11.789  21.059  0.00  0.00    +0.000 C 
ATOM     19  N   UNL     1       0.332  11.302  21.121  0.00  0.00    +0.000 N 
ATOM     20  H   UNL     1       0.822  11.447  22.001  0.00  0.00    +0.000 HD
BRANCH  18  21
ATOM     21  C   UNL     1      -1.444  12.620  22.203  0.00  0.00    +0.000 A 
ATOM     22  C   UNL     1      -2.724  12.309  22.698  0.00  0.00    +0.000 A 
ATOM     23  C   UNL     1      -3.288  13.061  23.724  0.00  0.00    +0.000 A 
ATOM     24 CL   UNL     1      -4.861  12.677  24.300  0.00  0.00    +0.000 Cl
ATOM     25  C   UNL     1      -2.586  14.125  24.278  0.00  0.00    +0.000 A 
ATOM     26  C   UNL     1      -1.307  14.437  23.810  0.00  0.00    +0.000 A 
ATOM     27  C   UNL     1      -0.737  13.686  22.775  0.00  0.00    +0.000 A 
BRANCH  27  28
ATOM     28  O   UNL     1       0.518  14.015  22.334  0.00  0.00    +0.000 OA
ATOM     29  H   UNL     1       0.441  14.750  21.698  0.00  0.00    +0.000 HD
ENDBRANCH  27  28
ENDBRANCH  18  21
ENDBRANCH   1  19
TORSDOF 4
ENDMDL
MODEL 8
REMARK VINA RESULT:      -7.6      3.564      8.799
REMARK  Name = 
REMARK  4 active torsions:
REMARK  status: ('A' for Active; 'I' for Inactive)
REMARK    1  A    between atoms: C_2  and  C_20
REMARK    2  A    between atoms: N_3  and  C_4
REMARK    3  A    between atoms: C_13  and  C_15
REMARK    4  A    between atoms: C_26  and  O_27
REMARK                            x       y       z     vdW  Elec       q    Type
REMARK                         _______ _______ _______ _____ _____    ______ ____
ROOT
ATOM      1  C   UNL     1       1.780   7.977  19.799  0.00  0.00    +0.000 A 
ATOM      2  C   UNL     1       1.247   7.092  20.748  0.00  0.00    +0.000 A 
ATOM      3  C   UNL     1       1.606   5.748  20.780  0.00  0.00    +0.000 A 
ATOM      4  C   UNL     1       2.507   5.229  19.854  0.00  0.00    +0.000 A 
ATOM      5  C   UNL     1       3.005   6.093  18.864  0.00  0.00    +0.000 A 
ATOM      6  C   UNL     1       2.639   7.441  18.813  0.00  0.00    +0.000 A 
ATOM      7  C   UNL     1       3.336   7.944  17.699  0.00  0.00    +0.000 A 
ATOM      8  N   UNL     1       4.072   7.027  17.074  0.00  0.00    +0.000 NA
ATOM      9  N   UNL     1       3.903   5.886  17.815  0.00  0.00    +0.000 N 
ATOM     10  C   UNL     1       4.634   4.706  17.493  0.00  0.00    +0.000 C 
ATOM     11  O   UNL     1       4.492   3.750  18.257  0.00  0.00    +0.000 OA
ENDROOT
BRANCH  10  12
ATOM     12  C   UNL     1       5.514   4.638  16.337  0.00  0.00    +0.000 A 
ATOM     13  C   UNL     1       6.844   4.962  16.123  0.00  0.00    +0.000 A 
ATOM     14  C   UNL     1       7.129   4.671  14.767  0.00  0.00    +0.000 A 
ATOM     15  C   UNL     1       5.965   4.182  14.229  0.00  0.00    +0.000 A 
ATOM     16  O   UNL     1       4.979   4.174  15.161  0.00  0.00    +0.000 OA
ENDBRANCH  10  12
BRANCH   1  19
ATOM     17  O   UNL     1       0.184   9.498  17.896  0.00  0.00    +0.000 OA
ATOM     18  C   UNL     1       0.736  10.027  18.859  0.00  0.00    +0.000 C 
ATOM     19  N   UNL     1       1.487   9.358  19.808  0.00  0.00    +0.000 N 
ATOM     20  H   UNL     1       1.758   9.900  20.625  0.00  0.00    +0.000 HD
BRANCH  18  21
ATOM     21  C   UNL     1       0.545  11.498  19.035  0.00  0.00    +0.000 A 
ATOM     22  C   UNL     1       1.436  12.140  19.915  0.00  0.00    +0.000 A 
ATOM     23  C   UNL     1       1.304  13.498  20.189  0.00  0.00    +0.000 A 
ATOM     24 CL   UNL     1       2.390  14.258  21.283  0.00  0.00    +0.000 Cl
ATOM     25  C   UNL     1       0.294  14.238  19.586  0.00  0.00    +0.000 A 
ATOM     26  C   UNL     1      -0.589  13.621  18.696  0.00  0.00    +0.000 A 
ATOM     27  C   UNL     1      -0.463  12.254  18.421  0.00  0.00    +0.000 A 
BRANCH  27  28
ATOM     28  O   UNL     1      -1.343  11.673  17.545  0.00  0.00    +0.000 OA
ATOM     29  H   UNL     1      -1.149  12.000  16.647  0.00  0.00    +0.000 HD
ENDBRANCH  27  28
ENDBRANCH  18  21
ENDBRANCH   1  19
TORSDOF 4
ENDMDL
MODEL 9
REMARK VINA RESULT:      -7.6      2.983      8.940
REMARK  Name = 
REMARK  4 active torsions:
REMARK  status: ('A' for Active; 'I' for Inactive)
REMARK    1  A    between atoms: C_2  and  C_20
REMARK    2  A    between atoms: N_3  and  C_4
REMARK    3  A    between atoms: C_13  and  C_15
REMARK    4  A    between atoms: C_26  and  O_27
REMARK                            x       y       z     vdW  Elec       q    Type
REMARK                         _______ _______ _______ _____ _____    ______ ____
ROOT
ATOM      1  C   UNL     1       1.775   7.328  20.028  0.00  0.00    +0.000 A 
ATOM      2  C   UNL     1       1.406   6.356  20.971  0.00  0.00    +0.000 A 
ATOM      3  C   UNL     1       1.907   5.059  20.920  0.00  0.00    +0.000 A 
ATOM      4  C   UNL     1       2.792   4.675  19.917  0.00  0.00    +0.000 A 
ATOM      5  C   UNL     1       3.126   5.623  18.935  0.00  0.00    +0.000 A 
ATOM      6  C   UNL     1       2.617   6.924  18.966  0.00  0.00    +0.000 A 
ATOM      7  C   UNL     1       3.178   7.540  17.832  0.00  0.00    +0.000 A 
ATOM      8  N   UNL     1       3.961   6.731  17.122  0.00  0.00    +0.000 NA
ATOM      9  N   UNL     1       3.966   5.553  17.822  0.00  0.00    +0.000 N 
ATOM     10  C   UNL     1       4.794   4.471  17.403  0.00  0.00    +0.000 C 
ATOM     11  O   UNL     1       4.807   3.479  18.132  0.00  0.00    +0.000 OA
ENDROOT
BRANCH  10  12
ATOM     12  C   UNL     1       5.594   4.541  16.190  0.00  0.00    +0.000 A 
ATOM     13  C   UNL     1       5.366   4.195  14.868  0.00  0.00    +0.000 A 
ATOM     14  C   UNL     1       6.546   4.501  14.148  0.00  0.00    +0.000 A 
ATOM     15  C   UNL     1       7.427   5.020  15.065  0.00  0.00    +0.000 A 
ATOM     16  O   UNL     1       6.871   5.032  16.302  0.00  0.00    +0.000 OA
ENDBRANCH  10  12
BRANCH   1  19
ATOM     17  O   UNL     1       1.251   8.905  22.419  0.00  0.00    +0.000 OA
ATOM     18  C   UNL     1       1.089   9.357  21.287  0.00  0.00    +0.000 C 
ATOM     19  N   UNL     1       1.340   8.668  20.115  0.00  0.00    +0.000 N 
ATOM     20  H   UNL     1       1.301   9.216  19.259  0.00  0.00    +0.000 HD
BRANCH  18  21
ATOM     21  C   UNL     1       0.622  10.771  21.175  0.00  0.00    +0.000 A 
ATOM     22  C   UNL     1       1.007  11.464  20.013  0.00  0.00    +0.000 A 
ATOM     23  C   UNL     1       0.670  12.802  19.842  0.00  0.00    +0.000 A 
ATOM     24 CL   UNL     1       1.169  13.635  18.423  0.00  0.00    +0.000 Cl
ATOM     25  C   UNL     1      -0.062  13.470  20.817  0.00  0.00    +0.000 A 
ATOM     26  C   UNL     1      -0.468  12.793  21.970  0.00  0.00    +0.000 A 
ATOM     27  C   UNL     1      -0.127  11.447  22.149  0.00  0.00    +0.000 A 
BRANCH  27  28
ATOM     28  O   UNL     1      -0.537  10.808  23.290  0.00  0.00    +0.000 OA
ATOM     29  H   UNL     1      -1.496  10.643  23.226  0.00  0.00    +0.000 HD
ENDBRANCH  27  28
ENDBRANCH  18  21
ENDBRANCH   1  19
TORSDOF 4
ENDMDL
