MODEL 1
REMARK VINA RESULT:      -7.8      0.000      0.000
REMARK  Name = 
REMARK  10 active torsions:
REMARK  status: ('A' for Active; 'I' for Inactive)
REMARK    1  A    between atoms: C_1  and  C_2
REMARK    2  A    between atoms: C_2  and  C_3
REMARK    3  A    between atoms: C_3  and  C_4
REMARK    4  A    between atoms: C_4  and  N_5
REMARK    5  A    between atoms: C_7  and  C_8
REMARK    6  A    between atoms: C_8  and  O_9
REMARK    7  A    between atoms: O_9  and  C_10
REMARK    8  A    between atoms: C_10  and  C_11
REMARK    9  A    between atoms: C_22  and  O_23
REMARK   10  A    between atoms: O_23  and  C_24
REMARK                            x       y       z     vdW  Elec       q    Type
REMARK                         _______ _______ _______ _____ _____    ______ ____
ROOT
ATOM      1  N   UNL     1      -0.113  13.694  19.982  0.00  0.00    +0.000 NA
ATOM      2  C   UNL     1      -0.632  14.270  21.250  0.00  0.00    +0.000 C 
ATOM      3  C   UNL     1      -1.377  13.284  22.135  0.00  0.00    +0.000 C 
ATOM      4  O   UNL     1      -0.419  12.441  22.784  0.00  0.00    +0.000 OA
ATOM      5  C   UNL     1      -0.243  11.232  22.187  0.00  0.00    +0.000 A 
ATOM      6  C   UNL     1      -0.678  10.155  22.968  0.00  0.00    +0.000 A 
ATOM      7  C   UNL     1      -0.536   8.859  22.513  0.00  0.00    +0.000 A 
ATOM      8  C   UNL     1       0.080   8.643  21.288  0.00  0.00    +0.000 A 
ATOM      9  C   UNL     1       0.493   9.717  20.465  0.00  0.00    +0.000 A 
ATOM     10  C   UNL     1       0.346  11.038  20.934  0.00  0.00    +0.000 A 
ATOM     11  S   UNL     1       1.065  12.425  20.082  0.00  0.00    +0.000 S 
ATOM     12  O   UNL     1       1.306  12.044  18.705  0.00  0.00    +0.000 OA
ATOM     13  O   UNL     1       2.150  12.902  20.909  0.00  0.00    +0.000 OA
ENDROOT
BRANCH   1  14
ATOM     14  C   UNL     1       0.295  14.804  19.026  0.00  0.00    +0.000 C 
BRANCH  14  15
ATOM     15  C   UNL     1      -0.089  16.208  19.520  0.00  0.00    +0.000 C 
BRANCH  15  17
ATOM     16  C   UNL     1      -1.951  17.784  18.909  0.00  0.00    +0.000 C 
ATOM     17  C   UNL     1      -0.681  17.094  18.421  0.00  0.00    +0.000 C 
ENDBRANCH  15  17
ENDBRANCH  14  15
ENDBRANCH   1  14
BRANCH   3  18
ATOM     18  C   UNL     1      -2.595  12.611  21.457  0.00  0.00    +0.000 C 
BRANCH  18  19
ATOM     19  O   UNL     1      -2.666  12.812  20.040  0.00  0.00    +0.000 OA
BRANCH  19  20
ATOM     20  C   UNL     1      -3.798  12.211  19.415  0.00  0.00    +0.000 C 
BRANCH  20  21
ATOM     21  C   UNL     1      -3.399  11.457  18.170  0.00  0.00    +0.000 A 
ATOM     22  C   UNL     1      -2.244  10.660  18.198  0.00  0.00    +0.000 A 
ATOM     23  C   UNL     1      -1.857   9.924  17.078  0.00  0.00    +0.000 A 
ATOM     24  C   UNL     1      -2.627   9.969  15.918  0.00  0.00    +0.000 A 
ATOM     25  C   UNL     1      -3.782  10.751  15.879  0.00  0.00    +0.000 A 
ATOM     26  C   UNL     1      -4.168  11.488  17.000  0.00  0.00    +0.000 A 
ENDBRANCH  20  21
ENDBRANCH  19  20
ENDBRANCH  18  19
ENDBRANCH   3  18
BRANCH   9  27
ATOM     27  O   UNL     1       1.089   9.472  19.236  0.00  0.00    +0.000 OA
BRANCH  27  28
ATOM     28  C   UNL     1       1.815   8.307  19.087  0.00  0.00    +0.000 A 
ATOM     29  C   UNL     1       1.895   7.349  20.106  0.00  0.00    +0.000 A 
ATOM     30  C   UNL     1       2.782   6.279  19.985  0.00  0.00    +0.000 A 
ATOM     31  C   UNL     1       3.524   6.136  18.817  0.00  0.00    +0.000 A 
ATOM     32  F   UNL     1       4.401   5.129  18.717  0.00  0.00    +0.000 F 
ATOM     33  C   UNL     1       3.375   7.028  17.762  0.00  0.00    +0.000 A 
ATOM     34  C   UNL     1       2.515   8.121  17.892  0.00  0.00    +0.000 A 
ENDBRANCH  27  28
ENDBRANCH   9  27
TORSDOF 9
ENDMDL
MODEL 2
REMARK VINA RESULT:      -7.4      1.366      2.049
REMARK  Name = 
REMARK  10 active torsions:
REMARK  status: ('A' for Active; 'I' for Inactive)
REMARK    1  A    between atoms: C_1  and  C_2
REMARK    2  A    between atoms: C_2  and  C_3
REMARK    3  A    between atoms: C_3  and  C_4
REMARK    4  A    between atoms: C_4  and  N_5
REMARK    5  A    between atoms: C_7  and  C_8
REMARK    6  A    between atoms: C_8  and  O_9
REMARK    7  A    between atoms: O_9  and  C_10
REMARK    8  A    between atoms: C_10  and  C_11
REMARK    9  A    between atoms: C_22  and  O_23
REMARK   10  A    between atoms: O_23  and  C_24
REMARK                            x       y       z     vdW  Elec       q    Type
REMARK                         _______ _______ _______ _____ _____    ______ ____
ROOT
ATOM      1  N   UNL     1      -0.158  13.637  19.940  0.00  0.00    +0.000 NA
ATOM      2  C   UNL     1      -0.605  14.234  21.226  0.00  0.00    +0.000 C 
ATOM      3  C   UNL     1      -1.322  13.270  22.156  0.00  0.00    +0.000 C 
ATOM      4  O   UNL     1      -0.348  12.416  22.766  0.00  0.00    +0.000 OA
ATOM      5  C   UNL     1      -0.221  11.199  22.174  0.00  0.00    +0.000 A 
ATOM      6  C   UNL     1      -0.636  10.137  22.987  0.00  0.00    +0.000 A 
ATOM      7  C   UNL     1      -0.538   8.834  22.539  0.00  0.00    +0.000 A 
ATOM      8  C   UNL     1       0.014   8.596  21.288  0.00  0.00    +0.000 A 
ATOM      9  C   UNL     1       0.404   9.655  20.434  0.00  0.00    +0.000 A 
ATOM     10  C   UNL     1       0.302  10.983  20.896  0.00  0.00    +0.000 A 
ATOM     11  S   UNL     1       1.001  12.349  19.996  0.00  0.00    +0.000 S 
ATOM     12  O   UNL     1       1.169  11.951  18.613  0.00  0.00    +0.000 OA
ATOM     13  O   UNL     1       2.133  12.815  20.764  0.00  0.00    +0.000 OA
ENDROOT
BRANCH   1  14
ATOM     14  C   UNL     1       0.222  14.731  18.954  0.00  0.00    +0.000 C 
BRANCH  14  15
ATOM     15  C   UNL     1      -0.174  16.141  19.423  0.00  0.00    +0.000 C 
BRANCH  15  17
ATOM     16  C   UNL     1      -1.843  17.882  18.715  0.00  0.00    +0.000 C 
ATOM     17  C   UNL     1      -0.642  17.047  18.282  0.00  0.00    +0.000 C 
ENDBRANCH  15  17
ENDBRANCH  14  15
ENDBRANCH   1  14
BRANCH   3  18
ATOM     18  C   UNL     1      -2.583  12.612  21.545  0.00  0.00    +0.000 C 
BRANCH  18  19
ATOM     19  O   UNL     1      -3.362  13.485  20.719  0.00  0.00    +0.000 OA
BRANCH  19  20
ATOM     20  C   UNL     1      -4.754  13.501  21.024  0.00  0.00    +0.000 C 
BRANCH  20  21
ATOM     21  C   UNL     1      -5.501  12.458  20.231  0.00  0.00    +0.000 A 
ATOM     22  C   UNL     1      -5.051  12.130  18.943  0.00  0.00    +0.000 A 
ATOM     23  C   UNL     1      -5.695  11.150  18.188  0.00  0.00    +0.000 A 
ATOM     24  C   UNL     1      -6.794  10.478  18.717  0.00  0.00    +0.000 A 
ATOM     25  C   UNL     1      -7.247  10.787  20.000  0.00  0.00    +0.000 A 
ATOM     26  C   UNL     1      -6.603  11.769  20.754  0.00  0.00    +0.000 A 
ENDBRANCH  20  21
ENDBRANCH  19  20
ENDBRANCH  18  19
ENDBRANCH   3  18
BRANCH   9  27
ATOM     27  O   UNL     1       0.935   9.388  19.181  0.00  0.00    +0.000 OA
BRANCH  27  28
ATOM     28  C   UNL     1       1.843   8.354  19.067  0.00  0.00    +0.000 A 
ATOM     29  C   UNL     1       2.672   8.217  17.946  0.00  0.00    +0.000 A 
ATOM     30  C   UNL     1       3.439   7.063  17.787  0.00  0.00    +0.000 A 
ATOM     31  C   UNL     1       3.428   6.093  18.783  0.00  0.00    +0.000 A 
ATOM     32  F   UNL     1       4.138   4.969  18.612  0.00  0.00    +0.000 F 
ATOM     33  C   UNL     1       2.684   6.268  19.944  0.00  0.00    +0.000 A 
ATOM     34  C   UNL     1       1.886   7.406  20.092  0.00  0.00    +0.000 A 
ENDBRANCH  27  28
ENDBRANCH   9  27
TORSDOF 9
ENDMDL
MODEL 3
REMARK VINA RESULT:      -7.3      7.935     10.583
REMARK  Name = 
REMARK  10 active torsions:
REMARK  status: ('A' for Active; 'I' for Inactive)
REMARK    1  A    between atoms: C_1  and  C_2
REMARK    2  A    between atoms: C_2  and  C_3
REMARK    3  A    between atoms: C_3  and  C_4
REMARK    4  A    between atoms: C_4  and  N_5
REMARK    5  A    between atoms: C_7  and  C_8
REMARK    6  A    between atoms: C_8  and  O_9
REMARK    7  A    between atoms: O_9  and  C_10
REMARK    8  A    between atoms: C_10  and  C_11
REMARK    9  A    between atoms: C_22  and  O_23
REMARK   10  A    between atoms: O_23  and  C_24
REMARK                            x       y       z     vdW  Elec       q    Type
REMARK                         _______ _______ _______ _____ _____    ______ ____
ROOT
ATOM      1  N   UNL     1       9.255  11.731  18.602  0.00  0.00    +0.000 NA
ATOM      2  C   UNL     1       9.473  12.742  17.534  0.00  0.00    +0.000 C 
ATOM      3  C   UNL     1       9.059  14.156  17.907  0.00  0.00    +0.000 C 
ATOM      4  O   UNL     1      10.053  14.706  18.779  0.00  0.00    +0.000 OA
ATOM      5  C   UNL     1       9.736  14.642  20.099  0.00  0.00    +0.000 A 
ATOM      6  C   UNL     1       9.532  15.897  20.686  0.00  0.00    +0.000 A 
ATOM      7  C   UNL     1       9.235  15.999  22.031  0.00  0.00    +0.000 A 
ATOM      8  C   UNL     1       9.182  14.842  22.795  0.00  0.00    +0.000 A 
ATOM      9  C   UNL     1       9.347  13.561  22.217  0.00  0.00    +0.000 A 
ATOM     10  C   UNL     1       9.650  13.462  20.844  0.00  0.00    +0.000 A 
ATOM     11  S   UNL     1      10.121  11.919  20.093  0.00  0.00    +0.000 S 
ATOM     12  O   UNL     1       9.643  10.836  20.929  0.00  0.00    +0.000 OA
ATOM     13  O   UNL     1      11.526  12.028  19.770  0.00  0.00    +0.000 OA
ENDROOT
BRANCH   1  14
ATOM     14  C   UNL     1       9.362  10.327  18.030  0.00  0.00    +0.000 C 
BRANCH  14  15
ATOM     15  C   UNL     1       8.194   9.412  18.433  0.00  0.00    +0.000 C 
BRANCH  15  17
ATOM     16  C   UNL     1       7.796   6.947  18.143  0.00  0.00    +0.000 C 
ATOM     17  C   UNL     1       7.933   8.288  17.429  0.00  0.00    +0.000 C 
ENDBRANCH  15  17
ENDBRANCH  14  15
ENDBRANCH   1  14
BRANCH   3  18
ATOM     18  C   UNL     1       7.574  14.301  18.317  0.00  0.00    +0.000 C 
BRANCH  18  19
ATOM     19  O   UNL     1       7.060  15.634  18.209  0.00  0.00    +0.000 OA
BRANCH  19  20
ATOM     20  C   UNL     1       5.739  15.802  18.719  0.00  0.00    +0.000 C 
BRANCH  20  21
ATOM     21  C   UNL     1       5.756  16.069  20.203  0.00  0.00    +0.000 A 
ATOM     22  C   UNL     1       5.941  17.385  20.656  0.00  0.00    +0.000 A 
ATOM     23  C   UNL     1       5.933  17.679  22.020  0.00  0.00    +0.000 A 
ATOM     24  C   UNL     1       5.730  16.660  22.948  0.00  0.00    +0.000 A 
ATOM     25  C   UNL     1       5.536  15.349  22.511  0.00  0.00    +0.000 A 
ATOM     26  C   UNL     1       5.545  15.055  21.147  0.00  0.00    +0.000 A 
ENDBRANCH  20  21
ENDBRANCH  19  20
ENDBRANCH  18  19
ENDBRANCH   3  18
BRANCH   9  27
ATOM     27  O   UNL     1       9.270  12.420  23.001  0.00  0.00    +0.000 OA
BRANCH  27  28
ATOM     28  C   UNL     1       8.162  12.262  23.811  0.00  0.00    +0.000 A 
ATOM     29  C   UNL     1       8.246  12.350  25.206  0.00  0.00    +0.000 A 
ATOM     30  C   UNL     1       7.146  12.004  25.990  0.00  0.00    +0.000 A 
ATOM     31  C   UNL     1       5.952  11.645  25.373  0.00  0.00    +0.000 A 
ATOM     32  F   UNL     1       4.908  11.278  26.128  0.00  0.00    +0.000 F 
ATOM     33  C   UNL     1       5.833  11.652  23.989  0.00  0.00    +0.000 A 
ATOM     34  C   UNL     1       6.942  11.964  23.198  0.00  0.00    +0.000 A 
ENDBRANCH  27  28
ENDBRANCH   9  27
TORSDOF 9
ENDMDL
MODEL 4
REMARK VINA RESULT:      -7.3      3.249      7.008
REMARK  Name = 
REMARK  10 active torsions:
REMARK  status: ('A' for Active; 'I' for Inactive)
REMARK    1  A    between atoms: C_1  and  C_2
REMARK    2  A    between atoms: C_2  and  C_3
REMARK    3  A    between atoms: C_3  and  C_4
REMARK    4  A    between atoms: C_4  and  N_5
REMARK    5  A    between atoms: C_7  and  C_8
REMARK    6  A    between atoms: C_8  and  O_9
REMARK    7  A    between atoms: O_9  and  C_10
REMARK    8  A    between atoms: C_10  and  C_11
REMARK    9  A    between atoms: C_22  and  O_23
REMARK   10  A    between atoms: O_23  and  C_24
REMARK                            x       y       z     vdW  Elec       q    Type
REMARK                         _______ _______ _______ _____ _____    ______ ____
ROOT
ATOM      1  N   UNL     1       0.133  12.834  20.810  0.00  0.00    +0.000 NA
ATOM      2  C   UNL     1       1.185  11.877  20.377  0.00  0.00    +0.000 C 
ATOM      3  C   UNL     1       0.659  10.541  19.880  0.00  0.00    +0.000 C 
ATOM      4  O   UNL     1       0.129  10.721  18.563  0.00  0.00    +0.000 OA
ATOM      5  C   UNL     1      -1.221  10.871  18.518  0.00  0.00    +0.000 A 
ATOM      6  C   UNL     1      -1.879   9.813  17.879  0.00  0.00    +0.000 A 
ATOM      7  C   UNL     1      -3.251   9.834  17.726  0.00  0.00    +0.000 A 
ATOM      8  C   UNL     1      -3.959  10.938  18.179  0.00  0.00    +0.000 A 
ATOM      9  C   UNL     1      -3.321  12.001  18.860  0.00  0.00    +0.000 A 
ATOM     10  C   UNL     1      -1.920  11.975  19.015  0.00  0.00    +0.000 A 
ATOM     11  S   UNL     1      -1.014  13.378  19.628  0.00  0.00    +0.000 S 
ATOM     12  O   UNL     1      -1.925  14.226  20.370  0.00  0.00    +0.000 OA
ATOM     13  O   UNL     1      -0.267  13.910  18.510  0.00  0.00    +0.000 OA
ENDROOT
BRANCH   1  14
ATOM     14  C   UNL     1       0.750  13.975  21.603  0.00  0.00    +0.000 C 
BRANCH  14  15
ATOM     15  C   UNL     1       2.089  14.464  21.027  0.00  0.00    +0.000 C 
BRANCH  15  17
ATOM     16  C   UNL     1       1.533  16.867  21.517  0.00  0.00    +0.000 C 
ATOM     17  C   UNL     1       2.020  15.883  20.458  0.00  0.00    +0.000 C 
ENDBRANCH  15  17
ENDBRANCH  14  15
ENDBRANCH   1  14
BRANCH   3  18
ATOM     18  C   UNL     1      -0.203   9.770  20.910  0.00  0.00    +0.000 C 
BRANCH  18  19
ATOM     19  O   UNL     1       0.153   8.390  21.061  0.00  0.00    +0.000 OA
BRANCH  19  20
ATOM     20  C   UNL     1       1.556   8.143  21.107  0.00  0.00    +0.000 C 
BRANCH  20  21
ATOM     21  C   UNL     1       1.949   7.039  20.157  0.00  0.00    +0.000 A 
ATOM     22  C   UNL     1       1.777   5.704  20.556  0.00  0.00    +0.000 A 
ATOM     23  C   UNL     1       2.100   4.654  19.697  0.00  0.00    +0.000 A 
ATOM     24  C   UNL     1       2.591   4.927  18.422  0.00  0.00    +0.000 A 
ATOM     25  C   UNL     1       2.759   6.249  18.009  0.00  0.00    +0.000 A 
ATOM     26  C   UNL     1       2.436   7.299  18.870  0.00  0.00    +0.000 A 
ENDBRANCH  20  21
ENDBRANCH  19  20
ENDBRANCH  18  19
ENDBRANCH   3  18
BRANCH   9  27
ATOM     27  O   UNL     1      -4.056  13.084  19.319  0.00  0.00    +0.000 OA
BRANCH  27  28
ATOM     28  C   UNL     1      -5.041  12.849  20.258  0.00  0.00    +0.000 A 
ATOM     29  C   UNL     1      -6.395  12.770  19.906  0.00  0.00    +0.000 A 
ATOM     30  C   UNL     1      -7.369  12.716  20.903  0.00  0.00    +0.000 A 
ATOM     31  C   UNL     1      -6.979  12.666  22.237  0.00  0.00    +0.000 A 
ATOM     32  F   UNL     1      -7.916  12.650  23.195  0.00  0.00    +0.000 F 
ATOM     33  C   UNL     1      -5.634  12.644  22.589  0.00  0.00    +0.000 A 
ATOM     34  C   UNL     1      -4.655  12.734  21.596  0.00  0.00    +0.000 A 
ENDBRANCH  27  28
ENDBRANCH   9  27
TORSDOF 9
ENDMDL
MODEL 5
REMARK VINA RESULT:      -7.2      7.679     10.311
REMARK  Name = 
REMARK  10 active torsions:
REMARK  status: ('A' for Active; 'I' for Inactive)
REMARK    1  A    between atoms: C_1  and  C_2
REMARK    2  A    between atoms: C_2  and  C_3
REMARK    3  A    between atoms: C_3  and  C_4
REMARK    4  A    between atoms: C_4  and  N_5
REMARK    5  A    between atoms: C_7  and  C_8
REMARK    6  A    between atoms: C_8  and  O_9
REMARK    7  A    between atoms: O_9  and  C_10
REMARK    8  A    between atoms: C_10  and  C_11
REMARK    9  A    between atoms: C_22  and  O_23
REMARK   10  A    between atoms: O_23  and  C_24
REMARK                            x       y       z     vdW  Elec       q    Type
REMARK                         _______ _______ _______ _____ _____    ______ ____
ROOT
ATOM      1  N   UNL     1       9.321  12.065  18.668  0.00  0.00    +0.000 NA
ATOM      2  C   UNL     1       9.427  13.119  17.625  0.00  0.00    +0.000 C 
ATOM      3  C   UNL     1       8.892  14.479  18.042  0.00  0.00    +0.000 C 
ATOM      4  O   UNL     1       9.845  15.095  18.915  0.00  0.00    +0.000 OA
ATOM      5  C   UNL     1       9.557  14.967  20.237  0.00  0.00    +0.000 A 
ATOM      6  C   UNL     1       9.249  16.182  20.862  0.00  0.00    +0.000 A 
ATOM      7  C   UNL     1       8.965  16.222  22.212  0.00  0.00    +0.000 A 
ATOM      8  C   UNL     1       9.031  15.045  22.946  0.00  0.00    +0.000 A 
ATOM      9  C   UNL     1       9.304  13.800  22.330  0.00  0.00    +0.000 A 
ATOM     10  C   UNL     1       9.592  13.765  20.951  0.00  0.00    +0.000 A 
ATOM     11  S   UNL     1      10.190  12.293  20.151  0.00  0.00    +0.000 S 
ATOM     12  O   UNL     1       9.828  11.149  20.964  0.00  0.00    +0.000 OA
ATOM     13  O   UNL     1      11.574  12.539  19.811  0.00  0.00    +0.000 OA
ENDROOT
BRANCH   1  14
ATOM     14  C   UNL     1       9.547  10.692  18.056  0.00  0.00    +0.000 C 
BRANCH  14  15
ATOM     15  C   UNL     1       8.257   9.868  17.909  0.00  0.00    +0.000 C 
BRANCH  15  17
ATOM     16  C   UNL     1       7.477   7.507  17.536  0.00  0.00    +0.000 C 
ATOM     17  C   UNL     1       8.423   8.406  18.326  0.00  0.00    +0.000 C 
ENDBRANCH  15  17
ENDBRANCH  14  15
ENDBRANCH   1  14
BRANCH   3  18
ATOM     18  C   UNL     1       7.406  14.475  18.477  0.00  0.00    +0.000 C 
BRANCH  18  19
ATOM     19  O   UNL     1       6.729  15.721  18.271  0.00  0.00    +0.000 OA
BRANCH  19  20
ATOM     20  C   UNL     1       5.323  15.673  18.497  0.00  0.00    +0.000 C 
BRANCH  20  21
ATOM     21  C   UNL     1       5.010  15.452  19.956  0.00  0.00    +0.000 A 
ATOM     22  C   UNL     1       5.554  16.328  20.909  0.00  0.00    +0.000 A 
ATOM     23  C   UNL     1       5.265  16.176  22.265  0.00  0.00    +0.000 A 
ATOM     24  C   UNL     1       4.421  15.150  22.684  0.00  0.00    +0.000 A 
ATOM     25  C   UNL     1       3.867  14.278  21.747  0.00  0.00    +0.000 A 
ATOM     26  C   UNL     1       4.157  14.429  20.390  0.00  0.00    +0.000 A 
ENDBRANCH  20  21
ENDBRANCH  19  20
ENDBRANCH  18  19
ENDBRANCH   3  18
BRANCH   9  27
ATOM     27  O   UNL     1       9.344  12.637  23.084  0.00  0.00    +0.000 OA
BRANCH  27  28
ATOM     28  C   UNL     1       8.234  12.313  23.838  0.00  0.00    +0.000 A 
ATOM     29  C   UNL     1       7.008  11.984  23.246  0.00  0.00    +0.000 A 
ATOM     30  C   UNL     1       5.870  11.843  24.041  0.00  0.00    +0.000 A 
ATOM     31  C   UNL     1       5.982  11.959  25.423  0.00  0.00    +0.000 A 
ATOM     32  F   UNL     1       4.882  11.859  26.181  0.00  0.00    +0.000 F 
ATOM     33  C   UNL     1       7.215  12.187  26.023  0.00  0.00    +0.000 A 
ATOM     34  C   UNL     1       8.351  12.364  25.230  0.00  0.00    +0.000 A 
ENDBRANCH  27  28
ENDBRANCH   9  27
TORSDOF 9
ENDMDL
MODEL 6
REMARK VINA RESULT:      -7.2      7.371      9.768
REMARK  Name = 
REMARK  10 active torsions:
REMARK  status: ('A' for Active; 'I' for Inactive)
REMARK    1  A    between atoms: C_1  and  C_2
REMARK    2  A    between atoms: C_2  and  C_3
REMARK    3  A    between atoms: C_3  and  C_4
REMARK    4  A    between atoms: C_4  and  N_5
REMARK    5  A    between atoms: C_7  and  C_8
REMARK    6  A    between atoms: C_8  and  O_9
REMARK    7  A    between atoms: O_9  and  C_10
REMARK    8  A    between atoms: C_10  and  C_11
REMARK    9  A    between atoms: C_22  and  O_23
REMARK   10  A    between atoms: O_23  and  C_24
REMARK                            x       y       z     vdW  Elec       q    Type
REMARK                         _______ _______ _______ _____ _____    ______ ____
ROOT
ATOM      1  N   UNL     1       9.352  12.419  18.822  0.00  0.00    +0.000 NA
ATOM      2  C   UNL     1       9.251  13.438  17.744  0.00  0.00    +0.000 C 
ATOM      3  C   UNL     1       8.475  14.687  18.124  0.00  0.00    +0.000 C 
ATOM      4  O   UNL     1       9.303  15.500  18.963  0.00  0.00    +0.000 OA
ATOM      5  C   UNL     1       9.054  15.367  20.293  0.00  0.00    +0.000 A 
ATOM      6  C   UNL     1       8.529  16.524  20.881  0.00  0.00    +0.000 A 
ATOM      7  C   UNL     1       8.254  16.557  22.234  0.00  0.00    +0.000 A 
ATOM      8  C   UNL     1       8.544  15.440  23.004  0.00  0.00    +0.000 A 
ATOM      9  C   UNL     1       9.040  14.247  22.425  0.00  0.00    +0.000 A 
ATOM     10  C   UNL     1       9.319  14.218  21.044  0.00  0.00    +0.000 A 
ATOM     11  S   UNL     1      10.175  12.856  20.285  0.00  0.00    +0.000 S 
ATOM     12  O   UNL     1      10.039  11.694  21.139  0.00  0.00    +0.000 OA
ATOM     13  O   UNL     1      11.485  13.344  19.917  0.00  0.00    +0.000 OA
ENDROOT
BRANCH   1  14
ATOM     14  C   UNL     1       9.825  11.092  18.252  0.00  0.00    +0.000 C 
BRANCH  14  15
ATOM     15  C   UNL     1       9.012   9.887  18.751  0.00  0.00    +0.000 C 
BRANCH  15  17
ATOM     16  C   UNL     1       7.891   7.807  17.891  0.00  0.00    +0.000 C 
ATOM     17  C   UNL     1       8.077   9.307  17.687  0.00  0.00    +0.000 C 
ENDBRANCH  15  17
ENDBRANCH  14  15
ENDBRANCH   1  14
BRANCH   3  18
ATOM     18  C   UNL     1       7.019  14.422  18.580  0.00  0.00    +0.000 C 
BRANCH  18  19
ATOM     19  O   UNL     1       6.100  15.473  18.258  0.00  0.00    +0.000 OA
BRANCH  19  20
ATOM     20  C   UNL     1       5.215  15.829  19.317  0.00  0.00    +0.000 C 
BRANCH  20  21
ATOM     21  C   UNL     1       4.048  14.877  19.398  0.00  0.00    +0.000 A 
ATOM     22  C   UNL     1       3.437  14.447  18.210  0.00  0.00    +0.000 A 
ATOM     23  C   UNL     1       2.373  13.544  18.239  0.00  0.00    +0.000 A 
ATOM     24  C   UNL     1       1.914  13.054  19.459  0.00  0.00    +0.000 A 
ATOM     25  C   UNL     1       2.517  13.466  20.647  0.00  0.00    +0.000 A 
ATOM     26  C   UNL     1       3.580  14.370  20.617  0.00  0.00    +0.000 A 
ENDBRANCH  20  21
ENDBRANCH  19  20
ENDBRANCH  18  19
ENDBRANCH   3  18
BRANCH   9  27
ATOM     27  O   UNL     1       9.303  13.138  23.216  0.00  0.00    +0.000 OA
BRANCH  27  28
ATOM     28  C   UNL     1       8.248  12.556  23.891  0.00  0.00    +0.000 A 
ATOM     29  C   UNL     1       7.119  12.070  23.219  0.00  0.00    +0.000 A 
ATOM     30  C   UNL     1       6.002  11.659  23.948  0.00  0.00    +0.000 A 
ATOM     31  C   UNL     1       6.051  11.668  25.338  0.00  0.00    +0.000 A 
ATOM     32  F   UNL     1       4.966  11.308  26.035  0.00  0.00    +0.000 F 
ATOM     33  C   UNL     1       7.205  12.056  26.009  0.00  0.00    +0.000 A 
ATOM     34  C   UNL     1       8.314  12.502  25.285  0.00  0.00    +0.000 A 
ENDBRANCH  27  28
ENDBRANCH   9  27
TORSDOF 9
ENDMDL
MODEL 7
REMARK VINA RESULT:      -7.2      7.750     10.529
REMARK  Name = 
REMARK  10 active torsions:
REMARK  status: ('A' for Active; 'I' for Inactive)
REMARK    1  A    between atoms: C_1  and  C_2
REMARK    2  A    between atoms: C_2  and  C_3
REMARK    3  A    between atoms: C_3  and  C_4
REMARK    4  A    between atoms: C_4  and  N_5
REMARK    5  A    between atoms: C_7  and  C_8
REMARK    6  A    between atoms: C_8  and  O_9
REMARK    7  A    between atoms: O_9  and  C_10
REMARK    8  A    between atoms: C_10  and  C_11
REMARK    9  A    between atoms: C_22  and  O_23
REMARK   10  A    between atoms: O_23  and  C_24
REMARK                            x       y       z     vdW  Elec       q    Type
REMARK                         _______ _______ _______ _____ _____    ______ ____
ROOT
ATOM      1  N   UNL     1       9.174  11.232  19.145  0.00  0.00    +0.000 NA
ATOM      2  C   UNL     1       9.622  11.884  17.886  0.00  0.00    +0.000 C 
ATOM      3  C   UNL     1       9.408  13.387  17.840  0.00  0.00    +0.000 C 
ATOM      4  O   UNL     1      10.409  14.015  18.649  0.00  0.00    +0.000 OA
ATOM      5  C   UNL     1       9.991  14.347  19.899  0.00  0.00    +0.000 A 
ATOM      6  C   UNL     1       9.943  15.729  20.123  0.00  0.00    +0.000 A 
ATOM      7  C   UNL     1       9.568  16.224  21.357  0.00  0.00    +0.000 A 
ATOM      8  C   UNL     1       9.281  15.330  22.379  0.00  0.00    +0.000 A 
ATOM      9  C   UNL     1       9.287  13.931  22.165  0.00  0.00    +0.000 A 
ATOM     10  C   UNL     1       9.669  13.430  20.904  0.00  0.00    +0.000 A 
ATOM     11  S   UNL     1       9.948  11.695  20.625  0.00  0.00    +0.000 S 
ATOM     12  O   UNL     1       9.249  10.946  21.650  0.00  0.00    +0.000 OA
ATOM     13  O   UNL     1      11.373  11.529  20.442  0.00  0.00    +0.000 OA
ENDROOT
BRANCH   1  14
ATOM     14  C   UNL     1       9.102   9.724  18.962  0.00  0.00    +0.000 C 
BRANCH  14  15
ATOM     15  C   UNL     1       8.082   9.285  17.900  0.00  0.00    +0.000 C 
BRANCH  15  17
ATOM     16  C   UNL     1       6.556   7.362  17.353  0.00  0.00    +0.000 C 
ATOM     17  C   UNL     1       7.970   7.765  17.762  0.00  0.00    +0.000 C 
ENDBRANCH  15  17
ENDBRANCH  14  15
ENDBRANCH   1  14
BRANCH   3  18
ATOM     18  C   UNL     1       7.937  13.830  18.034  0.00  0.00    +0.000 C 
BRANCH  18  19
ATOM     19  O   UNL     1       7.624  15.104  17.460  0.00  0.00    +0.000 OA
BRANCH  19  20
ATOM     20  C   UNL     1       6.964  16.005  18.345  0.00  0.00    +0.000 C 
BRANCH  20  21
ATOM     21  C   UNL     1       5.663  15.427  18.843  0.00  0.00    +0.000 A 
ATOM     22  C   UNL     1       4.686  15.045  17.911  0.00  0.00    +0.000 A 
ATOM     23  C   UNL     1       3.481  14.480  18.329  0.00  0.00    +0.000 A 
ATOM     24  C   UNL     1       3.242  14.280  19.687  0.00  0.00    +0.000 A 
ATOM     25  C   UNL     1       4.208  14.648  20.624  0.00  0.00    +0.000 A 
ATOM     26  C   UNL     1       5.413  15.215  20.205  0.00  0.00    +0.000 A 
ENDBRANCH  20  21
ENDBRANCH  19  20
ENDBRANCH  18  19
ENDBRANCH   3  18
BRANCH   9  27
ATOM     27  O   UNL     1       8.977  13.061  23.200  0.00  0.00    +0.000 OA
BRANCH  27  28
ATOM     28  C   UNL     1       7.887  13.358  23.994  0.00  0.00    +0.000 A 
ATOM     29  C   UNL     1       6.604  13.523  23.456  0.00  0.00    +0.000 A 
ATOM     30  C   UNL     1       5.571  14.001  24.263  0.00  0.00    +0.000 A 
ATOM     31  C   UNL     1       5.810  14.237  25.613  0.00  0.00    +0.000 A 
ATOM     32  F   UNL     1       4.827  14.729  26.378  0.00  0.00    +0.000 F 
ATOM     33  C   UNL     1       7.056  13.979  26.173  0.00  0.00    +0.000 A 
ATOM     34  C   UNL     1       8.104  13.535  25.362  0.00  0.00    +0.000 A 
ENDBRANCH  27  28
ENDBRANCH   9  27
TORSDOF 9
ENDMDL
MODEL 8
REMARK VINA RESULT:      -7.1      1.566      2.323
REMARK  Name = 
REMARK  10 active torsions:
REMARK  status: ('A' for Active; 'I' for Inactive)
REMARK    1  A    between atoms: C_1  and  C_2
REMARK    2  A    between atoms: C_2  and  C_3
REMARK    3  A    between atoms: C_3  and  C_4
REMARK    4  A    between atoms: C_4  and  N_5
REMARK    5  A    between atoms: C_7  and  C_8
REMARK    6  A    between atoms: C_8  and  O_9
REMARK    7  A    between atoms: O_9  and  C_10
REMARK    8  A    between atoms: C_10  and  C_11
REMARK    9  A    between atoms: C_22  and  O_23
REMARK   10  A    between atoms: O_23  and  C_24
REMARK                            x       y       z     vdW  Elec       q    Type
REMARK                         _______ _______ _______ _____ _____    ______ ____
ROOT
ATOM      1  N   UNL     1      -0.187  13.631  19.923  0.00  0.00    +0.000 NA
ATOM      2  C   UNL     1      -0.593  14.238  21.218  0.00  0.00    +0.000 C 
ATOM      3  C   UNL     1      -1.292  13.284  22.172  0.00  0.00    +0.000 C 
ATOM      4  O   UNL     1      -0.308  12.425  22.759  0.00  0.00    +0.000 OA
ATOM      5  C   UNL     1      -0.208  11.204  22.170  0.00  0.00    +0.000 A 
ATOM      6  C   UNL     1      -0.608  10.149  22.999  0.00  0.00    +0.000 A 
ATOM      7  C   UNL     1      -0.534   8.844  22.555  0.00  0.00    +0.000 A 
ATOM      8  C   UNL     1      -0.019   8.595  21.290  0.00  0.00    +0.000 A 
ATOM      9  C   UNL     1       0.356   9.646  20.421  0.00  0.00    +0.000 A 
ATOM     10  C   UNL     1       0.278  10.977  20.879  0.00  0.00    +0.000 A 
ATOM     11  S   UNL     1       0.962  12.333  19.953  0.00  0.00    +0.000 S 
ATOM     12  O   UNL     1       1.088  11.927  18.567  0.00  0.00    +0.000 OA
ATOM     13  O   UNL     1       2.119  12.794  20.687  0.00  0.00    +0.000 OA
ENDROOT
BRANCH   1  14
ATOM     14  C   UNL     1       0.173  14.717  18.921  0.00  0.00    +0.000 C 
BRANCH  14  15
ATOM     15  C   UNL     1       1.046  15.833  19.517  0.00  0.00    +0.000 C 
BRANCH  15  17
ATOM     16  C   UNL     1       3.293  16.957  19.611  0.00  0.00    +0.000 C 
ATOM     17  C   UNL     1       2.473  15.844  18.966  0.00  0.00    +0.000 C 
ENDBRANCH  15  17
ENDBRANCH  14  15
ENDBRANCH   1  14
BRANCH   3  18
ATOM     18  C   UNL     1      -2.575  12.633  21.601  0.00  0.00    +0.000 C 
BRANCH  18  19
ATOM     19  O   UNL     1      -3.341  13.492  20.748  0.00  0.00    +0.000 OA
BRANCH  19  20
ATOM     20  C   UNL     1      -4.738  13.515  21.032  0.00  0.00    +0.000 C 
BRANCH  20  21
ATOM     21  C   UNL     1      -5.478  12.481  20.222  0.00  0.00    +0.000 A 
ATOM     22  C   UNL     1      -5.044  12.200  18.917  0.00  0.00    +0.000 A 
ATOM     23  C   UNL     1      -5.683  11.229  18.144  0.00  0.00    +0.000 A 
ATOM     24  C   UNL     1      -6.760  10.522  18.672  0.00  0.00    +0.000 A 
ATOM     25  C   UNL     1      -7.197  10.785  19.970  0.00  0.00    +0.000 A 
ATOM     26  C   UNL     1      -6.558  11.756  20.743  0.00  0.00    +0.000 A 
ENDBRANCH  20  21
ENDBRANCH  19  20
ENDBRANCH  18  19
ENDBRANCH   3  18
BRANCH   9  27
ATOM     27  O   UNL     1       0.849   9.369  19.154  0.00  0.00    +0.000 OA
BRANCH  27  28
ATOM     28  C   UNL     1       1.806   8.381  19.032  0.00  0.00    +0.000 A 
ATOM     29  C   UNL     1       2.633   8.288  17.905  0.00  0.00    +0.000 A 
ATOM     30  C   UNL     1       3.455   7.173  17.739  0.00  0.00    +0.000 A 
ATOM     31  C   UNL     1       3.498   6.201  18.732  0.00  0.00    +0.000 A 
ATOM     32  F   UNL     1       4.260   5.114  18.554  0.00  0.00    +0.000 F 
ATOM     33  C   UNL     1       2.753   6.337  19.898  0.00  0.00    +0.000 A 
ATOM     34  C   UNL     1       1.902   7.434  20.054  0.00  0.00    +0.000 A 
ENDBRANCH  27  28
ENDBRANCH   9  27
TORSDOF 9
ENDMDL
MODEL 9
REMARK VINA RESULT:      -7.1      3.195      6.840
REMARK  Name = 
REMARK  10 active torsions:
REMARK  status: ('A' for Active; 'I' for Inactive)
REMARK    1  A    between atoms: C_1  and  C_2
REMARK    2  A    between atoms: C_2  and  C_3
REMARK    3  A    between atoms: C_3  and  C_4
REMARK    4  A    between atoms: C_4  and  N_5
REMARK    5  A    between atoms: C_7  and  C_8
REMARK    6  A    between atoms: C_8  and  O_9
REMARK    7  A    between atoms: O_9  and  C_10
REMARK    8  A    between atoms: C_10  and  C_11
REMARK    9  A    between atoms: C_22  and  O_23
REMARK   10  A    between atoms: O_23  and  C_24
REMARK                            x       y       z     vdW  Elec       q    Type
REMARK                         _______ _______ _______ _____ _____    ______ ____
ROOT
ATOM      1  N   UNL     1       0.900  12.461  19.794  0.00  0.00    +0.000 NA
ATOM      2  C   UNL     1       1.556  11.510  18.858  0.00  0.00    +0.000 C 
ATOM      3  C   UNL     1       0.708  10.306  18.481  0.00  0.00    +0.000 C 
ATOM      4  O   UNL     1      -0.281  10.725  17.534  0.00  0.00    +0.000 OA
ATOM      5  C   UNL     1      -1.503  10.974  18.074  0.00  0.00    +0.000 A 
ATOM      6  C   UNL     1      -2.493  10.077  17.655  0.00  0.00    +0.000 A 
ATOM      7  C   UNL     1      -3.795  10.218  18.092  0.00  0.00    +0.000 A 
ATOM      8  C   UNL     1      -4.112  11.287  18.918  0.00  0.00    +0.000 A 
ATOM      9  C   UNL     1      -3.122  12.185  19.384  0.00  0.00    +0.000 A 
ATOM     10  C   UNL     1      -1.794  12.036  18.936  0.00  0.00    +0.000 A 
ATOM     11  S   UNL     1      -0.546  13.260  19.267  0.00  0.00    +0.000 S 
ATOM     12  O   UNL     1      -0.964  14.046  20.410  0.00  0.00    +0.000 OA
ATOM     13  O   UNL     1      -0.252  13.903  18.006  0.00  0.00    +0.000 OA
ENDROOT
BRANCH   1  14
ATOM     14  C   UNL     1       1.926  13.419  20.377  0.00  0.00    +0.000 C 
BRANCH  14  15
ATOM     15  C   UNL     1       3.001  13.852  19.368  0.00  0.00    +0.000 C 
BRANCH  15  17
ATOM     16  C   UNL     1       3.438  15.598  17.612  0.00  0.00    +0.000 C 
ATOM     17  C   UNL     1       2.952  15.345  19.035  0.00  0.00    +0.000 C 
ENDBRANCH  15  17
ENDBRANCH  14  15
ENDBRANCH   1  14
BRANCH   3  18
ATOM     18  C   UNL     1       0.244   9.449  19.684  0.00  0.00    +0.000 C 
BRANCH  18  19
ATOM     19  O   UNL     1       1.293   9.087  20.589  0.00  0.00    +0.000 OA
BRANCH  19  20
ATOM     20  C   UNL     1       1.145   7.800  21.182  0.00  0.00    +0.000 C 
BRANCH  20  21
ATOM     21  C   UNL     1       1.739   6.723  20.309  0.00  0.00    +0.000 A 
ATOM     22  C   UNL     1       2.568   7.095  19.239  0.00  0.00    +0.000 A 
ATOM     23  C   UNL     1       3.161   6.129  18.425  0.00  0.00    +0.000 A 
ATOM     24  C   UNL     1       2.940   4.778  18.679  0.00  0.00    +0.000 A 
ATOM     25  C   UNL     1       2.125   4.394  19.745  0.00  0.00    +0.000 A 
ATOM     26  C   UNL     1       1.531   5.360  20.558  0.00  0.00    +0.000 A 
ENDBRANCH  20  21
ENDBRANCH  19  20
ENDBRANCH  18  19
ENDBRANCH   3  18
BRANCH   9  27
ATOM     27  O   UNL     1      -3.464  13.233  20.225  0.00  0.00    +0.000 OA
BRANCH  27  28
ATOM     28  C   UNL     1      -3.850  12.931  21.517  0.00  0.00    +0.000 A 
ATOM     29  C   UNL     1      -5.149  13.180  21.977  0.00  0.00    +0.000 A 
ATOM     30  C   UNL     1      -5.444  13.032  23.333  0.00  0.00    +0.000 A 
ATOM     31  C   UNL     1      -4.461  12.566  24.200  0.00  0.00    +0.000 A 
ATOM     32  F   UNL     1      -4.736  12.459  25.506  0.00  0.00    +0.000 F 
ATOM     33  C   UNL     1      -3.199  12.223  23.730  0.00  0.00    +0.000 A 
ATOM     34  C   UNL     1      -2.887  12.403  22.380  0.00  0.00    +0.000 A 
ENDBRANCH  27  28
ENDBRANCH   9  27
TORSDOF 9
ENDMDL
