MODEL 1
REMARK VINA RESULT:      -7.7      0.000      0.000
REMARK  Name = 
REMARK  8 active torsions:
REMARK  status: ('A' for Active; 'I' for Inactive)
REMARK    1  A    between atoms: C_2  and  C_4
REMARK    2  A    between atoms: C_6  and  C_7
REMARK    3  A    between atoms: C_15  and  C_16
REMARK    4  A    between atoms: N_19  and  S_20
REMARK    5  A    between atoms: S_20  and  C_23
REMARK    6  A    between atoms: C_23  and  C_24
REMARK    7  A    between atoms: C_24  and  C_25
REMARK    8  A    between atoms: C_25  and  N_26
REMARK                            x       y       z     vdW  Elec       q    Type
REMARK                         _______ _______ _______ _____ _____    ______ ____
ROOT
ATOM      1  C   UNL     1      -4.135  11.686  18.525  0.00  0.00    +0.000 A 
ATOM      2  C   UNL     1      -4.329  12.470  19.673  0.00  0.00    +0.000 A 
ATOM      3  C   UNL     1      -3.315  12.662  20.622  0.00  0.00    +0.000 A 
ATOM      4  C   UNL     1      -2.068  12.030  20.394  0.00  0.00    +0.000 A 
ATOM      5  C   UNL     1      -1.822  11.274  19.224  0.00  0.00    +0.000 A 
ATOM      6  C   UNL     1      -0.655  10.640  18.657  0.00  0.00    +0.000 A 
ATOM      7  C   UNL     1      -1.086  10.025  17.495  0.00  0.00    +0.000 A 
ATOM      8  N   UNL     1      -2.420  10.285  17.325  0.00  0.00    +0.000 N 
ATOM      9  C   UNL     1      -2.880  11.095  18.337  0.00  0.00    +0.000 A 
ATOM     10  H   UNL     1      -3.003   9.960  16.560  0.00  0.00    +0.000 HD
ENDROOT
BRANCH   3  11
ATOM     11  C   UNL     1      -3.519  13.561  21.785  0.00  0.00    +0.000 A 
ATOM     12  C   UNL     1      -2.942  13.302  23.045  0.00  0.00    +0.000 A 
ATOM     13  C   UNL     1      -3.213  14.117  24.150  0.00  0.00    +0.000 A 
ATOM     14  C   UNL     1      -4.048  15.222  24.016  0.00  0.00    +0.000 A 
ATOM     15  C   UNL     1      -4.611  15.513  22.779  0.00  0.00    +0.000 A 
ATOM     16  C   UNL     1      -4.353  14.689  21.684  0.00  0.00    +0.000 A 
ENDBRANCH   3  11
BRANCH   6  17
ATOM     17  C   UNL     1       0.756  10.694  19.216  0.00  0.00    +0.000 C 
ATOM     18  C   UNL     1       1.850  10.353  18.200  0.00  0.00    +0.000 C 
ATOM     19  C   UNL     1       2.060   8.864  17.985  0.00  0.00    +0.000 C 
ATOM     20  N   UNL     1       2.225   8.115  19.264  0.00  0.00    +0.000 NA
ATOM     21  C   UNL     1       1.133   8.387  20.247  0.00  0.00    +0.000 C 
ATOM     22  C   UNL     1       0.954   9.881  20.494  0.00  0.00    +0.000 C 
BRANCH  20  23
ATOM     23  S   UNL     1       2.463   6.425  19.007  0.00  0.00    +0.000 S 
ATOM     24  O   UNL     1       1.613   5.992  17.922  0.00  0.00    +0.000 OA
ATOM     25  O   UNL     1       3.894   6.196  18.933  0.00  0.00    +0.000 OA
BRANCH  23  26
ATOM     26  C   UNL     1       1.867   5.724  20.547  0.00  0.00    +0.000 C 
BRANCH  26  27
ATOM     27  C   UNL     1       1.310   4.308  20.445  0.00  0.00    +0.000 C 
BRANCH  27  28
ATOM     28  C   UNL     1       2.389   3.236  20.617  0.00  0.00    +0.000 C 
BRANCH  28  29
ATOM     29  N   UNL     1       2.328   2.140  19.637  0.00  0.00    +0.000 NA
ATOM     30  C   UNL     1       3.625   1.781  19.052  0.00  0.00    +0.000 C 
ATOM     31  C   UNL     1       3.836   2.806  17.959  0.00  0.00    +0.000 C 
ATOM     32  C   UNL     1       2.454   2.899  17.343  0.00  0.00    +0.000 C 
ATOM     33  C   UNL     1       1.496   2.567  18.485  0.00  0.00    +0.000 C 
ENDBRANCH  28  29
ENDBRANCH  27  28
ENDBRANCH  26  27
ENDBRANCH  23  26
ENDBRANCH  20  23
ENDBRANCH   6  17
BRANCH   1  35
ATOM     34  N   UNL     1      -6.436  11.131  17.958  0.00  0.00    +0.000 N 
ATOM     35  C   UNL     1      -5.203  11.508  17.509  0.00  0.00    +0.000 C 
ATOM     36  O   UNL     1      -5.005  11.753  16.326  0.00  0.00    +0.000 OA
ATOM     37  H   UNL     1      -7.185  11.135  17.275  0.00  0.00    +0.000 HD
ATOM     38  H   UNL     1      -6.697  11.207  18.930  0.00  0.00    +0.000 HD
ENDBRANCH   1  35
TORSDOF 8
ENDMDL
MODEL 2
REMARK VINA RESULT:      -7.7      1.935      2.431
REMARK  Name = 
REMARK  8 active torsions:
REMARK  status: ('A' for Active; 'I' for Inactive)
REMARK    1  A    between atoms: C_2  and  C_4
REMARK    2  A    between atoms: C_6  and  C_7
REMARK    3  A    between atoms: C_15  and  C_16
REMARK    4  A    between atoms: N_19  and  S_20
REMARK    5  A    between atoms: S_20  and  C_23
REMARK    6  A    between atoms: C_23  and  C_24
REMARK    7  A    between atoms: C_24  and  C_25
REMARK    8  A    between atoms: C_25  and  N_26
REMARK                            x       y       z     vdW  Elec       q    Type
REMARK                         _______ _______ _______ _____ _____    ______ ____
ROOT
ATOM      1  C   UNL     1      -3.648  11.725  18.865  0.00  0.00    +0.000 A 
ATOM      2  C   UNL     1      -3.644  12.499  20.035  0.00  0.00    +0.000 A 
ATOM      3  C   UNL     1      -2.517  12.584  20.866  0.00  0.00    +0.000 A 
ATOM      4  C   UNL     1      -1.363  11.853  20.492  0.00  0.00    +0.000 A 
ATOM      5  C   UNL     1      -1.316  11.104  19.294  0.00  0.00    +0.000 A 
ATOM      6  C   UNL     1      -0.279  10.384  18.591  0.00  0.00    +0.000 A 
ATOM      7  C   UNL     1      -0.889   9.833  17.479  0.00  0.00    +0.000 A 
ATOM      8  N   UNL     1      -2.206  10.208  17.464  0.00  0.00    +0.000 N 
ATOM      9  C   UNL     1      -2.478  11.033  18.530  0.00  0.00    +0.000 A 
ATOM     10  H   UNL     1      -2.897   9.950  16.766  0.00  0.00    +0.000 HD
ENDROOT
BRANCH   3  11
ATOM     11  C   UNL     1      -2.511  13.473  22.054  0.00  0.00    +0.000 A 
ATOM     12  C   UNL     1      -1.333  13.752  22.778  0.00  0.00    +0.000 A 
ATOM     13  C   UNL     1      -1.363  14.526  23.943  0.00  0.00    +0.000 A 
ATOM     14  C   UNL     1      -2.565  15.057  24.401  0.00  0.00    +0.000 A 
ATOM     15  C   UNL     1      -3.737  14.817  23.693  0.00  0.00    +0.000 A 
ATOM     16  C   UNL     1      -3.707  14.030  22.541  0.00  0.00    +0.000 A 
ENDBRANCH   3  11
BRANCH   6  17
ATOM     17  C   UNL     1       1.184  10.306  18.988  0.00  0.00    +0.000 C 
ATOM     18  C   UNL     1       2.083   9.624  17.951  0.00  0.00    +0.000 C 
ATOM     19  C   UNL     1       2.054   8.106  18.001  0.00  0.00    +0.000 C 
ATOM     20  N   UNL     1       2.272   7.572  19.376  0.00  0.00    +0.000 NA
ATOM     21  C   UNL     1       1.363   8.180  20.393  0.00  0.00    +0.000 C 
ATOM     22  C   UNL     1       1.427   9.704  20.370  0.00  0.00    +0.000 C 
BRANCH  20  23
ATOM     23  S   UNL     1       2.237   5.847  19.421  0.00  0.00    +0.000 S 
ATOM     24  O   UNL     1       1.510   5.424  20.596  0.00  0.00    +0.000 OA
ATOM     25  O   UNL     1       1.812   5.389  18.112  0.00  0.00    +0.000 OA
BRANCH  23  26
ATOM     26  C   UNL     1       3.973   5.441  19.616  0.00  0.00    +0.000 C 
BRANCH  26  27
ATOM     27  C   UNL     1       4.392   4.086  19.054  0.00  0.00    +0.000 C 
BRANCH  27  28
ATOM     28  C   UNL     1       4.728   4.144  17.562  0.00  0.00    +0.000 C 
BRANCH  28  29
ATOM     29  N   UNL     1       5.664   5.214  17.184  0.00  0.00    +0.000 NA
ATOM     30  C   UNL     1       5.242   6.001  16.020  0.00  0.00    +0.000 C 
ATOM     31  C   UNL     1       5.656   5.159  14.832  0.00  0.00    +0.000 C 
ATOM     32  C   UNL     1       7.023   4.661  15.259  0.00  0.00    +0.000 C 
ATOM     33  C   UNL     1       6.958   4.606  16.784  0.00  0.00    +0.000 C 
ENDBRANCH  28  29
ENDBRANCH  27  28
ENDBRANCH  26  27
ENDBRANCH  23  26
ENDBRANCH  20  23
ENDBRANCH   6  17
BRANCH   1  35
ATOM     34  N   UNL     1      -6.063  11.747  18.563  0.00  0.00    +0.000 N 
ATOM     35  C   UNL     1      -4.834  11.660  17.974  0.00  0.00    +0.000 C 
ATOM     36  O   UNL     1      -4.715  11.600  16.757  0.00  0.00    +0.000 OA
ATOM     37  H   UNL     1      -6.857  11.827  17.938  0.00  0.00    +0.000 HD
ATOM     38  H   UNL     1      -6.181  12.084  19.506  0.00  0.00    +0.000 HD
ENDBRANCH   1  35
TORSDOF 8
ENDMDL
MODEL 3
REMARK VINA RESULT:      -7.5      2.179      2.630
REMARK  Name = 
REMARK  8 active torsions:
REMARK  status: ('A' for Active; 'I' for Inactive)
REMARK    1  A    between atoms: C_2  and  C_4
REMARK    2  A    between atoms: C_6  and  C_7
REMARK    3  A    between atoms: C_15  and  C_16
REMARK    4  A    between atoms: N_19  and  S_20
REMARK    5  A    between atoms: S_20  and  C_23
REMARK    6  A    between atoms: C_23  and  C_24
REMARK    7  A    between atoms: C_24  and  C_25
REMARK    8  A    between atoms: C_25  and  N_26
REMARK                            x       y       z     vdW  Elec       q    Type
REMARK                         _______ _______ _______ _____ _____    ______ ____
ROOT
ATOM      1  C   UNL     1      -3.732  11.884  18.956  0.00  0.00    +0.000 A 
ATOM      2  C   UNL     1      -3.745  12.636  20.141  0.00  0.00    +0.000 A 
ATOM      3  C   UNL     1      -2.627  12.713  20.985  0.00  0.00    +0.000 A 
ATOM      4  C   UNL     1      -1.465  11.994  20.610  0.00  0.00    +0.000 A 
ATOM      5  C   UNL     1      -1.401  11.268  19.398  0.00  0.00    +0.000 A 
ATOM      6  C   UNL     1      -0.353  10.567  18.694  0.00  0.00    +0.000 A 
ATOM      7  C   UNL     1      -0.948  10.032  17.565  0.00  0.00    +0.000 A 
ATOM      8  N   UNL     1      -2.267  10.401  17.543  0.00  0.00    +0.000 N 
ATOM      9  C   UNL     1      -2.554  11.205  18.621  0.00  0.00    +0.000 A 
ATOM     10  H   UNL     1      -2.949  10.152  16.833  0.00  0.00    +0.000 HD
ENDROOT
BRANCH   3  11
ATOM     11  C   UNL     1      -2.638  13.579  22.189  0.00  0.00    +0.000 A 
ATOM     12  C   UNL     1      -1.464  13.884  22.907  0.00  0.00    +0.000 A 
ATOM     13  C   UNL     1      -1.507  14.635  24.087  0.00  0.00    +0.000 A 
ATOM     14  C   UNL     1      -2.721  15.118  24.564  0.00  0.00    +0.000 A 
ATOM     15  C   UNL     1      -3.892  14.852  23.863  0.00  0.00    +0.000 A 
ATOM     16  C   UNL     1      -3.847  14.088  22.697  0.00  0.00    +0.000 A 
ENDBRANCH   3  11
BRANCH   6  17
ATOM     17  C   UNL     1       1.107  10.490  19.104  0.00  0.00    +0.000 C 
ATOM     18  C   UNL     1       2.029   9.881  18.043  0.00  0.00    +0.000 C 
ATOM     19  C   UNL     1       2.024   8.362  18.010  0.00  0.00    +0.000 C 
ATOM     20  N   UNL     1       2.235   7.755  19.355  0.00  0.00    +0.000 NA
ATOM     21  C   UNL     1       1.303   8.292  20.393  0.00  0.00    +0.000 C 
ATOM     22  C   UNL     1       1.343   9.816  20.455  0.00  0.00    +0.000 C 
BRANCH  20  23
ATOM     23  S   UNL     1       2.227   6.030  19.305  0.00  0.00    +0.000 S 
ATOM     24  O   UNL     1       1.803   5.526  20.591  0.00  0.00    +0.000 OA
ATOM     25  O   UNL     1       1.508   5.636  18.108  0.00  0.00    +0.000 OA
BRANCH  23  26
ATOM     26  C   UNL     1       3.963   5.654  19.060  0.00  0.00    +0.000 C 
BRANCH  26  27
ATOM     27  C   UNL     1       4.322   5.098  17.686  0.00  0.00    +0.000 C 
BRANCH  27  28
ATOM     28  C   UNL     1       5.514   4.139  17.730  0.00  0.00    +0.000 C 
BRANCH  28  29
ATOM     29  N   UNL     1       6.724   4.632  17.053  0.00  0.00    +0.000 NA
ATOM     30  C   UNL     1       7.932   4.609  17.885  0.00  0.00    +0.000 C 
ATOM     31  C   UNL     1       7.833   5.868  18.720  0.00  0.00    +0.000 C 
ATOM     32  C   UNL     1       7.337   6.880  17.705  0.00  0.00    +0.000 C 
ATOM     33  C   UNL     1       6.532   6.060  16.699  0.00  0.00    +0.000 C 
ENDBRANCH  28  29
ENDBRANCH  27  28
ENDBRANCH  26  27
ENDBRANCH  23  26
ENDBRANCH  20  23
ENDBRANCH   6  17
BRANCH   1  35
ATOM     34  N   UNL     1      -6.143  11.946  18.625  0.00  0.00    +0.000 N 
ATOM     35  C   UNL     1      -4.908  11.828  18.052  0.00  0.00    +0.000 C 
ATOM     36  O   UNL     1      -4.776  11.748  16.838  0.00  0.00    +0.000 OA
ATOM     37  H   UNL     1      -6.927  12.033  17.989  0.00  0.00    +0.000 HD
ATOM     38  H   UNL     1      -6.266  12.299  19.561  0.00  0.00    +0.000 HD
ENDBRANCH   1  35
TORSDOF 8
ENDMDL
MODEL 4
REMARK VINA RESULT:      -7.5      2.255      2.690
REMARK  Name = 
REMARK  8 active torsions:
REMARK  status: ('A' for Active; 'I' for Inactive)
REMARK    1  A    between atoms: C_2  and  C_4
REMARK    2  A    between atoms: C_6  and  C_7
REMARK    3  A    between atoms: C_15  and  C_16
REMARK    4  A    between atoms: N_19  and  S_20
REMARK    5  A    between atoms: S_20  and  C_23
REMARK    6  A    between atoms: C_23  and  C_24
REMARK    7  A    between atoms: C_24  and  C_25
REMARK    8  A    between atoms: C_25  and  N_26
REMARK                            x       y       z     vdW  Elec       q    Type
REMARK                         _______ _______ _______ _____ _____    ______ ____
ROOT
ATOM      1  C   UNL     1      -3.682  11.415  18.168  0.00  0.00    +0.000 A 
ATOM      2  C   UNL     1      -3.840  12.284  19.259  0.00  0.00    +0.000 A 
ATOM      3  C   UNL     1      -2.833  12.463  20.219  0.00  0.00    +0.000 A 
ATOM      4  C   UNL     1      -1.632  11.729  20.062  0.00  0.00    +0.000 A 
ATOM      5  C   UNL     1      -1.420  10.884  18.948  0.00  0.00    +0.000 A 
ATOM      6  C   UNL     1      -0.292  10.132  18.450  0.00  0.00    +0.000 A 
ATOM      7  C   UNL     1      -0.744   9.476  17.319  0.00  0.00    +0.000 A 
ATOM      8  N   UNL     1      -2.052   9.820  17.101  0.00  0.00    +0.000 N 
ATOM      9  C   UNL     1      -2.470  10.724  18.049  0.00  0.00    +0.000 A 
ATOM     10  H   UNL     1      -2.642   9.490  16.344  0.00  0.00    +0.000 HD
ENDROOT
BRANCH   3  11
ATOM     11  C   UNL     1      -2.993  13.447  21.318  0.00  0.00    +0.000 A 
ATOM     12  C   UNL     1      -3.422  13.071  22.607  0.00  0.00    +0.000 A 
ATOM     13  C   UNL     1      -3.646  14.026  23.606  0.00  0.00    +0.000 A 
ATOM     14  C   UNL     1      -3.424  15.374  23.347  0.00  0.00    +0.000 A 
ATOM     15  C   UNL     1      -2.978  15.770  22.091  0.00  0.00    +0.000 A 
ATOM     16  C   UNL     1      -2.773  14.818  21.092  0.00  0.00    +0.000 A 
ENDBRANCH   3  11
BRANCH   6  17
ATOM     17  C   UNL     1       1.108  10.119  19.039  0.00  0.00    +0.000 C 
ATOM     18  C   UNL     1       2.167   9.480  18.134  0.00  0.00    +0.000 C 
ATOM     19  C   UNL     1       2.199   7.962  18.189  0.00  0.00    +0.000 C 
ATOM     20  N   UNL     1       2.256   7.437  19.583  0.00  0.00    +0.000 NA
ATOM     21  C   UNL     1       1.192   8.003  20.467  0.00  0.00    +0.000 C 
ATOM     22  C   UNL     1       1.191   9.528  20.445  0.00  0.00    +0.000 C 
BRANCH  20  23
ATOM     23  S   UNL     1       2.292   5.712  19.632  0.00  0.00    +0.000 S 
ATOM     24  O   UNL     1       1.676   5.266  20.861  0.00  0.00    +0.000 OA
ATOM     25  O   UNL     1       1.785   5.233  18.360  0.00  0.00    +0.000 OA
BRANCH  23  26
ATOM     26  C   UNL     1       4.053   5.375  19.692  0.00  0.00    +0.000 C 
BRANCH  26  27
ATOM     27  C   UNL     1       4.590   4.513  18.554  0.00  0.00    +0.000 C 
BRANCH  27  28
ATOM     28  C   UNL     1       5.010   5.338  17.335  0.00  0.00    +0.000 C 
BRANCH  28  29
ATOM     29  N   UNL     1       6.431   5.223  16.975  0.00  0.00    +0.000 NA
ATOM     30  C   UNL     1       7.307   4.845  18.089  0.00  0.00    +0.000 C 
ATOM     31  C   UNL     1       7.554   6.143  18.827  0.00  0.00    +0.000 C 
ATOM     32  C   UNL     1       7.755   7.121  17.685  0.00  0.00    +0.000 C 
ATOM     33  C   UNL     1       6.927   6.551  16.534  0.00  0.00    +0.000 C 
ENDBRANCH  28  29
ENDBRANCH  27  28
ENDBRANCH  26  27
ENDBRANCH  23  26
ENDBRANCH  20  23
ENDBRANCH   6  17
BRANCH   1  35
ATOM     34  N   UNL     1      -6.030  11.470  17.530  0.00  0.00    +0.000 N 
ATOM     35  C   UNL     1      -4.740  11.250  17.140  0.00  0.00    +0.000 C 
ATOM     36  O   UNL     1      -4.463  10.994  15.975  0.00  0.00    +0.000 OA
ATOM     37  H   UNL     1      -6.728  11.477  16.794  0.00  0.00    +0.000 HD
ATOM     38  H   UNL     1      -6.255  11.955  18.384  0.00  0.00    +0.000 HD
ENDBRANCH   1  35
TORSDOF 8
ENDMDL
MODEL 5
REMARK VINA RESULT:      -7.5      2.771     10.613
REMARK  Name = 
REMARK  8 active torsions:
REMARK  status: ('A' for Active; 'I' for Inactive)
REMARK    1  A    between atoms: C_2  and  C_4
REMARK    2  A    between atoms: C_6  and  C_7
REMARK    3  A    between atoms: C_15  and  C_16
REMARK    4  A    between atoms: N_19  and  S_20
REMARK    5  A    between atoms: S_20  and  C_23
REMARK    6  A    between atoms: C_23  and  C_24
REMARK    7  A    between atoms: C_24  and  C_25
REMARK    8  A    between atoms: C_25  and  N_26
REMARK                            x       y       z     vdW  Elec       q    Type
REMARK                         _______ _______ _______ _____ _____    ______ ____
ROOT
ATOM      1  C   UNL     1       2.588   4.623  20.089  0.00  0.00    +0.000 A 
ATOM      2  C   UNL     1       3.409   4.402  18.972  0.00  0.00    +0.000 A 
ATOM      3  C   UNL     1       3.687   5.414  18.042  0.00  0.00    +0.000 A 
ATOM      4  C   UNL     1       3.105   6.687  18.256  0.00  0.00    +0.000 A 
ATOM      5  C   UNL     1       2.314   6.959  19.397  0.00  0.00    +0.000 A 
ATOM      6  C   UNL     1       1.712   8.150  19.949  0.00  0.00    +0.000 A 
ATOM      7  C   UNL     1       1.031   7.739  21.081  0.00  0.00    +0.000 A 
ATOM      8  N   UNL     1       1.221   6.393  21.248  0.00  0.00    +0.000 N 
ATOM      9  C   UNL     1       2.049   5.904  20.265  0.00  0.00    +0.000 A 
ATOM     10  H   UNL     1       0.838   5.820  21.993  0.00  0.00    +0.000 HD
ENDROOT
BRANCH   3  11
ATOM     11  C   UNL     1       4.623   5.178  16.914  0.00  0.00    +0.000 A 
ATOM     12  C   UNL     1       5.104   6.227  16.105  0.00  0.00    +0.000 A 
ATOM     13  C   UNL     1       5.920   5.973  14.997  0.00  0.00    +0.000 A 
ATOM     14  C   UNL     1       6.291   4.670  14.684  0.00  0.00    +0.000 A 
ATOM     15  C   UNL     1       5.849   3.618  15.480  0.00  0.00    +0.000 A 
ATOM     16  C   UNL     1       5.021   3.873  16.573  0.00  0.00    +0.000 A 
ENDBRANCH   3  11
BRANCH   6  17
ATOM     17  C   UNL     1       1.855   9.561  19.407  0.00  0.00    +0.000 C 
ATOM     18  C   UNL     1       1.107  10.626  20.216  0.00  0.00    +0.000 C 
ATOM     19  C   UNL     1      -0.376  10.722  19.901  0.00  0.00    +0.000 C 
ATOM     20  N   UNL     1      -0.647  10.831  18.439  0.00  0.00    +0.000 NA
ATOM     21  C   UNL     1       0.024   9.764  17.637  0.00  0.00    +0.000 C 
ATOM     22  C   UNL     1       1.521   9.698  17.923  0.00  0.00    +0.000 C 
BRANCH  20  23
ATOM     23  S   UNL     1      -2.335  10.940  18.093  0.00  0.00    +0.000 S 
ATOM     24  O   UNL     1      -2.519  11.759  16.917  0.00  0.00    +0.000 OA
ATOM     25  O   UNL     1      -2.869   9.592  18.119  0.00  0.00    +0.000 OA
BRANCH  23  26
ATOM     26  C   UNL     1      -2.957  11.813  19.530  0.00  0.00    +0.000 C 
BRANCH  26  27
ATOM     27  C   UNL     1      -4.262  12.573  19.316  0.00  0.00    +0.000 C 
BRANCH  27  28
ATOM     28  C   UNL     1      -4.841  13.131  20.619  0.00  0.00    +0.000 C 
BRANCH  28  29
ATOM     29  N   UNL     1      -5.688  12.189  21.368  0.00  0.00    +0.000 NA
ATOM     30  C   UNL     1      -6.674  11.479  20.545  0.00  0.00    +0.000 C 
ATOM     31  C   UNL     1      -7.816  12.462  20.402  0.00  0.00    +0.000 C 
ATOM     32  C   UNL     1      -7.912  13.039  21.801  0.00  0.00    +0.000 C 
ATOM     33  C   UNL     1      -6.493  12.946  22.358  0.00  0.00    +0.000 C 
ENDBRANCH  28  29
ENDBRANCH  27  28
ENDBRANCH  26  27
ENDBRANCH  23  26
ENDBRANCH  20  23
ENDBRANCH   6  17
BRANCH   1  35
ATOM     34  N   UNL     1       1.806   2.380  20.619  0.00  0.00    +0.000 N 
ATOM     35  C   UNL     1       2.319   3.557  21.086  0.00  0.00    +0.000 C 
ATOM     36  O   UNL     1       2.607   3.701  22.267  0.00  0.00    +0.000 OA
ATOM     37  H   UNL     1       1.745   1.620  21.287  0.00  0.00    +0.000 HD
ATOM     38  H   UNL     1       1.835   2.136  19.641  0.00  0.00    +0.000 HD
ENDBRANCH   1  35
TORSDOF 8
ENDMDL
MODEL 6
REMARK VINA RESULT:      -7.4      1.942      2.551
REMARK  Name = 
REMARK  8 active torsions:
REMARK  status: ('A' for Active; 'I' for Inactive)
REMARK    1  A    between atoms: C_2  and  C_4
REMARK    2  A    between atoms: C_6  and  C_7
REMARK    3  A    between atoms: C_15  and  C_16
REMARK    4  A    between atoms: N_19  and  S_20
REMARK    5  A    between atoms: S_20  and  C_23
REMARK    6  A    between atoms: C_23  and  C_24
REMARK    7  A    between atoms: C_24  and  C_25
REMARK    8  A    between atoms: C_25  and  N_26
REMARK                            x       y       z     vdW  Elec       q    Type
REMARK                         _______ _______ _______ _____ _____    ______ ____
ROOT
ATOM      1  C   UNL     1      -3.265  11.520  18.537  0.00  0.00    +0.000 A 
ATOM      2  C   UNL     1      -3.340  12.256  19.730  0.00  0.00    +0.000 A 
ATOM      3  C   UNL     1      -2.316  12.226  20.687  0.00  0.00    +0.000 A 
ATOM      4  C   UNL     1      -1.185  11.416  20.420  0.00  0.00    +0.000 A 
ATOM      5  C   UNL     1      -1.054  10.702  19.207  0.00  0.00    +0.000 A 
ATOM      6  C   UNL     1       0.001   9.923  18.600  0.00  0.00    +0.000 A 
ATOM      7  C   UNL     1      -0.513   9.456  17.405  0.00  0.00    +0.000 A 
ATOM      8  N   UNL     1      -1.787   9.936  17.253  0.00  0.00    +0.000 N 
ATOM      9  C   UNL     1      -2.119  10.747  18.312  0.00  0.00    +0.000 A 
ATOM     10  H   UNL     1      -2.408   9.755  16.470  0.00  0.00    +0.000 HD
ENDROOT
BRANCH   3  11
ATOM     11  C   UNL     1      -2.382  13.075  21.902  0.00  0.00    +0.000 A 
ATOM     12  C   UNL     1      -3.589  13.645  22.355  0.00  0.00    +0.000 A 
ATOM     13  C   UNL     1      -3.616  14.510  23.456  0.00  0.00    +0.000 A 
ATOM     14  C   UNL     1      -2.443  14.806  24.142  0.00  0.00    +0.000 A 
ATOM     15  C   UNL     1      -1.242  14.238  23.730  0.00  0.00    +0.000 A 
ATOM     16  C   UNL     1      -1.216  13.391  22.622  0.00  0.00    +0.000 A 
ENDBRANCH   3  11
BRANCH   6  17
ATOM     17  C   UNL     1       1.398   9.716  19.160  0.00  0.00    +0.000 C 
ATOM     18  C   UNL     1       2.363   9.014  18.200  0.00  0.00    +0.000 C 
ATOM     19  C   UNL     1       2.221   7.501  18.168  0.00  0.00    +0.000 C 
ATOM     20  N   UNL     1       2.236   6.893  19.529  0.00  0.00    +0.000 NA
ATOM     21  C   UNL     1       1.256   7.525  20.464  0.00  0.00    +0.000 C 
ATOM     22  C   UNL     1       1.430   9.038  20.528  0.00  0.00    +0.000 C 
BRANCH  20  23
ATOM     23  S   UNL     1       2.073   5.175  19.480  0.00  0.00    +0.000 S 
ATOM     24  O   UNL     1       1.084   4.771  20.453  0.00  0.00    +0.000 OA
ATOM     25  O   UNL     1       1.910   4.796  18.090  0.00  0.00    +0.000 OA
BRANCH  23  26
ATOM     26  C   UNL     1       3.695   4.630  20.019  0.00  0.00    +0.000 C 
BRANCH  26  27
ATOM     27  C   UNL     1       4.477   3.808  18.999  0.00  0.00    +0.000 C 
BRANCH  27  28
ATOM     28  C   UNL     1       5.727   4.531  18.491  0.00  0.00    +0.000 C 
BRANCH  28  29
ATOM     29  N   UNL     1       5.525   5.319  17.265  0.00  0.00    +0.000 NA
ATOM     30  C   UNL     1       4.840   4.595  16.189  0.00  0.00    +0.000 C 
ATOM     31  C   UNL     1       5.932   3.776  15.536  0.00  0.00    +0.000 C 
ATOM     32  C   UNL     1       7.085   4.760  15.502  0.00  0.00    +0.000 C 
ATOM     33  C   UNL     1       6.849   5.679  16.699  0.00  0.00    +0.000 C 
ENDBRANCH  28  29
ENDBRANCH  27  28
ENDBRANCH  26  27
ENDBRANCH  23  26
ENDBRANCH  20  23
ENDBRANCH   6  17
BRANCH   1  35
ATOM     34  N   UNL     1      -5.594  11.904  17.942  0.00  0.00    +0.000 N 
ATOM     35  C   UNL     1      -4.339  11.576  17.514  0.00  0.00    +0.000 C 
ATOM     36  O   UNL     1      -4.099  11.404  16.326  0.00  0.00    +0.000 OA
ATOM     37  H   UNL     1      -6.289  12.062  17.222  0.00  0.00    +0.000 HD
ATOM     38  H   UNL     1      -5.757  12.328  18.842  0.00  0.00    +0.000 HD
ENDBRANCH   1  35
TORSDOF 8
ENDMDL
MODEL 7
REMARK VINA RESULT:      -7.4      2.890     10.687
REMARK  Name = 
REMARK  8 active torsions:
REMARK  status: ('A' for Active; 'I' for Inactive)
REMARK    1  A    between atoms: C_2  and  C_4
REMARK    2  A    between atoms: C_6  and  C_7
REMARK    3  A    between atoms: C_15  and  C_16
REMARK    4  A    between atoms: N_19  and  S_20
REMARK    5  A    between atoms: S_20  and  C_23
REMARK    6  A    between atoms: C_23  and  C_24
REMARK    7  A    between atoms: C_24  and  C_25
REMARK    8  A    between atoms: C_25  and  N_26
REMARK                            x       y       z     vdW  Elec       q    Type
REMARK                         _______ _______ _______ _____ _____    ______ ____
ROOT
ATOM      1  C   UNL     1       2.628   4.451  20.200  0.00  0.00    +0.000 A 
ATOM      2  C   UNL     1       3.623   4.298  19.221  0.00  0.00    +0.000 A 
ATOM      3  C   UNL     1       3.992   5.347  18.367  0.00  0.00    +0.000 A 
ATOM      4  C   UNL     1       3.322   6.586  18.513  0.00  0.00    +0.000 A 
ATOM      5  C   UNL     1       2.352   6.790  19.521  0.00  0.00    +0.000 A 
ATOM      6  C   UNL     1       1.614   7.937  19.998  0.00  0.00    +0.000 A 
ATOM      7  C   UNL     1       0.786   7.465  21.000  0.00  0.00    +0.000 A 
ATOM      8  N   UNL     1       1.013   6.124  21.167  0.00  0.00    +0.000 N 
ATOM      9  C   UNL     1       2.007   5.700  20.316  0.00  0.00    +0.000 A 
ATOM     10  H   UNL     1       0.547   5.514  21.831  0.00  0.00    +0.000 HD
ENDROOT
BRANCH   3  11
ATOM     11  C   UNL     1       5.102   5.184  17.395  0.00  0.00    +0.000 A 
ATOM     12  C   UNL     1       4.938   5.440  16.018  0.00  0.00    +0.000 A 
ATOM     13  C   UNL     1       5.974   5.202  15.107  0.00  0.00    +0.000 A 
ATOM     14  C   UNL     1       7.202   4.724  15.553  0.00  0.00    +0.000 A 
ATOM     15  C   UNL     1       7.397   4.486  16.909  0.00  0.00    +0.000 A 
ATOM     16  C   UNL     1       6.358   4.708  17.812  0.00  0.00    +0.000 A 
ENDBRANCH   3  11
BRANCH   6  17
ATOM     17  C   UNL     1       1.770   9.368  19.513  0.00  0.00    +0.000 C 
ATOM     18  C   UNL     1       0.847  10.373  20.209  0.00  0.00    +0.000 C 
ATOM     19  C   UNL     1      -0.568  10.408  19.657  0.00  0.00    +0.000 C 
ATOM     20  N   UNL     1      -0.603  10.543  18.172  0.00  0.00    +0.000 NA
ATOM     21  C   UNL     1       0.244   9.531  17.471  0.00  0.00    +0.000 C 
ATOM     22  C   UNL     1       1.675   9.529  17.997  0.00  0.00    +0.000 C 
BRANCH  20  23
ATOM     23  S   UNL     1      -2.215  10.581  17.556  0.00  0.00    +0.000 S 
ATOM     24  O   UNL     1      -2.172  10.924  16.153  0.00  0.00    +0.000 OA
ATOM     25  O   UNL     1      -2.867   9.354  17.976  0.00  0.00    +0.000 OA
BRANCH  23  26
ATOM     26  C   UNL     1      -2.938  11.938  18.480  0.00  0.00    +0.000 C 
BRANCH  26  27
ATOM     27  C   UNL     1      -4.346  11.688  19.010  0.00  0.00    +0.000 C 
BRANCH  27  28
ATOM     28  C   UNL     1      -5.429  12.308  18.124  0.00  0.00    +0.000 C 
BRANCH  28  29
ATOM     29  N   UNL     1      -6.807  11.956  18.500  0.00  0.00    +0.000 NA
ATOM     30  C   UNL     1      -7.777  13.042  18.323  0.00  0.00    +0.000 C 
ATOM     31  C   UNL     1      -7.610  13.896  19.562  0.00  0.00    +0.000 C 
ATOM     32  C   UNL     1      -7.470  12.848  20.649  0.00  0.00    +0.000 C 
ATOM     33  C   UNL     1      -6.847  11.642  19.949  0.00  0.00    +0.000 C 
ENDBRANCH  28  29
ENDBRANCH  27  28
ENDBRANCH  26  27
ENDBRANCH  23  26
ENDBRANCH  20  23
ENDBRANCH   6  17
BRANCH   1  35
ATOM     34  N   UNL     1       0.951   2.958  21.137  0.00  0.00    +0.000 N 
ATOM     35  C   UNL     1       2.260   3.346  21.121  0.00  0.00    +0.000 C 
ATOM     36  O   UNL     1       3.104   2.763  21.787  0.00  0.00    +0.000 OA
ATOM     37  H   UNL     1       0.735   2.125  21.673  0.00  0.00    +0.000 HD
ATOM     38  H   UNL     1       0.308   3.215  20.405  0.00  0.00    +0.000 HD
ENDBRANCH   1  35
TORSDOF 8
ENDMDL
MODEL 8
REMARK VINA RESULT:      -7.4      2.637     10.628
REMARK  Name = 
REMARK  8 active torsions:
REMARK  status: ('A' for Active; 'I' for Inactive)
REMARK    1  A    between atoms: C_2  and  C_4
REMARK    2  A    between atoms: C_6  and  C_7
REMARK    3  A    between atoms: C_15  and  C_16
REMARK    4  A    between atoms: N_19  and  S_20
REMARK    5  A    between atoms: S_20  and  C_23
REMARK    6  A    between atoms: C_23  and  C_24
REMARK    7  A    between atoms: C_24  and  C_25
REMARK    8  A    between atoms: C_25  and  N_26
REMARK                            x       y       z     vdW  Elec       q    Type
REMARK                         _______ _______ _______ _____ _____    ______ ____
ROOT
ATOM      1  C   UNL     1       2.655   4.349  19.991  0.00  0.00    +0.000 A 
ATOM      2  C   UNL     1       3.612   4.187  18.977  0.00  0.00    +0.000 A 
ATOM      3  C   UNL     1       3.979   5.240  18.126  0.00  0.00    +0.000 A 
ATOM      4  C   UNL     1       3.345   6.492  18.313  0.00  0.00    +0.000 A 
ATOM      5  C   UNL     1       2.414   6.704  19.356  0.00  0.00    +0.000 A 
ATOM      6  C   UNL     1       1.721   7.861  19.873  0.00  0.00    +0.000 A 
ATOM      7  C   UNL     1       0.915   7.394  20.895  0.00  0.00    +0.000 A 
ATOM      8  N   UNL     1       1.114   6.045  21.035  0.00  0.00    +0.000 N 
ATOM      9  C   UNL     1       2.068   5.611  20.145  0.00  0.00    +0.000 A 
ATOM     10  H   UNL     1       0.656   5.437  21.706  0.00  0.00    +0.000 HD
ENDROOT
BRANCH   3  11
ATOM     11  C   UNL     1       5.051   5.065  17.115  0.00  0.00    +0.000 A 
ATOM     12  C   UNL     1       4.787   5.069  15.731  0.00  0.00    +0.000 A 
ATOM     13  C   UNL     1       5.799   4.821  14.797  0.00  0.00    +0.000 A 
ATOM     14  C   UNL     1       7.102   4.586  15.223  0.00  0.00    +0.000 A 
ATOM     15  C   UNL     1       7.395   4.600  16.583  0.00  0.00    +0.000 A 
ATOM     16  C   UNL     1       6.380   4.830  17.512  0.00  0.00    +0.000 A 
ENDBRANCH   3  11
BRANCH   6  17
ATOM     17  C   UNL     1       1.895   9.295  19.404  0.00  0.00    +0.000 C 
ATOM     18  C   UNL     1       1.083  10.322  20.200  0.00  0.00    +0.000 C 
ATOM     19  C   UNL     1      -0.372  10.429  19.779  0.00  0.00    +0.000 C 
ATOM     20  N   UNL     1      -0.534  10.600  18.306  0.00  0.00    +0.000 NA
ATOM     21  C   UNL     1       0.202   9.570  17.512  0.00  0.00    +0.000 C 
ATOM     22  C   UNL     1       1.673   9.496  17.907  0.00  0.00    +0.000 C 
BRANCH  20  23
ATOM     23  S   UNL     1      -2.191  10.720  17.839  0.00  0.00    +0.000 S 
ATOM     24  O   UNL     1      -2.263  11.288  16.512  0.00  0.00    +0.000 OA
ATOM     25  O   UNL     1      -2.809   9.435  18.104  0.00  0.00    +0.000 OA
BRANCH  23  26
ATOM     26  C   UNL     1      -2.831  11.901  19.028  0.00  0.00    +0.000 C 
BRANCH  26  27
ATOM     27  C   UNL     1      -4.346  12.079  19.017  0.00  0.00    +0.000 C 
BRANCH  27  28
ATOM     28  C   UNL     1      -4.911  12.418  20.399  0.00  0.00    +0.000 C 
BRANCH  28  29
ATOM     29  N   UNL     1      -4.015  13.218  21.250  0.00  0.00    +0.000 NA
ATOM     30  C   UNL     1      -3.723  12.612  22.554  0.00  0.00    +0.000 C 
ATOM     31  C   UNL     1      -4.922  12.967  23.406  0.00  0.00    +0.000 C 
ATOM     32  C   UNL     1      -5.176  14.408  23.008  0.00  0.00    +0.000 C 
ATOM     33  C   UNL     1      -4.676  14.508  21.568  0.00  0.00    +0.000 C 
ENDBRANCH  28  29
ENDBRANCH  27  28
ENDBRANCH  26  27
ENDBRANCH  23  26
ENDBRANCH  20  23
ENDBRANCH   6  17
BRANCH   1  35
ATOM     34  N   UNL     1       1.913   2.057  20.337  0.00  0.00    +0.000 N 
ATOM     35  C   UNL     1       2.290   3.240  20.907  0.00  0.00    +0.000 C 
ATOM     36  O   UNL     1       2.388   3.357  22.122  0.00  0.00    +0.000 OA
ATOM     37  H   UNL     1       1.788   1.273  20.968  0.00  0.00    +0.000 HD
ATOM     38  H   UNL     1       2.101   1.846  19.370  0.00  0.00    +0.000 HD
ENDBRANCH   1  35
TORSDOF 8
ENDMDL
MODEL 9
REMARK VINA RESULT:      -7.3      1.994      2.533
REMARK  Name = 
REMARK  8 active torsions:
REMARK  status: ('A' for Active; 'I' for Inactive)
REMARK    1  A    between atoms: C_2  and  C_4
REMARK    2  A    between atoms: C_6  and  C_7
REMARK    3  A    between atoms: C_15  and  C_16
REMARK    4  A    between atoms: N_19  and  S_20
REMARK    5  A    between atoms: S_20  and  C_23
REMARK    6  A    between atoms: C_23  and  C_24
REMARK    7  A    between atoms: C_24  and  C_25
REMARK    8  A    between atoms: C_25  and  N_26
REMARK                            x       y       z     vdW  Elec       q    Type
REMARK                         _______ _______ _______ _____ _____    ______ ____
ROOT
ATOM      1  C   UNL     1      -3.773  11.819  18.968  0.00  0.00    +0.000 A 
ATOM      2  C   UNL     1      -3.772  12.576  20.150  0.00  0.00    +0.000 A 
ATOM      3  C   UNL     1      -2.642  12.663  20.976  0.00  0.00    +0.000 A 
ATOM      4  C   UNL     1      -1.481  11.951  20.586  0.00  0.00    +0.000 A 
ATOM      5  C   UNL     1      -1.431  11.220  19.376  0.00  0.00    +0.000 A 
ATOM      6  C   UNL     1      -0.389  10.524  18.658  0.00  0.00    +0.000 A 
ATOM      7  C   UNL     1      -0.998   9.981  17.541  0.00  0.00    +0.000 A 
ATOM      8  N   UNL     1      -2.320  10.341  17.538  0.00  0.00    +0.000 N 
ATOM      9  C   UNL     1      -2.596  11.147  18.617  0.00  0.00    +0.000 A 
ATOM     10  H   UNL     1      -3.011  10.085  16.840  0.00  0.00    +0.000 HD
ENDROOT
BRANCH   3  11
ATOM     11  C   UNL     1      -2.640  13.534  22.178  0.00  0.00    +0.000 A 
ATOM     12  C   UNL     1      -3.775  14.269  22.574  0.00  0.00    +0.000 A 
ATOM     13  C   UNL     1      -3.728  15.148  23.662  0.00  0.00    +0.000 A 
ATOM     14  C   UNL     1      -2.553  15.296  24.392  0.00  0.00    +0.000 A 
ATOM     15  C   UNL     1      -1.425  14.565  24.036  0.00  0.00    +0.000 A 
ATOM     16  C   UNL     1      -1.470  13.704  22.940  0.00  0.00    +0.000 A 
ENDBRANCH   3  11
BRANCH   6  17
ATOM     17  C   UNL     1       1.077  10.457  19.046  0.00  0.00    +0.000 C 
ATOM     18  C   UNL     1       1.983   9.830  17.982  0.00  0.00    +0.000 C 
ATOM     19  C   UNL     1       1.981   8.311  17.977  0.00  0.00    +0.000 C 
ATOM     20  N   UNL     1       2.215   7.731  19.330  0.00  0.00    +0.000 NA
ATOM     21  C   UNL     1       1.300   8.285  20.372  0.00  0.00    +0.000 C 
ATOM     22  C   UNL     1       1.336   9.809  20.405  0.00  0.00    +0.000 C 
BRANCH  20  23
ATOM     23  S   UNL     1       2.211   6.005  19.312  0.00  0.00    +0.000 S 
ATOM     24  O   UNL     1       1.641   5.525  20.550  0.00  0.00    +0.000 OA
ATOM     25  O   UNL     1       1.635   5.587  18.047  0.00  0.00    +0.000 OA
BRANCH  23  26
ATOM     26  C   UNL     1       3.964   5.626  19.277  0.00  0.00    +0.000 C 
BRANCH  26  27
ATOM     27  C   UNL     1       4.324   4.265  18.690  0.00  0.00    +0.000 C 
BRANCH  27  28
ATOM     28  C   UNL     1       4.648   4.333  17.195  0.00  0.00    +0.000 C 
BRANCH  28  29
ATOM     29  N   UNL     1       5.975   3.816  16.829  0.00  0.00    +0.000 NA
ATOM     30  C   UNL     1       7.094   4.651  17.281  0.00  0.00    +0.000 C 
ATOM     31  C   UNL     1       7.185   5.746  16.240  0.00  0.00    +0.000 C 
ATOM     32  C   UNL     1       6.970   4.975  14.952  0.00  0.00    +0.000 C 
ATOM     33  C   UNL     1       6.093   3.789  15.350  0.00  0.00    +0.000 C 
ENDBRANCH  28  29
ENDBRANCH  27  28
ENDBRANCH  26  27
ENDBRANCH  23  26
ENDBRANCH  20  23
ENDBRANCH   6  17
BRANCH   1  35
ATOM     34  N   UNL     1      -5.498  12.938  17.666  0.00  0.00    +0.000 N 
ATOM     35  C   UNL     1      -4.962  11.753  18.083  0.00  0.00    +0.000 C 
ATOM     36  O   UNL     1      -5.404  10.682  17.687  0.00  0.00    +0.000 OA
ATOM     37  H   UNL     1      -6.227  12.881  16.965  0.00  0.00    +0.000 HD
ATOM     38  H   UNL     1      -4.991  13.807  17.735  0.00  0.00    +0.000 HD
ENDBRANCH   1  35
TORSDOF 8
ENDMDL
