MODEL 1
REMARK VINA RESULT:      -8.2      0.000      0.000
REMARK  Name = 
REMARK  10 active torsions:
REMARK  status: ('A' for Active; 'I' for Inactive)
REMARK    1  A    between atoms: C_1  and  O_2
REMARK    2  A    between atoms: O_2  and  C_3
REMARK    3  A    between atoms: C_5  and  C_6
REMARK    4  A    between atoms: C_7  and  C_8
REMARK    5  A    between atoms: C_8  and  O_9
REMARK    6  A    between atoms: C_14  and  C_15
REMARK    7  A    between atoms: C_18  and  O_19
REMARK    8  A    between atoms: C_20  and  O_21
REMARK    9  A    between atoms: O_21  and  C_22
REMARK   10  A    between atoms: C_28  and  O_29
REMARK                            x       y       z     vdW  Elec       q    Type
REMARK                         _______ _______ _______ _____ _____    ______ ____
ROOT
ATOM      1  C   UNL     1       0.605  11.147  19.684  0.00  0.00    +0.000 C 
ATOM      2  C   UNL     1       0.934   9.848  19.542  0.00  0.00    +0.000 C 
ATOM      3  C   UNL     1       0.720   8.759  20.559  0.00  0.00    +0.000 C 
ATOM      4  C   UNL     1       1.910   7.833  20.379  0.00  0.00    +0.000 C 
ATOM      5  C   UNL     1       2.186   7.895  18.913  0.00  0.00    +0.000 C 
ATOM      6  C   UNL     1       2.768   6.959  18.147  0.00  0.00    +0.000 C 
ATOM      7  C   UNL     1       1.665   9.202  18.400  0.00  0.00    +0.000 C 
ATOM      8  O   UNL     1       1.790   9.616  17.262  0.00  0.00    +0.000 OA
ENDROOT
BRANCH   6   9
ATOM      9  C   UNL     1       3.292   5.693  18.682  0.00  0.00    +0.000 A 
ATOM     10  C   UNL     1       4.670   5.473  18.730  0.00  0.00    +0.000 A 
ATOM     11  C   UNL     1       5.175   4.260  19.209  0.00  0.00    +0.000 A 
ATOM     12  C   UNL     1       4.306   3.259  19.656  0.00  0.00    +0.000 A 
ATOM     13  C   UNL     1       2.922   3.474  19.650  0.00  0.00    +0.000 A 
ATOM     14  C   UNL     1       2.431   4.697  19.159  0.00  0.00    +0.000 A 
BRANCH  12  15
ATOM     15  O   UNL     1       4.849   2.080  20.089  0.00  0.00    +0.000 OA
ATOM     16  H   UNL     1       5.785   2.217  20.302  0.00  0.00    +0.000 HD
ENDBRANCH  12  15
BRANCH  13  17
ATOM     17  O   UNL     1       1.932   2.625  20.072  0.00  0.00    +0.000 OA
ATOM     18  C   UNL     1       1.522   2.689  21.431  0.00  0.00    +0.000 C 
ENDBRANCH  13  17
ENDBRANCH   6   9
BRANCH   1  20
ATOM     19  C   UNL     1      -1.307  12.202  20.958  0.00  0.00    +0.000 C 
ATOM     20  C   UNL     1      -0.094  11.627  20.871  0.00  0.00    +0.000 C 
BRANCH  19  23
ATOM     21  C   UNL     1      -3.565  12.811  23.969  0.00  0.00    +0.000 A 
ATOM     22  C   UNL     1      -3.014  12.272  22.788  0.00  0.00    +0.000 A 
ATOM     23  C   UNL     1      -1.826  12.772  22.226  0.00  0.00    +0.000 A 
ATOM     24  C   UNL     1      -1.174  13.810  22.902  0.00  0.00    +0.000 A 
ATOM     25  C   UNL     1      -1.709  14.363  24.068  0.00  0.00    +0.000 A 
ATOM     26  C   UNL     1      -2.903  13.871  24.598  0.00  0.00    +0.000 A 
BRANCH  21  28
ATOM     27  C   UNL     1      -5.964  12.799  23.961  0.00  0.00    +0.000 C 
ATOM     28  O   UNL     1      -4.732  12.201  24.352  0.00  0.00    +0.000 OA
ENDBRANCH  21  28
BRANCH  26  29
ATOM     29  O   UNL     1      -3.388  14.452  25.735  0.00  0.00    +0.000 OA
ATOM     30  H   UNL     1      -4.209  14.007  26.002  0.00  0.00    +0.000 HD
ENDBRANCH  26  29
ENDBRANCH  19  23
ENDBRANCH   1  20
BRANCH   1  31
ATOM     31  O   UNL     1       0.893  12.081  18.719  0.00  0.00    +0.000 OA
ATOM     32  H   UNL     1       0.465  11.822  17.886  0.00  0.00    +0.000 HD
ENDBRANCH   1  31
TORSDOF 8
ENDMDL
MODEL 2
REMARK VINA RESULT:      -8.2      1.363     10.362
REMARK  Name = 
REMARK  10 active torsions:
REMARK  status: ('A' for Active; 'I' for Inactive)
REMARK    1  A    between atoms: C_1  and  O_2
REMARK    2  A    between atoms: O_2  and  C_3
REMARK    3  A    between atoms: C_5  and  C_6
REMARK    4  A    between atoms: C_7  and  C_8
REMARK    5  A    between atoms: C_8  and  O_9
REMARK    6  A    between atoms: C_14  and  C_15
REMARK    7  A    between atoms: C_18  and  O_19
REMARK    8  A    between atoms: C_20  and  O_21
REMARK    9  A    between atoms: O_21  and  C_22
REMARK   10  A    between atoms: C_28  and  O_29
REMARK                            x       y       z     vdW  Elec       q    Type
REMARK                         _______ _______ _______ _____ _____    ______ ____
ROOT
ATOM      1  C   UNL     1       1.667   9.608  18.439  0.00  0.00    +0.000 C 
ATOM      2  C   UNL     1       0.953  10.239  19.391  0.00  0.00    +0.000 C 
ATOM      3  C   UNL     1       0.528   9.661  20.715  0.00  0.00    +0.000 C 
ATOM      4  C   UNL     1      -0.829  10.286  20.984  0.00  0.00    +0.000 C 
ATOM      5  C   UNL     1      -0.710  11.653  20.397  0.00  0.00    +0.000 C 
ATOM      6  C   UNL     1      -1.380  12.761  20.753  0.00  0.00    +0.000 C 
ATOM      7  C   UNL     1       0.336  11.607  19.327  0.00  0.00    +0.000 C 
ATOM      8  O   UNL     1       0.637  12.529  18.590  0.00  0.00    +0.000 OA
ENDROOT
BRANCH   6   9
ATOM      9  C   UNL     1      -2.421  12.772  21.792  0.00  0.00    +0.000 A 
ATOM     10  C   UNL     1      -2.068  12.927  23.134  0.00  0.00    +0.000 A 
ATOM     11  C   UNL     1      -3.049  12.908  24.129  0.00  0.00    +0.000 A 
ATOM     12  C   UNL     1      -4.397  12.745  23.791  0.00  0.00    +0.000 A 
ATOM     13  C   UNL     1      -4.777  12.624  22.449  0.00  0.00    +0.000 A 
ATOM     14  C   UNL     1      -3.775  12.639  21.460  0.00  0.00    +0.000 A 
BRANCH  12  15
ATOM     15  O   UNL     1      -5.316  12.706  24.804  0.00  0.00    +0.000 OA
ATOM     16  H   UNL     1      -6.152  13.089  24.494  0.00  0.00    +0.000 HD
ENDBRANCH  12  15
BRANCH  13  17
ATOM     17  O   UNL     1      -6.040  12.486  21.934  0.00  0.00    +0.000 OA
ATOM     18  C   UNL     1      -6.185  11.900  20.648  0.00  0.00    +0.000 C 
ENDBRANCH  13  17
ENDBRANCH   6   9
BRANCH   1  20
ATOM     19  C   UNL     1       2.762   7.435  17.754  0.00  0.00    +0.000 C 
ATOM     20  C   UNL     1       2.185   8.261  18.646  0.00  0.00    +0.000 C 
BRANCH  19  23
ATOM     21  C   UNL     1       4.785   4.390  18.836  0.00  0.00    +0.000 A 
ATOM     22  C   UNL     1       4.398   5.716  18.551  0.00  0.00    +0.000 A 
ATOM     23  C   UNL     1       3.111   6.030  18.083  0.00  0.00    +0.000 A 
ATOM     24  C   UNL     1       2.195   4.980  17.942  0.00  0.00    +0.000 A 
ATOM     25  C   UNL     1       2.563   3.659  18.210  0.00  0.00    +0.000 A 
ATOM     26  C   UNL     1       3.854   3.362  18.651  0.00  0.00    +0.000 A 
BRANCH  21  28
ATOM     27  C   UNL     1       6.884   5.460  19.283  0.00  0.00    +0.000 C 
ATOM     28  O   UNL     1       6.082   4.284  19.269  0.00  0.00    +0.000 OA
ENDBRANCH  21  28
BRANCH  26  29
ATOM     29  O   UNL     1       4.165   2.054  18.891  0.00  0.00    +0.000 OA
ATOM     30  H   UNL     1       4.866   2.006  19.562  0.00  0.00    +0.000 HD
ENDBRANCH  26  29
ENDBRANCH  19  23
ENDBRANCH   1  20
BRANCH   1  31
ATOM     31  O   UNL     1       1.958  10.201  17.234  0.00  0.00    +0.000 OA
ATOM     32  H   UNL     1       1.656  11.124  17.251  0.00  0.00    +0.000 HD
ENDBRANCH   1  31
TORSDOF 8
ENDMDL
MODEL 3
REMARK VINA RESULT:      -8.1      1.485     10.163
REMARK  Name = 
REMARK  10 active torsions:
REMARK  status: ('A' for Active; 'I' for Inactive)
REMARK    1  A    between atoms: C_1  and  O_2
REMARK    2  A    between atoms: O_2  and  C_3
REMARK    3  A    between atoms: C_5  and  C_6
REMARK    4  A    between atoms: C_7  and  C_8
REMARK    5  A    between atoms: C_8  and  O_9
REMARK    6  A    between atoms: C_14  and  C_15
REMARK    7  A    between atoms: C_18  and  O_19
REMARK    8  A    between atoms: C_20  and  O_21
REMARK    9  A    between atoms: O_21  and  C_22
REMARK   10  A    between atoms: C_28  and  O_29
REMARK                            x       y       z     vdW  Elec       q    Type
REMARK                         _______ _______ _______ _____ _____    ______ ____
ROOT
ATOM      1  C   UNL     1       1.799   9.537  18.230  0.00  0.00    +0.000 C 
ATOM      2  C   UNL     1       1.048  10.102  19.195  0.00  0.00    +0.000 C 
ATOM      3  C   UNL     1       0.444   9.396  20.381  0.00  0.00    +0.000 C 
ATOM      4  C   UNL     1      -0.876  10.108  20.614  0.00  0.00    +0.000 C 
ATOM      5  C   UNL     1      -0.584  11.524  20.240  0.00  0.00    +0.000 C 
ATOM      6  C   UNL     1      -1.191  12.633  20.689  0.00  0.00    +0.000 C 
ATOM      7  C   UNL     1       0.558  11.519  19.272  0.00  0.00    +0.000 C 
ATOM      8  O   UNL     1       1.008  12.497  18.703  0.00  0.00    +0.000 OA
ENDROOT
BRANCH   6   9
ATOM      9  C   UNL     1      -2.328  12.607  21.622  0.00  0.00    +0.000 A 
ATOM     10  C   UNL     1      -2.110  12.376  22.982  0.00  0.00    +0.000 A 
ATOM     11  C   UNL     1      -3.189  12.319  23.870  0.00  0.00    +0.000 A 
ATOM     12  C   UNL     1      -4.496  12.505  23.408  0.00  0.00    +0.000 A 
ATOM     13  C   UNL     1      -4.734  12.773  22.055  0.00  0.00    +0.000 A 
ATOM     14  C   UNL     1      -3.638  12.820  21.174  0.00  0.00    +0.000 A 
BRANCH  12  15
ATOM     15  O   UNL     1      -5.519  12.412  24.313  0.00  0.00    +0.000 OA
ATOM     16  H   UNL     1      -5.153  12.403  25.211  0.00  0.00    +0.000 HD
ENDBRANCH  12  15
BRANCH  13  17
ATOM     17  O   UNL     1      -5.934  13.006  21.435  0.00  0.00    +0.000 OA
ATOM     18  C   UNL     1      -6.537  11.943  20.709  0.00  0.00    +0.000 C 
ENDBRANCH  13  17
ENDBRANCH   6   9
BRANCH   1  20
ATOM     19  C   UNL     1       3.247   7.523  17.740  0.00  0.00    +0.000 C 
ATOM     20  C   UNL     1       2.179   8.130  18.290  0.00  0.00    +0.000 C 
BRANCH  19  23
ATOM     21  C   UNL     1       2.467   3.814  18.152  0.00  0.00    +0.000 A 
ATOM     22  C   UNL     1       2.335   5.217  18.075  0.00  0.00    +0.000 A 
ATOM     23  C   UNL     1       3.424   6.050  17.767  0.00  0.00    +0.000 A 
ATOM     24  C   UNL     1       4.654   5.439  17.496  0.00  0.00    +0.000 A 
ATOM     25  C   UNL     1       4.806   4.053  17.576  0.00  0.00    +0.000 A 
ATOM     26  C   UNL     1       3.720   3.242  17.907  0.00  0.00    +0.000 A 
BRANCH  21  28
ATOM     27  C   UNL     1       0.867   3.212  19.834  0.00  0.00    +0.000 C 
ATOM     28  O   UNL     1       1.298   3.176  18.477  0.00  0.00    +0.000 OA
ENDBRANCH  21  28
BRANCH  26  29
ATOM     29  O   UNL     1       3.924   1.893  17.981  0.00  0.00    +0.000 OA
ATOM     30  H   UNL     1       3.067   1.438  18.035  0.00  0.00    +0.000 HD
ENDBRANCH  26  29
ENDBRANCH  19  23
ENDBRANCH   1  20
BRANCH   1  31
ATOM     31  O   UNL     1       2.260  10.255  17.153  0.00  0.00    +0.000 OA
ATOM     32  H   UNL     1       2.850   9.693  16.624  0.00  0.00    +0.000 HD
ENDBRANCH   1  31
TORSDOF 8
ENDMDL
MODEL 4
REMARK VINA RESULT:      -7.9      0.824      1.881
REMARK  Name = 
REMARK  10 active torsions:
REMARK  status: ('A' for Active; 'I' for Inactive)
REMARK    1  A    between atoms: C_1  and  O_2
REMARK    2  A    between atoms: O_2  and  C_3
REMARK    3  A    between atoms: C_5  and  C_6
REMARK    4  A    between atoms: C_7  and  C_8
REMARK    5  A    between atoms: C_8  and  O_9
REMARK    6  A    between atoms: C_14  and  C_15
REMARK    7  A    between atoms: C_18  and  O_19
REMARK    8  A    between atoms: C_20  and  O_21
REMARK    9  A    between atoms: O_21  and  C_22
REMARK   10  A    between atoms: C_28  and  O_29
REMARK                            x       y       z     vdW  Elec       q    Type
REMARK                         _______ _______ _______ _____ _____    ______ ____
ROOT
ATOM      1  C   UNL     1       0.536  11.236  19.546  0.00  0.00    +0.000 C 
ATOM      2  C   UNL     1       0.900   9.949  19.388  0.00  0.00    +0.000 C 
ATOM      3  C   UNL     1       0.737   8.847  20.402  0.00  0.00    +0.000 C 
ATOM      4  C   UNL     1       1.949   7.958  20.195  0.00  0.00    +0.000 C 
ATOM      5  C   UNL     1       2.197   8.037  18.724  0.00  0.00    +0.000 C 
ATOM      6  C   UNL     1       2.791   7.123  17.941  0.00  0.00    +0.000 C 
ATOM      7  C   UNL     1       1.629   9.331  18.230  0.00  0.00    +0.000 C 
ATOM      8  O   UNL     1       1.720   9.756  17.092  0.00  0.00    +0.000 OA
ENDROOT
BRANCH   6   9
ATOM      9  C   UNL     1       3.362   5.870  18.458  0.00  0.00    +0.000 A 
ATOM     10  C   UNL     1       2.531   4.780  18.722  0.00  0.00    +0.000 A 
ATOM     11  C   UNL     1       3.062   3.596  19.242  0.00  0.00    +0.000 A 
ATOM     12  C   UNL     1       4.435   3.487  19.493  0.00  0.00    +0.000 A 
ATOM     13  C   UNL     1       5.291   4.556  19.203  0.00  0.00    +0.000 A 
ATOM     14  C   UNL     1       4.738   5.742  18.686  0.00  0.00    +0.000 A 
BRANCH  12  15
ATOM     15  O   UNL     1       4.901   2.317  20.029  0.00  0.00    +0.000 OA
ATOM     16  H   UNL     1       4.478   1.568  19.580  0.00  0.00    +0.000 HD
ENDBRANCH  12  15
BRANCH  13  17
ATOM     17  O   UNL     1       6.652   4.617  19.357  0.00  0.00    +0.000 OA
ATOM     18  C   UNL     1       7.361   5.652  18.688  0.00  0.00    +0.000 C 
ENDBRANCH  13  17
ENDBRANCH   6   9
BRANCH   1  20
ATOM     19  C   UNL     1      -1.414  12.144  20.874  0.00  0.00    +0.000 C 
ATOM     20  C   UNL     1      -0.154  11.689  20.748  0.00  0.00    +0.000 C 
BRANCH  19  23
ATOM     21  C   UNL     1      -3.766  12.906  23.776  0.00  0.00    +0.000 A 
ATOM     22  C   UNL     1      -3.218  12.364  22.594  0.00  0.00    +0.000 A 
ATOM     23  C   UNL     1      -1.932  12.706  22.146  0.00  0.00    +0.000 A 
ATOM     24  C   UNL     1      -1.180  13.584  22.936  0.00  0.00    +0.000 A 
ATOM     25  C   UNL     1      -1.709  14.139  24.104  0.00  0.00    +0.000 A 
ATOM     26  C   UNL     1      -2.998  13.807  24.522  0.00  0.00    +0.000 A 
BRANCH  21  28
ATOM     27  C   UNL     1      -6.095  12.917  23.202  0.00  0.00    +0.000 C 
ATOM     28  O   UNL     1      -5.036  12.462  24.040  0.00  0.00    +0.000 OA
ENDBRANCH  21  28
BRANCH  26  29
ATOM     29  O   UNL     1      -3.471  14.383  25.666  0.00  0.00    +0.000 OA
ATOM     30  H   UNL     1      -4.066  15.117  25.438  0.00  0.00    +0.000 HD
ENDBRANCH  26  29
ENDBRANCH  19  23
ENDBRANCH   1  20
BRANCH   1  31
ATOM     31  O   UNL     1       0.779  12.184  18.581  0.00  0.00    +0.000 OA
ATOM     32  H   UNL     1       0.832  11.751  17.714  0.00  0.00    +0.000 HD
ENDBRANCH   1  31
TORSDOF 8
ENDMDL
MODEL 5
REMARK VINA RESULT:      -7.9      1.739     10.551
REMARK  Name = 
REMARK  10 active torsions:
REMARK  status: ('A' for Active; 'I' for Inactive)
REMARK    1  A    between atoms: C_1  and  O_2
REMARK    2  A    between atoms: O_2  and  C_3
REMARK    3  A    between atoms: C_5  and  C_6
REMARK    4  A    between atoms: C_7  and  C_8
REMARK    5  A    between atoms: C_8  and  O_9
REMARK    6  A    between atoms: C_14  and  C_15
REMARK    7  A    between atoms: C_18  and  O_19
REMARK    8  A    between atoms: C_20  and  O_21
REMARK    9  A    between atoms: O_21  and  C_22
REMARK   10  A    between atoms: C_28  and  O_29
REMARK                            x       y       z     vdW  Elec       q    Type
REMARK                         _______ _______ _______ _____ _____    ______ ____
ROOT
ATOM      1  C   UNL     1       1.770   9.674  18.250  0.00  0.00    +0.000 C 
ATOM      2  C   UNL     1       1.065  10.263  19.236  0.00  0.00    +0.000 C 
ATOM      3  C   UNL     1       0.517   9.587  20.464  0.00  0.00    +0.000 C 
ATOM      4  C   UNL     1      -0.791  10.307  20.742  0.00  0.00    +0.000 C 
ATOM      5  C   UNL     1      -0.514  11.713  20.321  0.00  0.00    +0.000 C 
ATOM      6  C   UNL     1      -1.099  12.834  20.772  0.00  0.00    +0.000 C 
ATOM      7  C   UNL     1       0.581  11.683  19.301  0.00  0.00    +0.000 C 
ATOM      8  O   UNL     1       1.005  12.646  18.689  0.00  0.00    +0.000 OA
ENDROOT
BRANCH   6   9
ATOM      9  C   UNL     1      -2.191  12.832  21.758  0.00  0.00    +0.000 A 
ATOM     10  C   UNL     1      -1.902  12.928  23.120  0.00  0.00    +0.000 A 
ATOM     11  C   UNL     1      -2.933  12.896  24.065  0.00  0.00    +0.000 A 
ATOM     12  C   UNL     1      -4.265  12.779  23.654  0.00  0.00    +0.000 A 
ATOM     13  C   UNL     1      -4.579  12.718  22.291  0.00  0.00    +0.000 A 
ATOM     14  C   UNL     1      -3.529  12.745  21.354  0.00  0.00    +0.000 A 
BRANCH  12  15
ATOM     15  O   UNL     1      -5.234  12.725  24.618  0.00  0.00    +0.000 OA
ATOM     16  H   UNL     1      -5.857  13.458  24.489  0.00  0.00    +0.000 HD
ENDBRANCH  12  15
BRANCH  13  17
ATOM     17  O   UNL     1      -5.818  12.631  21.710  0.00  0.00    +0.000 OA
ATOM     18  C   UNL     1      -5.901  12.196  20.359  0.00  0.00    +0.000 C 
ENDBRANCH  13  17
ENDBRANCH   6   9
BRANCH   1  20
ATOM     19  C   UNL     1       3.209   7.652  17.767  0.00  0.00    +0.000 C 
ATOM     20  C   UNL     1       2.151   8.268  18.325  0.00  0.00    +0.000 C 
BRANCH  19  23
ATOM     21  C   UNL     1       4.618   4.176  17.087  0.00  0.00    +0.000 A 
ATOM     22  C   UNL     1       4.437   5.575  17.104  0.00  0.00    +0.000 A 
ATOM     23  C   UNL     1       3.386   6.179  17.813  0.00  0.00    +0.000 A 
ATOM     24  C   UNL     1       2.532   5.346  18.546  0.00  0.00    +0.000 A 
ATOM     25  C   UNL     1       2.689   3.958  18.533  0.00  0.00    +0.000 A 
ATOM     26  C   UNL     1       3.725   3.372  17.803  0.00  0.00    +0.000 A 
BRANCH  21  28
ATOM     27  C   UNL     1       6.463   4.777  15.676  0.00  0.00    +0.000 C 
ATOM     28  O   UNL     1       5.689   3.775  16.329  0.00  0.00    +0.000 OA
ENDBRANCH  21  28
BRANCH  26  29
ATOM     29  O   UNL     1       3.829   2.011  17.817  0.00  0.00    +0.000 OA
ATOM     30  H   UNL     1       3.793   1.692  18.734  0.00  0.00    +0.000 HD
ENDBRANCH  26  29
ENDBRANCH  19  23
ENDBRANCH   1  20
BRANCH   1  31
ATOM     31  O   UNL     1       2.181  10.365  17.136  0.00  0.00    +0.000 OA
ATOM     32  H   UNL     1       1.488  10.994  16.877  0.00  0.00    +0.000 HD
ENDBRANCH   1  31
TORSDOF 8
ENDMDL
MODEL 6
REMARK VINA RESULT:      -7.9      1.517     10.593
REMARK  Name = 
REMARK  10 active torsions:
REMARK  status: ('A' for Active; 'I' for Inactive)
REMARK    1  A    between atoms: C_1  and  O_2
REMARK    2  A    between atoms: O_2  and  C_3
REMARK    3  A    between atoms: C_5  and  C_6
REMARK    4  A    between atoms: C_7  and  C_8
REMARK    5  A    between atoms: C_8  and  O_9
REMARK    6  A    between atoms: C_14  and  C_15
REMARK    7  A    between atoms: C_18  and  O_19
REMARK    8  A    between atoms: C_20  and  O_21
REMARK    9  A    between atoms: O_21  and  C_22
REMARK   10  A    between atoms: C_28  and  O_29
REMARK                            x       y       z     vdW  Elec       q    Type
REMARK                         _______ _______ _______ _____ _____    ______ ____
ROOT
ATOM      1  C   UNL     1       1.749   9.785  18.211  0.00  0.00    +0.000 C 
ATOM      2  C   UNL     1       0.883  10.378  19.056  0.00  0.00    +0.000 C 
ATOM      3  C   UNL     1       0.183   9.725  20.218  0.00  0.00    +0.000 C 
ATOM      4  C   UNL     1      -1.177  10.398  20.269  0.00  0.00    +0.000 C 
ATOM      5  C   UNL     1      -0.893  11.798  19.835  0.00  0.00    +0.000 C 
ATOM      6  C   UNL     1      -1.579  12.909  20.146  0.00  0.00    +0.000 C 
ATOM      7  C   UNL     1       0.342  11.778  18.990  0.00  0.00    +0.000 C 
ATOM      8  O   UNL     1       0.817  12.736  18.407  0.00  0.00    +0.000 OA
ENDROOT
BRANCH   6   9
ATOM      9  C   UNL     1      -2.805  12.896  20.959  0.00  0.00    +0.000 A 
ATOM     10  C   UNL     1      -4.048  12.721  20.347  0.00  0.00    +0.000 A 
ATOM     11  C   UNL     1      -5.220  12.738  21.110  0.00  0.00    +0.000 A 
ATOM     12  C   UNL     1      -5.159  12.920  22.496  0.00  0.00    +0.000 A 
ATOM     13  C   UNL     1      -3.921  13.061  23.134  0.00  0.00    +0.000 A 
ATOM     14  C   UNL     1      -2.752  13.048  22.351  0.00  0.00    +0.000 A 
BRANCH  12  15
ATOM     15  O   UNL     1      -6.336  12.957  23.193  0.00  0.00    +0.000 OA
ATOM     16  H   UNL     1      -6.170  13.305  24.084  0.00  0.00    +0.000 HD
ENDBRANCH  12  15
BRANCH  13  17
ATOM     17  O   UNL     1      -3.671  13.219  24.473  0.00  0.00    +0.000 OA
ATOM     18  C   UNL     1      -3.237  14.492  24.933  0.00  0.00    +0.000 C 
ENDBRANCH  13  17
ENDBRANCH   6   9
BRANCH   1  20
ATOM     19  C   UNL     1       3.163   7.732  17.793  0.00  0.00    +0.000 C 
ATOM     20  C   UNL     1       2.165   8.400  18.401  0.00  0.00    +0.000 C 
BRANCH  19  23
ATOM     21  C   UNL     1       4.921   4.401  18.385  0.00  0.00    +0.000 A 
ATOM     22  C   UNL     1       4.667   5.781  18.235  0.00  0.00    +0.000 A 
ATOM     23  C   UNL     1       3.375   6.276  17.987  0.00  0.00    +0.000 A 
ATOM     24  C   UNL     1       2.324   5.352  17.930  0.00  0.00    +0.000 A 
ATOM     25  C   UNL     1       2.558   3.982  18.066  0.00  0.00    +0.000 A 
ATOM     26  C   UNL     1       3.851   3.505  18.287  0.00  0.00    +0.000 A 
BRANCH  21  28
ATOM     27  C   UNL     1       7.222   4.819  17.851  0.00  0.00    +0.000 C 
ATOM     28  O   UNL     1       6.243   4.113  18.607  0.00  0.00    +0.000 OA
ENDBRANCH  21  28
BRANCH  26  29
ATOM     29  O   UNL     1       4.026   2.155  18.405  0.00  0.00    +0.000 OA
ATOM     30  H   UNL     1       4.572   1.834  17.667  0.00  0.00    +0.000 HD
ENDBRANCH  26  29
ENDBRANCH  19  23
ENDBRANCH   1  20
BRANCH   1  31
ATOM     31  O   UNL     1       2.295  10.452  17.142  0.00  0.00    +0.000 OA
ATOM     32  H   UNL     1       3.117  10.010  16.876  0.00  0.00    +0.000 HD
ENDBRANCH   1  31
TORSDOF 8
ENDMDL
MODEL 7
REMARK VINA RESULT:      -7.8      0.721      1.784
REMARK  Name = 
REMARK  10 active torsions:
REMARK  status: ('A' for Active; 'I' for Inactive)
REMARK    1  A    between atoms: C_1  and  O_2
REMARK    2  A    between atoms: O_2  and  C_3
REMARK    3  A    between atoms: C_5  and  C_6
REMARK    4  A    between atoms: C_7  and  C_8
REMARK    5  A    between atoms: C_8  and  O_9
REMARK    6  A    between atoms: C_14  and  C_15
REMARK    7  A    between atoms: C_18  and  O_19
REMARK    8  A    between atoms: C_20  and  O_21
REMARK    9  A    between atoms: O_21  and  C_22
REMARK   10  A    between atoms: C_28  and  O_29
REMARK                            x       y       z     vdW  Elec       q    Type
REMARK                         _______ _______ _______ _____ _____    ______ ____
ROOT
ATOM      1  C   UNL     1       0.655  11.178  19.618  0.00  0.00    +0.000 C 
ATOM      2  C   UNL     1       0.976   9.876  19.487  0.00  0.00    +0.000 C 
ATOM      3  C   UNL     1       0.744   8.795  20.510  0.00  0.00    +0.000 C 
ATOM      4  C   UNL     1       1.929   7.860  20.348  0.00  0.00    +0.000 C 
ATOM      5  C   UNL     1       2.221   7.910  18.885  0.00  0.00    +0.000 C 
ATOM      6  C   UNL     1       2.804   6.965  18.131  0.00  0.00    +0.000 C 
ATOM      7  C   UNL     1       1.715   9.217  18.358  0.00  0.00    +0.000 C 
ATOM      8  O   UNL     1       1.854   9.623  17.218  0.00  0.00    +0.000 OA
ENDROOT
BRANCH   6   9
ATOM      9  C   UNL     1       3.314   5.699  18.680  0.00  0.00    +0.000 A 
ATOM     10  C   UNL     1       4.688   5.453  18.710  0.00  0.00    +0.000 A 
ATOM     11  C   UNL     1       5.178   4.240  19.202  0.00  0.00    +0.000 A 
ATOM     12  C   UNL     1       4.297   3.263  19.681  0.00  0.00    +0.000 A 
ATOM     13  C   UNL     1       2.918   3.504  19.694  0.00  0.00    +0.000 A 
ATOM     14  C   UNL     1       2.442   4.728  19.189  0.00  0.00    +0.000 A 
BRANCH  12  15
ATOM     15  O   UNL     1       4.825   2.082  20.126  0.00  0.00    +0.000 OA
ATOM     16  H   UNL     1       4.614   1.377  19.493  0.00  0.00    +0.000 HD
ENDBRANCH  12  15
BRANCH  13  17
ATOM     17  O   UNL     1       1.919   2.682  20.146  0.00  0.00    +0.000 OA
ATOM     18  C   UNL     1       1.631   2.672  21.538  0.00  0.00    +0.000 C 
ENDBRANCH  13  17
ENDBRANCH   6   9
BRANCH   1  20
ATOM     19  C   UNL     1      -1.327  12.089  20.895  0.00  0.00    +0.000 C 
ATOM     20  C   UNL     1      -0.052  11.671  20.794  0.00  0.00    +0.000 C 
BRANCH  19  23
ATOM     21  C   UNL     1      -1.558  14.225  24.044  0.00  0.00    +0.000 A 
ATOM     22  C   UNL     1      -1.103  13.648  22.840  0.00  0.00    +0.000 A 
ATOM     23  C   UNL     1      -1.866  12.702  22.135  0.00  0.00    +0.000 A 
ATOM     24  C   UNL     1      -3.126  12.370  22.647  0.00  0.00    +0.000 A 
ATOM     25  C   UNL     1      -3.589  12.924  23.843  0.00  0.00    +0.000 A 
ATOM     26  C   UNL     1      -2.808  13.844  24.543  0.00  0.00    +0.000 A 
BRANCH  21  28
ATOM     27  C   UNL     1      -0.322  16.270  23.831  0.00  0.00    +0.000 C 
ATOM     28  O   UNL     1      -0.669  15.115  24.590  0.00  0.00    +0.000 OA
ENDBRANCH  21  28
BRANCH  26  29
ATOM     29  O   UNL     1      -3.303  14.349  25.712  0.00  0.00    +0.000 OA
ATOM     30  H   UNL     1      -2.991  13.809  26.456  0.00  0.00    +0.000 HD
ENDBRANCH  26  29
ENDBRANCH  19  23
ENDBRANCH   1  20
BRANCH   1  31
ATOM     31  O   UNL     1       0.960  12.104  18.649  0.00  0.00    +0.000 OA
ATOM     32  H   UNL     1       1.802  12.533  18.872  0.00  0.00    +0.000 HD
ENDBRANCH   1  31
TORSDOF 8
ENDMDL
MODEL 8
REMARK VINA RESULT:      -7.7      1.261     10.286
REMARK  Name = 
REMARK  10 active torsions:
REMARK  status: ('A' for Active; 'I' for Inactive)
REMARK    1  A    between atoms: C_1  and  O_2
REMARK    2  A    between atoms: O_2  and  C_3
REMARK    3  A    between atoms: C_5  and  C_6
REMARK    4  A    between atoms: C_7  and  C_8
REMARK    5  A    between atoms: C_8  and  O_9
REMARK    6  A    between atoms: C_14  and  C_15
REMARK    7  A    between atoms: C_18  and  O_19
REMARK    8  A    between atoms: C_20  and  O_21
REMARK    9  A    between atoms: O_21  and  C_22
REMARK   10  A    between atoms: C_28  and  O_29
REMARK                            x       y       z     vdW  Elec       q    Type
REMARK                         _______ _______ _______ _____ _____    ______ ____
ROOT
ATOM      1  C   UNL     1       1.706   9.217  18.309  0.00  0.00    +0.000 C 
ATOM      2  C   UNL     1       1.206   9.951  19.321  0.00  0.00    +0.000 C 
ATOM      3  C   UNL     1       0.655   9.420  20.619  0.00  0.00    +0.000 C 
ATOM      4  C   UNL     1      -0.474  10.372  20.970  0.00  0.00    +0.000 C 
ATOM      5  C   UNL     1       0.010  11.692  20.468  0.00  0.00    +0.000 C 
ATOM      6  C   UNL     1      -0.324  12.912  20.915  0.00  0.00    +0.000 C 
ATOM      7  C   UNL     1       0.989  11.436  19.365  0.00  0.00    +0.000 C 
ATOM      8  O   UNL     1       1.523  12.290  18.679  0.00  0.00    +0.000 OA
ENDROOT
BRANCH   6   9
ATOM      9  C   UNL     1      -1.309  13.136  21.986  0.00  0.00    +0.000 A 
ATOM     10  C   UNL     1      -2.569  12.539  21.911  0.00  0.00    +0.000 A 
ATOM     11  C   UNL     1      -3.520  12.771  22.909  0.00  0.00    +0.000 A 
ATOM     12  C   UNL     1      -3.216  13.595  23.999  0.00  0.00    +0.000 A 
ATOM     13  C   UNL     1      -1.946  14.174  24.111  0.00  0.00    +0.000 A 
ATOM     14  C   UNL     1      -1.003  13.935  23.094  0.00  0.00    +0.000 A 
BRANCH  12  15
ATOM     15  O   UNL     1      -4.190  13.813  24.934  0.00  0.00    +0.000 OA
ATOM     16  H   UNL     1      -4.114  14.719  25.273  0.00  0.00    +0.000 HD
ENDBRANCH  12  15
BRANCH  13  17
ATOM     17  O   UNL     1      -1.467  14.978  25.113  0.00  0.00    +0.000 OA
ATOM     18  C   UNL     1      -1.706  16.377  25.028  0.00  0.00    +0.000 C 
ENDBRANCH  13  17
ENDBRANCH   6   9
BRANCH   1  20
ATOM     19  C   UNL     1       2.930   7.006  18.231  0.00  0.00    +0.000 C 
ATOM     20  C   UNL     1       1.835   7.768  18.413  0.00  0.00    +0.000 C 
BRANCH  19  23
ATOM     21  C   UNL     1       1.952   3.444  19.175  0.00  0.00    +0.000 A 
ATOM     22  C   UNL     1       2.009   4.852  19.112  0.00  0.00    +0.000 A 
ATOM     23  C   UNL     1       2.873   5.523  18.231  0.00  0.00    +0.000 A 
ATOM     24  C   UNL     1       3.661   4.744  17.374  0.00  0.00    +0.000 A 
ATOM     25  C   UNL     1       3.625   3.349  17.428  0.00  0.00    +0.000 A 
ATOM     26  C   UNL     1       2.779   2.699  18.328  0.00  0.00    +0.000 A 
BRANCH  21  28
ATOM     27  C   UNL     1       1.501   2.845  21.453  0.00  0.00    +0.000 C 
ATOM     28  O   UNL     1       1.060   2.977  20.106  0.00  0.00    +0.000 OA
ENDBRANCH  21  28
BRANCH  26  29
ATOM     29  O   UNL     1       2.789   1.333  18.346  0.00  0.00    +0.000 OA
ATOM     30  H   UNL     1       2.018   1.010  18.842  0.00  0.00    +0.000 HD
ENDBRANCH  26  29
ENDBRANCH  19  23
ENDBRANCH   1  20
BRANCH   1  31
ATOM     31  O   UNL     1       2.134   9.791  17.136  0.00  0.00    +0.000 OA
ATOM     32  H   UNL     1       3.003  10.198  17.278  0.00  0.00    +0.000 HD
ENDBRANCH   1  31
TORSDOF 8
ENDMDL
MODEL 9
REMARK VINA RESULT:      -7.7      1.045      2.558
REMARK  Name = 
REMARK  10 active torsions:
REMARK  status: ('A' for Active; 'I' for Inactive)
REMARK    1  A    between atoms: C_1  and  O_2
REMARK    2  A    between atoms: O_2  and  C_3
REMARK    3  A    between atoms: C_5  and  C_6
REMARK    4  A    between atoms: C_7  and  C_8
REMARK    5  A    between atoms: C_8  and  O_9
REMARK    6  A    between atoms: C_14  and  C_15
REMARK    7  A    between atoms: C_18  and  O_19
REMARK    8  A    between atoms: C_20  and  O_21
REMARK    9  A    between atoms: O_21  and  C_22
REMARK   10  A    between atoms: C_28  and  O_29
REMARK                            x       y       z     vdW  Elec       q    Type
REMARK                         _______ _______ _______ _____ _____    ______ ____
ROOT
ATOM      1  C   UNL     1       0.599  11.281  19.532  0.00  0.00    +0.000 C 
ATOM      2  C   UNL     1       0.947   9.991  19.367  0.00  0.00    +0.000 C 
ATOM      3  C   UNL     1       0.733   8.878  20.359  0.00  0.00    +0.000 C 
ATOM      4  C   UNL     1       1.937   7.972  20.178  0.00  0.00    +0.000 C 
ATOM      5  C   UNL     1       2.234   8.067  18.718  0.00  0.00    +0.000 C 
ATOM      6  C   UNL     1       2.839   7.155  17.942  0.00  0.00    +0.000 C 
ATOM      7  C   UNL     1       1.704   9.378  18.224  0.00  0.00    +0.000 C 
ATOM      8  O   UNL     1       1.839   9.817  17.097  0.00  0.00    +0.000 OA
ENDROOT
BRANCH   6   9
ATOM      9  C   UNL     1       3.373   5.885  18.459  0.00  0.00    +0.000 A 
ATOM     10  C   UNL     1       2.500   4.879  18.876  0.00  0.00    +0.000 A 
ATOM     11  C   UNL     1       3.000   3.682  19.397  0.00  0.00    +0.000 A 
ATOM     12  C   UNL     1       4.380   3.475  19.495  0.00  0.00    +0.000 A 
ATOM     13  C   UNL     1       5.273   4.456  19.049  0.00  0.00    +0.000 A 
ATOM     14  C   UNL     1       4.753   5.658  18.533  0.00  0.00    +0.000 A 
BRANCH  12  15
ATOM     15  O   UNL     1       4.819   2.297  20.037  0.00  0.00    +0.000 OA
ATOM     16  H   UNL     1       5.788   2.307  20.085  0.00  0.00    +0.000 HD
ENDBRANCH  12  15
BRANCH  13  17
ATOM     17  O   UNL     1       6.643   4.415  19.042  0.00  0.00    +0.000 OA
ATOM     18  C   UNL     1       7.341   5.292  18.167  0.00  0.00    +0.000 C 
ENDBRANCH  13  17
ENDBRANCH   6   9
BRANCH   1  20
ATOM     19  C   UNL     1      -1.382  12.193  20.810  0.00  0.00    +0.000 C 
ATOM     20  C   UNL     1      -0.123  11.728  20.717  0.00  0.00    +0.000 C 
BRANCH  19  23
ATOM     21  C   UNL     1      -1.649  14.190  24.046  0.00  0.00    +0.000 A 
ATOM     22  C   UNL     1      -1.183  13.670  22.821  0.00  0.00    +0.000 A 
ATOM     23  C   UNL     1      -1.933  12.748  22.072  0.00  0.00    +0.000 A 
ATOM     24  C   UNL     1      -3.193  12.384  22.562  0.00  0.00    +0.000 A 
ATOM     25  C   UNL     1      -3.667  12.882  23.778  0.00  0.00    +0.000 A 
ATOM     26  C   UNL     1      -2.898  13.778  24.522  0.00  0.00    +0.000 A 
BRANCH  21  28
ATOM     27  C   UNL     1      -0.768  16.417  24.190  0.00  0.00    +0.000 C 
ATOM     28  O   UNL     1      -0.770  15.064  24.635  0.00  0.00    +0.000 OA
ENDBRANCH  21  28
BRANCH  26  29
ATOM     29  O   UNL     1      -3.404  14.228  25.708  0.00  0.00    +0.000 OA
ATOM     30  H   UNL     1      -4.349  14.006  25.762  0.00  0.00    +0.000 HD
ENDBRANCH  26  29
ENDBRANCH  19  23
ENDBRANCH   1  20
BRANCH   1  31
ATOM     31  O   UNL     1       0.888  12.239  18.589  0.00  0.00    +0.000 OA
ATOM     32  H   UNL     1       0.419  12.029  17.766  0.00  0.00    +0.000 HD
ENDBRANCH   1  31
TORSDOF 8
ENDMDL
