MODEL 1
REMARK VINA RESULT:      -7.1      0.000      0.000
REMARK  Name = 
REMARK  9 active torsions:
REMARK  status: ('A' for Active; 'I' for Inactive)
REMARK    1  A    between atoms: C_1  and  C_2
REMARK    2  A    between atoms: C_5  and  C_6
REMARK    3  A    between atoms: C_7  and  C_8
REMARK    4  A    between atoms: C_11  and  C_12
REMARK    5  A    between atoms: C_13  and  C_14
REMARK    6  A    between atoms: C_17  and  C_18
REMARK    7  A    between atoms: C_22  and  C_24
REMARK    8  A    between atoms: C_24  and  N_25
REMARK    9  A    between atoms: N_28  and  C_29
REMARK                            x       y       z     vdW  Elec       q    Type
REMARK                         _______ _______ _______ _____ _____    ______ ____
ROOT
ATOM      1  C   UNL     1      -0.082  11.453  18.955  0.00  0.00    +0.000 C 
ATOM      2  C   UNL     1       0.677  12.418  19.873  0.00  0.00    +0.000 C 
ATOM      3  C   UNL     1       2.135  12.844  19.708  0.00  0.00    +0.000 C 
ATOM      4  C   UNL     1      -0.091  13.672  19.646  0.00  0.00    +0.000 C 
ATOM      5  O   UNL     1       0.097  14.430  18.699  0.00  0.00    +0.000 OA
ATOM      6  C   UNL     1      -1.257  13.733  20.521  0.00  0.00    +0.000 C 
ATOM      7  C   UNL     1      -1.431  15.196  20.907  0.00  0.00    +0.000 C 
ATOM      8  C   UNL     1      -2.330  12.872  19.778  0.00  0.00    +0.000 C 
ATOM      9  N   UNL     1      -1.668  11.471  19.173  0.00  0.00    +0.000 N 
ATOM     10  C   UNL     1      -2.233  10.675  18.072  0.00  0.00    +0.000 C 
ATOM     11  O   UNL     1      -1.817   9.526  17.868  0.00  0.00    +0.000 OA
ENDROOT
BRANCH   1  16
ATOM     12  C   UNL     1       3.105   6.499  19.301  0.00  0.00    +0.000 C 
ATOM     13  C   UNL     1       2.204   7.685  19.110  0.00  0.00    +0.000 A 
ATOM     14  C   UNL     1       2.121   8.395  17.900  0.00  0.00    +0.000 A 
ATOM     15  C   UNL     1       1.372   9.592  17.792  0.00  0.00    +0.000 A 
ATOM     16  C   UNL     1       0.721  10.129  18.907  0.00  0.00    +0.000 A 
ATOM     17  C   UNL     1       0.776   9.366  20.101  0.00  0.00    +0.000 A 
ATOM     18  C   UNL     1       1.489   8.166  20.201  0.00  0.00    +0.000 A 
ENDBRANCH   1  16
BRANCH   8  19
ATOM     19  C   UNL     1      -3.514  12.983  20.877  0.00  0.00    +0.000 A 
ATOM     20  C   UNL     1      -4.487  14.003  20.638  0.00  0.00    +0.000 A 
ATOM     21  C   UNL     1      -5.011  14.819  21.679  0.00  0.00    +0.000 A 
ATOM     22  C   UNL     1      -4.626  14.652  23.008  0.00  0.00    +0.000 A 
ATOM     23  C   UNL     1      -4.946  15.686  24.065  0.00  0.00    +0.000 C 
ATOM     24  C   UNL     1      -3.809  13.543  23.284  0.00  0.00    +0.000 A 
ATOM     25  C   UNL     1      -3.288  12.702  22.254  0.00  0.00    +0.000 A 
ENDBRANCH   8  19
BRANCH  10  26
ATOM     26  C   UNL     1      -3.282  11.254  17.071  0.00  0.00    +0.000 C 
BRANCH  26  27
ATOM     27  N   UNL     1      -4.744  11.363  17.495  0.00  0.00    +0.000 NA
ATOM     28  C   UNL     1      -5.444  12.659  17.412  0.00  0.00    +0.000 C 
ATOM     29  C   UNL     1      -7.018  12.535  17.570  0.00  0.00    +0.000 C 
ATOM     30  N   UNL     1      -7.543  11.662  18.644  0.00  0.00    +0.000 NA
ATOM     31  C   UNL     1      -7.742  12.355  19.905  0.00  0.00    +0.000 C 
ATOM     32  C   UNL     1      -6.700  10.463  18.773  0.00  0.00    +0.000 C 
ATOM     33  C   UNL     1      -5.148  10.701  18.735  0.00  0.00    +0.000 C 
ENDBRANCH  26  27
ENDBRANCH  10  26
TORSDOF 4
ENDMDL
MODEL 2
REMARK VINA RESULT:      -7.0      1.179      1.675
REMARK  Name = 
REMARK  9 active torsions:
REMARK  status: ('A' for Active; 'I' for Inactive)
REMARK    1  A    between atoms: C_1  and  C_2
REMARK    2  A    between atoms: C_5  and  C_6
REMARK    3  A    between atoms: C_7  and  C_8
REMARK    4  A    between atoms: C_11  and  C_12
REMARK    5  A    between atoms: C_13  and  C_14
REMARK    6  A    between atoms: C_17  and  C_18
REMARK    7  A    between atoms: C_22  and  C_24
REMARK    8  A    between atoms: C_24  and  N_25
REMARK    9  A    between atoms: N_28  and  C_29
REMARK                            x       y       z     vdW  Elec       q    Type
REMARK                         _______ _______ _______ _____ _____    ______ ____
ROOT
ATOM      1  C   UNL     1       0.254  12.013  19.258  0.00  0.00    +0.000 C 
ATOM      2  C   UNL     1       1.345  12.909  19.856  0.00  0.00    +0.000 C 
ATOM      3  C   UNL     1       2.734  13.136  19.264  0.00  0.00    +0.000 C 
ATOM      4  C   UNL     1       0.690  14.240  19.758  0.00  0.00    +0.000 C 
ATOM      5  O   UNL     1       0.686  14.930  18.742  0.00  0.00    +0.000 OA
ATOM      6  C   UNL     1      -0.166  14.485  20.913  0.00  0.00    +0.000 C 
ATOM      7  C   UNL     1      -0.058  15.973  21.223  0.00  0.00    +0.000 C 
ATOM      8  C   UNL     1      -1.495  13.740  20.562  0.00  0.00    +0.000 C 
ATOM      9  N   UNL     1      -1.193  12.244  19.904  0.00  0.00    +0.000 N 
ATOM     10  C   UNL     1      -2.132  11.483  19.064  0.00  0.00    +0.000 C 
ATOM     11  O   UNL     1      -1.923  10.283  18.839  0.00  0.00    +0.000 OA
ENDROOT
BRANCH   1  16
ATOM     12  C   UNL     1       2.745   6.665  19.126  0.00  0.00    +0.000 C 
ATOM     13  C   UNL     1       2.002   7.968  19.066  0.00  0.00    +0.000 A 
ATOM     14  C   UNL     1       1.889   8.731  17.891  0.00  0.00    +0.000 A 
ATOM     15  C   UNL     1       1.305  10.021  17.896  0.00  0.00    +0.000 A 
ATOM     16  C   UNL     1       0.857  10.596  19.089  0.00  0.00    +0.000 A 
ATOM     17  C   UNL     1       0.933   9.785  20.250  0.00  0.00    +0.000 A 
ATOM     18  C   UNL     1       1.479   8.497  20.241  0.00  0.00    +0.000 A 
ENDBRANCH   1  16
BRANCH   8  19
ATOM     19  C   UNL     1      -2.299  14.046  21.934  0.00  0.00    +0.000 A 
ATOM     20  C   UNL     1      -2.294  12.995  22.902  0.00  0.00    +0.000 A 
ATOM     21  C   UNL     1      -3.448  12.644  23.657  0.00  0.00    +0.000 A 
ATOM     22  C   UNL     1      -4.654  13.328  23.515  0.00  0.00    +0.000 A 
ATOM     23  C   UNL     1      -5.947  12.787  24.086  0.00  0.00    +0.000 C 
ATOM     24  C   UNL     1      -4.628  14.473  22.702  0.00  0.00    +0.000 A 
ATOM     25  C   UNL     1      -3.474  14.851  21.952  0.00  0.00    +0.000 A 
ENDBRANCH   8  19
BRANCH  10  26
ATOM     26  C   UNL     1      -3.350  12.152  18.352  0.00  0.00    +0.000 C 
BRANCH  26  27
ATOM     27  N   UNL     1      -4.763  11.859  18.847  0.00  0.00    +0.000 NA
ATOM     28  C   UNL     1      -5.082  11.971  20.283  0.00  0.00    +0.000 C 
ATOM     29  C   UNL     1      -6.640  11.959  20.584  0.00  0.00    +0.000 C 
ATOM     30  N   UNL     1      -7.478  10.961  19.882  0.00  0.00    +0.000 NA
ATOM     31  C   UNL     1      -7.603   9.705  20.601  0.00  0.00    +0.000 C 
ATOM     32  C   UNL     1      -6.999  10.788  18.500  0.00  0.00    +0.000 C 
ATOM     33  C   UNL     1      -5.444  10.679  18.315  0.00  0.00    +0.000 C 
ENDBRANCH  26  27
ENDBRANCH  10  26
TORSDOF 4
ENDMDL
MODEL 3
REMARK VINA RESULT:      -6.7      5.931     10.608
REMARK  Name = 
REMARK  9 active torsions:
REMARK  status: ('A' for Active; 'I' for Inactive)
REMARK    1  A    between atoms: C_1  and  C_2
REMARK    2  A    between atoms: C_5  and  C_6
REMARK    3  A    between atoms: C_7  and  C_8
REMARK    4  A    between atoms: C_11  and  C_12
REMARK    5  A    between atoms: C_13  and  C_14
REMARK    6  A    between atoms: C_17  and  C_18
REMARK    7  A    between atoms: C_22  and  C_24
REMARK    8  A    between atoms: C_24  and  N_25
REMARK    9  A    between atoms: N_28  and  C_29
REMARK                            x       y       z     vdW  Elec       q    Type
REMARK                         _______ _______ _______ _____ _____    ______ ____
ROOT
ATOM      1  C   UNL     1       3.902  15.322  19.794  0.00  0.00    +0.000 C 
ATOM      2  C   UNL     1       4.255  16.057  18.496  0.00  0.00    +0.000 C 
ATOM      3  C   UNL     1       3.347  17.031  17.749  0.00  0.00    +0.000 C 
ATOM      4  C   UNL     1       5.385  16.906  18.962  0.00  0.00    +0.000 C 
ATOM      5  O   UNL     1       5.244  17.985  19.532  0.00  0.00    +0.000 OA
ATOM      6  C   UNL     1       6.644  16.172  18.906  0.00  0.00    +0.000 C 
ATOM      7  C   UNL     1       7.715  17.180  18.510  0.00  0.00    +0.000 C 
ATOM      8  C   UNL     1       6.650  15.335  20.227  0.00  0.00    +0.000 C 
ATOM      9  N   UNL     1       5.163  14.650  20.516  0.00  0.00    +0.000 N 
ATOM     10  C   UNL     1       4.678  14.201  21.831  0.00  0.00    +0.000 C 
ATOM     11  O   UNL     1       3.677  13.476  21.903  0.00  0.00    +0.000 OA
ENDROOT
BRANCH   1  16
ATOM     12  C   UNL     1      -0.891  12.207  18.327  0.00  0.00    +0.000 C 
ATOM     13  C   UNL     1       0.304  12.953  18.846  0.00  0.00    +0.000 A 
ATOM     14  C   UNL     1       0.200  14.053  19.716  0.00  0.00    +0.000 A 
ATOM     15  C   UNL     1       1.332  14.824  20.076  0.00  0.00    +0.000 A 
ATOM     16  C   UNL     1       2.591  14.536  19.540  0.00  0.00    +0.000 A 
ATOM     17  C   UNL     1       2.678  13.389  18.709  0.00  0.00    +0.000 A 
ATOM     18  C   UNL     1       1.566  12.607  18.378  0.00  0.00    +0.000 A 
ENDBRANCH   1  16
BRANCH   8  19
ATOM     19  C   UNL     1       8.046  14.547  19.993  0.00  0.00    +0.000 A 
ATOM     20  C   UNL     1       8.244  14.015  18.682  0.00  0.00    +0.000 A 
ATOM     21  C   UNL     1       8.811  12.729  18.455  0.00  0.00    +0.000 A 
ATOM     22  C   UNL     1       9.235  11.919  19.506  0.00  0.00    +0.000 A 
ATOM     23  C   UNL     1       9.562  10.456  19.300  0.00  0.00    +0.000 C 
ATOM     24  C   UNL     1       9.212  12.496  20.786  0.00  0.00    +0.000 A 
ATOM     25  C   UNL     1       8.664  13.792  21.030  0.00  0.00    +0.000 A 
ENDBRANCH   8  19
BRANCH  10  26
ATOM     26  C   UNL     1       5.323  14.681  23.170  0.00  0.00    +0.000 C 
BRANCH  26  27
ATOM     27  N   UNL     1       5.346  13.742  24.372  0.00  0.00    +0.000 NA
ATOM     28  C   UNL     1       5.467  14.290  25.737  0.00  0.00    +0.000 C 
ATOM     29  C   UNL     1       5.146  13.229  26.872  0.00  0.00    +0.000 C 
ATOM     30  N   UNL     1       5.726  11.873  26.740  0.00  0.00    +0.000 NA
ATOM     31  C   UNL     1       7.033  11.741  27.361  0.00  0.00    +0.000 C 
ATOM     32  C   UNL     1       5.715  11.458  25.328  0.00  0.00    +0.000 C 
ATOM     33  C   UNL     1       6.173  12.539  24.286  0.00  0.00    +0.000 C 
ENDBRANCH  26  27
ENDBRANCH  10  26
TORSDOF 4
ENDMDL
MODEL 4
REMARK VINA RESULT:      -6.7      1.272      1.456
REMARK  Name = 
REMARK  9 active torsions:
REMARK  status: ('A' for Active; 'I' for Inactive)
REMARK    1  A    between atoms: C_1  and  C_2
REMARK    2  A    between atoms: C_5  and  C_6
REMARK    3  A    between atoms: C_7  and  C_8
REMARK    4  A    between atoms: C_11  and  C_12
REMARK    5  A    between atoms: C_13  and  C_14
REMARK    6  A    between atoms: C_17  and  C_18
REMARK    7  A    between atoms: C_22  and  C_24
REMARK    8  A    between atoms: C_24  and  N_25
REMARK    9  A    between atoms: N_28  and  C_29
REMARK                            x       y       z     vdW  Elec       q    Type
REMARK                         _______ _______ _______ _____ _____    ______ ____
ROOT
ATOM      1  C   UNL     1       0.270  11.873  19.152  0.00  0.00    +0.000 C 
ATOM      2  C   UNL     1       1.317  12.789  19.795  0.00  0.00    +0.000 C 
ATOM      3  C   UNL     1       2.728  13.040  19.265  0.00  0.00    +0.000 C 
ATOM      4  C   UNL     1       0.644  14.108  19.662  0.00  0.00    +0.000 C 
ATOM      5  O   UNL     1       0.673  14.795  18.644  0.00  0.00    +0.000 OA
ATOM      6  C   UNL     1      -0.267  14.342  20.776  0.00  0.00    +0.000 C 
ATOM      7  C   UNL     1      -0.200  15.833  21.084  0.00  0.00    +0.000 C 
ATOM      8  C   UNL     1      -1.566  13.572  20.369  0.00  0.00    +0.000 C 
ATOM      9  N   UNL     1      -1.208  12.079  19.731  0.00  0.00    +0.000 N 
ATOM     10  C   UNL     1      -2.095  11.299  18.852  0.00  0.00    +0.000 C 
ATOM     11  O   UNL     1      -1.854  10.102  18.642  0.00  0.00    +0.000 OA
ENDROOT
BRANCH   1  16
ATOM     12  C   UNL     1       2.861   6.571  19.153  0.00  0.00    +0.000 C 
ATOM     13  C   UNL     1       2.097   7.860  19.055  0.00  0.00    +0.000 A 
ATOM     14  C   UNL     1       2.018   8.613  17.871  0.00  0.00    +0.000 A 
ATOM     15  C   UNL     1       1.411   9.892  17.845  0.00  0.00    +0.000 A 
ATOM     16  C   UNL     1       0.905  10.466  19.016  0.00  0.00    +0.000 A 
ATOM     17  C   UNL     1       0.949   9.663  20.184  0.00  0.00    +0.000 A 
ATOM     18  C   UNL     1       1.519   8.385  20.205  0.00  0.00    +0.000 A 
ENDBRANCH   1  16
BRANCH   8  19
ATOM     19  C   UNL     1      -2.436  13.869  21.701  0.00  0.00    +0.000 A 
ATOM     20  C   UNL     1      -3.300  15.006  21.637  0.00  0.00    +0.000 A 
ATOM     21  C   UNL     1      -3.459  15.909  22.725  0.00  0.00    +0.000 A 
ATOM     22  C   UNL     1      -2.798  15.722  23.937  0.00  0.00    +0.000 A 
ATOM     23  C   UNL     1      -2.729  16.813  24.983  0.00  0.00    +0.000 C 
ATOM     24  C   UNL     1      -2.087  14.519  24.079  0.00  0.00    +0.000 A 
ATOM     25  C   UNL     1      -1.933  13.592  23.004  0.00  0.00    +0.000 A 
ENDBRANCH   8  19
BRANCH  10  26
ATOM     26  C   UNL     1      -3.291  11.944  18.084  0.00  0.00    +0.000 C 
BRANCH  26  27
ATOM     27  N   UNL     1      -4.697  11.856  18.671  0.00  0.00    +0.000 NA
ATOM     28  C   UNL     1      -4.910  12.069  20.115  0.00  0.00    +0.000 C 
ATOM     29  C   UNL     1      -6.436  12.270  20.502  0.00  0.00    +0.000 C 
ATOM     30  N   UNL     1      -7.433  11.358  19.899  0.00  0.00    +0.000 NA
ATOM     31  C   UNL     1      -7.670  10.160  20.686  0.00  0.00    +0.000 C 
ATOM     32  C   UNL     1      -7.066  11.066  18.504  0.00  0.00    +0.000 C 
ATOM     33  C   UNL     1      -5.551  10.751  18.238  0.00  0.00    +0.000 C 
ENDBRANCH  26  27
ENDBRANCH  10  26
TORSDOF 4
ENDMDL
MODEL 5
REMARK VINA RESULT:      -6.6      5.957     10.700
REMARK  Name = 
REMARK  9 active torsions:
REMARK  status: ('A' for Active; 'I' for Inactive)
REMARK    1  A    between atoms: C_1  and  C_2
REMARK    2  A    between atoms: C_5  and  C_6
REMARK    3  A    between atoms: C_7  and  C_8
REMARK    4  A    between atoms: C_11  and  C_12
REMARK    5  A    between atoms: C_13  and  C_14
REMARK    6  A    between atoms: C_17  and  C_18
REMARK    7  A    between atoms: C_22  and  C_24
REMARK    8  A    between atoms: C_24  and  N_25
REMARK    9  A    between atoms: N_28  and  C_29
REMARK                            x       y       z     vdW  Elec       q    Type
REMARK                         _______ _______ _______ _____ _____    ______ ____
ROOT
ATOM      1  C   UNL     1       3.903  15.319  19.766  0.00  0.00    +0.000 C 
ATOM      2  C   UNL     1       4.273  15.997  18.442  0.00  0.00    +0.000 C 
ATOM      3  C   UNL     1       3.376  16.939  17.643  0.00  0.00    +0.000 C 
ATOM      4  C   UNL     1       5.399  16.862  18.885  0.00  0.00    +0.000 C 
ATOM      5  O   UNL     1       5.254  17.965  19.405  0.00  0.00    +0.000 OA
ATOM      6  C   UNL     1       6.657  16.124  18.876  0.00  0.00    +0.000 C 
ATOM      7  C   UNL     1       7.735  17.112  18.449  0.00  0.00    +0.000 C 
ATOM      8  C   UNL     1       6.646  15.345  20.232  0.00  0.00    +0.000 C 
ATOM      9  N   UNL     1       5.154  14.676  20.532  0.00  0.00    +0.000 N 
ATOM     10  C   UNL     1       4.652  14.286  21.860  0.00  0.00    +0.000 C 
ATOM     11  O   UNL     1       3.648  13.566  21.951  0.00  0.00    +0.000 OA
ENDROOT
BRANCH   1  16
ATOM     12  C   UNL     1      -0.876  12.145  18.383  0.00  0.00    +0.000 C 
ATOM     13  C   UNL     1       0.312  12.915  18.883  0.00  0.00    +0.000 A 
ATOM     14  C   UNL     1       0.196  14.064  19.684  0.00  0.00    +0.000 A 
ATOM     15  C   UNL     1       1.325  14.849  20.023  0.00  0.00    +0.000 A 
ATOM     16  C   UNL     1       2.593  14.525  19.531  0.00  0.00    +0.000 A 
ATOM     17  C   UNL     1       2.691  13.331  18.771  0.00  0.00    +0.000 A 
ATOM     18  C   UNL     1       1.582  12.536  18.463  0.00  0.00    +0.000 A 
ENDBRANCH   1  16
BRANCH   8  19
ATOM     19  C   UNL     1       8.042  14.546  20.049  0.00  0.00    +0.000 A 
ATOM     20  C   UNL     1       8.266  13.978  18.756  0.00  0.00    +0.000 A 
ATOM     21  C   UNL     1       8.831  12.684  18.575  0.00  0.00    +0.000 A 
ATOM     22  C   UNL     1       9.228  11.899  19.656  0.00  0.00    +0.000 A 
ATOM     23  C   UNL     1       9.552  10.430  19.495  0.00  0.00    +0.000 C 
ATOM     24  C   UNL     1       9.180  12.510  20.920  0.00  0.00    +0.000 A 
ATOM     25  C   UNL     1       8.634  13.814  21.118  0.00  0.00    +0.000 A 
ENDBRANCH   8  19
BRANCH  10  26
ATOM     26  C   UNL     1       5.282  14.822  23.184  0.00  0.00    +0.000 C 
BRANCH  26  27
ATOM     27  N   UNL     1       5.989  13.853  24.127  0.00  0.00    +0.000 NA
ATOM     28  C   UNL     1       6.154  12.438  23.746  0.00  0.00    +0.000 C 
ATOM     29  C   UNL     1       7.181  11.654  24.667  0.00  0.00    +0.000 C 
ATOM     30  N   UNL     1       7.095  11.852  26.132  0.00  0.00    +0.000 NA
ATOM     31  C   UNL     1       6.203  10.913  26.789  0.00  0.00    +0.000 C 
ATOM     32  C   UNL     1       6.771  13.257  26.429  0.00  0.00    +0.000 C 
ATOM     33  C   UNL     1       5.648  13.910  25.548  0.00  0.00    +0.000 C 
ENDBRANCH  26  27
ENDBRANCH  10  26
TORSDOF 4
ENDMDL
MODEL 6
REMARK VINA RESULT:      -6.4      0.934      1.551
REMARK  Name = 
REMARK  9 active torsions:
REMARK  status: ('A' for Active; 'I' for Inactive)
REMARK    1  A    between atoms: C_1  and  C_2
REMARK    2  A    between atoms: C_5  and  C_6
REMARK    3  A    between atoms: C_7  and  C_8
REMARK    4  A    between atoms: C_11  and  C_12
REMARK    5  A    between atoms: C_13  and  C_14
REMARK    6  A    between atoms: C_17  and  C_18
REMARK    7  A    between atoms: C_22  and  C_24
REMARK    8  A    between atoms: C_24  and  N_25
REMARK    9  A    between atoms: N_28  and  C_29
REMARK                            x       y       z     vdW  Elec       q    Type
REMARK                         _______ _______ _______ _____ _____    ______ ____
ROOT
ATOM      1  C   UNL     1       0.286  11.857  19.211  0.00  0.00    +0.000 C 
ATOM      2  C   UNL     1       1.265  12.833  19.872  0.00  0.00    +0.000 C 
ATOM      3  C   UNL     1       2.729  13.029  19.481  0.00  0.00    +0.000 C 
ATOM      4  C   UNL     1       0.626  14.133  19.531  0.00  0.00    +0.000 C 
ATOM      5  O   UNL     1       0.777  14.712  18.459  0.00  0.00    +0.000 OA
ATOM      6  C   UNL     1      -0.401  14.479  20.507  0.00  0.00    +0.000 C 
ATOM      7  C   UNL     1      -0.351  15.993  20.669  0.00  0.00    +0.000 C 
ATOM      8  C   UNL     1      -1.655  13.672  20.036  0.00  0.00    +0.000 C 
ATOM      9  N   UNL     1      -1.245  12.121  19.597  0.00  0.00    +0.000 N 
ATOM     10  C   UNL     1      -2.037  11.256  18.707  0.00  0.00    +0.000 C 
ATOM     11  O   UNL     1      -1.789  10.044  18.647  0.00  0.00    +0.000 OA
ENDROOT
BRANCH   1  16
ATOM     12  C   UNL     1       2.572   6.421  18.974  0.00  0.00    +0.000 C 
ATOM     13  C   UNL     1       2.096   7.835  19.144  0.00  0.00    +0.000 A 
ATOM     14  C   UNL     1       1.489   8.301  20.322  0.00  0.00    +0.000 A 
ATOM     15  C   UNL     1       0.923   9.597  20.403  0.00  0.00    +0.000 A 
ATOM     16  C   UNL     1       0.916  10.443  19.290  0.00  0.00    +0.000 A 
ATOM     17  C   UNL     1       1.583   9.970  18.131  0.00  0.00    +0.000 A 
ATOM     18  C   UNL     1       2.171   8.702  18.060  0.00  0.00    +0.000 A 
ENDBRANCH   1  16
BRANCH   8  19
ATOM     19  C   UNL     1      -2.665  14.102  21.226  0.00  0.00    +0.000 A 
ATOM     20  C   UNL     1      -2.695  13.230  22.359  0.00  0.00    +0.000 A 
ATOM     21  C   UNL     1      -3.904  12.875  23.020  0.00  0.00    +0.000 A 
ATOM     22  C   UNL     1      -5.138  13.383  22.616  0.00  0.00    +0.000 A 
ATOM     23  C   UNL     1      -6.441  12.796  23.114  0.00  0.00    +0.000 C 
ATOM     24  C   UNL     1      -5.108  14.374  21.623  0.00  0.00    +0.000 A 
ATOM     25  C   UNL     1      -3.901  14.757  20.961  0.00  0.00    +0.000 A 
ENDBRANCH   8  19
BRANCH  10  26
ATOM     26  C   UNL     1      -3.133  11.820  17.748  0.00  0.00    +0.000 C 
BRANCH  26  27
ATOM     27  N   UNL     1      -4.602  11.725  18.147  0.00  0.00    +0.000 NA
ATOM     28  C   UNL     1      -5.593  12.635  17.542  0.00  0.00    +0.000 C 
ATOM     29  C   UNL     1      -7.095  12.196  17.808  0.00  0.00    +0.000 C 
ATOM     30  N   UNL     1      -7.463  11.768  19.176  0.00  0.00    +0.000 NA
ATOM     31  C   UNL     1      -7.916  12.860  20.020  0.00  0.00    +0.000 C 
ATOM     32  C   UNL     1      -6.360  10.999  19.775  0.00  0.00    +0.000 C 
ATOM     33  C   UNL     1      -4.917  11.582  19.568  0.00  0.00    +0.000 C 
ENDBRANCH  26  27
ENDBRANCH  10  26
TORSDOF 4
ENDMDL
MODEL 7
REMARK VINA RESULT:      -6.4      0.920      1.218
REMARK  Name = 
REMARK  9 active torsions:
REMARK  status: ('A' for Active; 'I' for Inactive)
REMARK    1  A    between atoms: C_1  and  C_2
REMARK    2  A    between atoms: C_5  and  C_6
REMARK    3  A    between atoms: C_7  and  C_8
REMARK    4  A    between atoms: C_11  and  C_12
REMARK    5  A    between atoms: C_13  and  C_14
REMARK    6  A    between atoms: C_17  and  C_18
REMARK    7  A    between atoms: C_22  and  C_24
REMARK    8  A    between atoms: C_24  and  N_25
REMARK    9  A    between atoms: N_28  and  C_29
REMARK                            x       y       z     vdW  Elec       q    Type
REMARK                         _______ _______ _______ _____ _____    ______ ____
ROOT
ATOM      1  C   UNL     1       0.151  11.717  18.901  0.00  0.00    +0.000 C 
ATOM      2  C   UNL     1       1.125  12.700  19.561  0.00  0.00    +0.000 C 
ATOM      3  C   UNL     1       2.580  12.921  19.153  0.00  0.00    +0.000 C 
ATOM      4  C   UNL     1       0.463  13.994  19.245  0.00  0.00    +0.000 C 
ATOM      5  O   UNL     1       0.591  14.588  18.178  0.00  0.00    +0.000 OA
ATOM      6  C   UNL     1      -0.556  14.313  20.239  0.00  0.00    +0.000 C 
ATOM      7  C   UNL     1      -0.526  15.825  20.418  0.00  0.00    +0.000 C 
ATOM      8  C   UNL     1      -1.805  13.493  19.774  0.00  0.00    +0.000 C 
ATOM      9  N   UNL     1      -1.378  11.955  19.310  0.00  0.00    +0.000 N 
ATOM     10  C   UNL     1      -2.170  11.089  18.420  0.00  0.00    +0.000 C 
ATOM     11  O   UNL     1      -1.905   9.881  18.342  0.00  0.00    +0.000 OA
ENDROOT
BRANCH   1  16
ATOM     12  C   UNL     1       2.783   6.484  19.619  0.00  0.00    +0.000 C 
ATOM     13  C   UNL     1       2.013   7.743  19.342  0.00  0.00    +0.000 A 
ATOM     14  C   UNL     1       1.975   8.353  18.077  0.00  0.00    +0.000 A 
ATOM     15  C   UNL     1       1.359   9.613  17.878  0.00  0.00    +0.000 A 
ATOM     16  C   UNL     1       0.802  10.312  18.954  0.00  0.00    +0.000 A 
ATOM     17  C   UNL     1       0.806   9.650  20.209  0.00  0.00    +0.000 A 
ATOM     18  C   UNL     1       1.384   8.391  20.399  0.00  0.00    +0.000 A 
ENDBRANCH   1  16
BRANCH   8  19
ATOM     19  C   UNL     1      -2.805  13.894  20.982  0.00  0.00    +0.000 A 
ATOM     20  C   UNL     1      -2.190  14.077  22.260  0.00  0.00    +0.000 A 
ATOM     21  C   UNL     1      -2.778  13.604  23.467  0.00  0.00    +0.000 A 
ATOM     22  C   UNL     1      -4.009  12.953  23.478  0.00  0.00    +0.000 A 
ATOM     23  C   UNL     1      -4.499  12.198  24.694  0.00  0.00    +0.000 C 
ATOM     24  C   UNL     1      -4.708  12.922  22.260  0.00  0.00    +0.000 A 
ATOM     25  C   UNL     1      -4.142  13.409  21.042  0.00  0.00    +0.000 A 
ENDBRANCH   8  19
BRANCH  10  26
ATOM     26  C   UNL     1      -3.286  11.648  17.483  0.00  0.00    +0.000 C 
BRANCH  26  27
ATOM     27  N   UNL     1      -4.748  11.540  17.907  0.00  0.00    +0.000 NA
ATOM     28  C   UNL     1      -5.593  12.747  17.962  0.00  0.00    +0.000 C 
ATOM     29  C   UNL     1      -7.142  12.425  18.095  0.00  0.00    +0.000 C 
ATOM     30  N   UNL     1      -7.555  11.384  19.064  0.00  0.00    +0.000 NA
ATOM     31  C   UNL     1      -7.825  11.907  20.392  0.00  0.00    +0.000 C 
ATOM     32  C   UNL     1      -6.577  10.284  19.066  0.00  0.00    +0.000 C 
ATOM     33  C   UNL     1      -5.064  10.703  19.064  0.00  0.00    +0.000 C 
ENDBRANCH  26  27
ENDBRANCH  10  26
TORSDOF 4
ENDMDL
MODEL 8
REMARK VINA RESULT:      -6.3      6.171     10.826
REMARK  Name = 
REMARK  9 active torsions:
REMARK  status: ('A' for Active; 'I' for Inactive)
REMARK    1  A    between atoms: C_1  and  C_2
REMARK    2  A    between atoms: C_5  and  C_6
REMARK    3  A    between atoms: C_7  and  C_8
REMARK    4  A    between atoms: C_11  and  C_12
REMARK    5  A    between atoms: C_13  and  C_14
REMARK    6  A    between atoms: C_17  and  C_18
REMARK    7  A    between atoms: C_22  and  C_24
REMARK    8  A    between atoms: C_24  and  N_25
REMARK    9  A    between atoms: N_28  and  C_29
REMARK                            x       y       z     vdW  Elec       q    Type
REMARK                         _______ _______ _______ _____ _____    ______ ____
ROOT
ATOM      1  C   UNL     1       3.813  15.281  19.711  0.00  0.00    +0.000 C 
ATOM      2  C   UNL     1       4.220  15.943  18.390  0.00  0.00    +0.000 C 
ATOM      3  C   UNL     1       3.354  16.892  17.564  0.00  0.00    +0.000 C 
ATOM      4  C   UNL     1       5.350  16.795  18.848  0.00  0.00    +0.000 C 
ATOM      5  O   UNL     1       5.211  17.904  19.357  0.00  0.00    +0.000 OA
ATOM      6  C   UNL     1       6.596  16.038  18.871  0.00  0.00    +0.000 C 
ATOM      7  C   UNL     1       7.698  17.006  18.459  0.00  0.00    +0.000 C 
ATOM      8  C   UNL     1       6.546  15.270  20.232  0.00  0.00    +0.000 C 
ATOM      9  N   UNL     1       5.038  14.626  20.507  0.00  0.00    +0.000 N 
ATOM     10  C   UNL     1       4.503  14.254  21.827  0.00  0.00    +0.000 C 
ATOM     11  O   UNL     1       3.486  13.550  21.903  0.00  0.00    +0.000 OA
ENDROOT
BRANCH   1  16
ATOM     12  C   UNL     1      -0.977  12.153  18.262  0.00  0.00    +0.000 C 
ATOM     13  C   UNL     1       0.207  12.918  18.779  0.00  0.00    +0.000 A 
ATOM     14  C   UNL     1       0.086  14.097  19.533  0.00  0.00    +0.000 A 
ATOM     15  C   UNL     1       1.218  14.873  19.886  0.00  0.00    +0.000 A 
ATOM     16  C   UNL     1       2.496  14.505  19.455  0.00  0.00    +0.000 A 
ATOM     17  C   UNL     1       2.597  13.283  18.742  0.00  0.00    +0.000 A 
ATOM     18  C   UNL     1       1.484  12.498  18.421  0.00  0.00    +0.000 A 
ENDBRANCH   1  16
BRANCH   8  19
ATOM     19  C   UNL     1       7.933  14.449  20.085  0.00  0.00    +0.000 A 
ATOM     20  C   UNL     1       9.028  14.937  20.863  0.00  0.00    +0.000 A 
ATOM     21  C   UNL     1      10.355  15.011  20.356  0.00  0.00    +0.000 A 
ATOM     22  C   UNL     1      10.674  14.582  19.069  0.00  0.00    +0.000 A 
ATOM     23  C   UNL     1      12.000  14.921  18.423  0.00  0.00    +0.000 C 
ATOM     24  C   UNL     1       9.650  13.938  18.356  0.00  0.00    +0.000 A 
ATOM     25  C   UNL     1       8.316  13.838  18.857  0.00  0.00    +0.000 A 
ENDBRANCH   8  19
BRANCH  10  26
ATOM     26  C   UNL     1       5.114  14.791  23.160  0.00  0.00    +0.000 C 
BRANCH  26  27
ATOM     27  N   UNL     1       5.235  13.859  24.361  0.00  0.00    +0.000 NA
ATOM     28  C   UNL     1       5.459  14.414  25.709  0.00  0.00    +0.000 C 
ATOM     29  C   UNL     1       5.233  13.357  26.871  0.00  0.00    +0.000 C 
ATOM     30  N   UNL     1       5.808  12.003  26.701  0.00  0.00    +0.000 NA
ATOM     31  C   UNL     1       7.159  11.881  27.219  0.00  0.00    +0.000 C 
ATOM     32  C   UNL     1       5.689  11.581  25.296  0.00  0.00    +0.000 C 
ATOM     33  C   UNL     1       6.059  12.659  24.216  0.00  0.00    +0.000 C 
ENDBRANCH  26  27
ENDBRANCH  10  26
TORSDOF 4
ENDMDL
MODEL 9
REMARK VINA RESULT:      -6.2      2.248      8.225
REMARK  Name = 
REMARK  9 active torsions:
REMARK  status: ('A' for Active; 'I' for Inactive)
REMARK    1  A    between atoms: C_1  and  C_2
REMARK    2  A    between atoms: C_5  and  C_6
REMARK    3  A    between atoms: C_7  and  C_8
REMARK    4  A    between atoms: C_11  and  C_12
REMARK    5  A    between atoms: C_13  and  C_14
REMARK    6  A    between atoms: C_17  and  C_18
REMARK    7  A    between atoms: C_22  and  C_24
REMARK    8  A    between atoms: C_24  and  N_25
REMARK    9  A    between atoms: N_28  and  C_29
REMARK                            x       y       z     vdW  Elec       q    Type
REMARK                         _______ _______ _______ _____ _____    ______ ____
ROOT
ATOM      1  C   UNL     1      -3.319  12.795  19.702  0.00  0.00    +0.000 C 
ATOM      2  C   UNL     1      -3.859  11.455  19.189  0.00  0.00    +0.000 C 
ATOM      3  C   UNL     1      -5.277  11.201  18.681  0.00  0.00    +0.000 C 
ATOM      4  C   UNL     1      -3.006  11.259  17.987  0.00  0.00    +0.000 C 
ATOM      5  O   UNL     1      -3.235  11.767  16.892  0.00  0.00    +0.000 OA
ATOM      6  C   UNL     1      -1.740  10.630  18.344  0.00  0.00    +0.000 C 
ATOM      7  C   UNL     1      -1.376   9.705  17.189  0.00  0.00    +0.000 C 
ATOM      8  C   UNL     1      -0.858  11.818  18.849  0.00  0.00    +0.000 C 
ATOM      9  N   UNL     1      -1.725  12.837  19.836  0.00  0.00    +0.000 N 
ATOM     10  C   UNL     1      -1.383  14.242  20.112  0.00  0.00    +0.000 C 
ATOM     11  O   UNL     1      -1.932  14.836  21.051  0.00  0.00    +0.000 OA
ENDROOT
BRANCH   1  16
ATOM     12  C   UNL     1      -6.845  15.071  23.851  0.00  0.00    +0.000 C 
ATOM     13  C   UNL     1      -6.025  14.358  22.814  0.00  0.00    +0.000 A 
ATOM     14  C   UNL     1      -5.151  13.303  23.124  0.00  0.00    +0.000 A 
ATOM     15  C   UNL     1      -4.287  12.745  22.150  0.00  0.00    +0.000 A 
ATOM     16  C   UNL     1      -4.249  13.261  20.851  0.00  0.00    +0.000 A 
ATOM     17  C   UNL     1      -5.179  14.288  20.550  0.00  0.00    +0.000 A 
ATOM     18  C   UNL     1      -6.057  14.818  21.503  0.00  0.00    +0.000 A 
ENDBRANCH   1  16
BRANCH   8  19
ATOM     19  C   UNL     1       0.459  10.970  19.256  0.00  0.00    +0.000 A 
ATOM     20  C   UNL     1       1.460  10.854  18.242  0.00  0.00    +0.000 A 
ATOM     21  C   UNL     1       2.164   9.642  17.996  0.00  0.00    +0.000 A 
ATOM     22  C   UNL     1       1.938   8.495  18.754  0.00  0.00    +0.000 A 
ATOM     23  C   UNL     1       2.457   7.141  18.322  0.00  0.00    +0.000 C 
ATOM     24  C   UNL     1       1.091   8.640  19.865  0.00  0.00    +0.000 A 
ATOM     25  C   UNL     1       0.390   9.854  20.138  0.00  0.00    +0.000 A 
ENDBRANCH   8  19
BRANCH  10  26
ATOM     26  C   UNL     1      -0.415  15.063  19.203  0.00  0.00    +0.000 C 
BRANCH  26  27
ATOM     27  N   UNL     1       1.074  15.102  19.533  0.00  0.00    +0.000 NA
ATOM     28  C   UNL     1       1.664  16.305  20.149  0.00  0.00    +0.000 C 
ATOM     29  C   UNL     1       3.124  16.066  20.723  0.00  0.00    +0.000 C 
ATOM     30  N   UNL     1       4.086  15.315  19.886  0.00  0.00    +0.000 NA
ATOM     31  C   UNL     1       4.865  16.163  19.000  0.00  0.00    +0.000 C 
ATOM     32  C   UNL     1       3.393  14.226  19.179  0.00  0.00    +0.000 C 
ATOM     33  C   UNL     1       2.010  14.593  18.531  0.00  0.00    +0.000 C 
ENDBRANCH  26  27
ENDBRANCH  10  26
TORSDOF 4
ENDMDL
