MODEL 1
REMARK VINA RESULT:      -7.4      0.000      0.000
REMARK  Name = 
REMARK  5 active torsions:
REMARK  status: ('A' for Active; 'I' for Inactive)
REMARK    1  A    between atoms: C_6  and  C_7
REMARK    2  A    between atoms: C_7  and  N_8
REMARK    3  A    between atoms: N_8  and  C_9
REMARK    4  A    between atoms: C_9  and  C_10
REMARK    5  A    between atoms: C_10  and  C_11
REMARK                            x       y       z     vdW  Elec       q    Type
REMARK                         _______ _______ _______ _____ _____    ______ ____
ROOT
ATOM      1  C   UNL     1       5.005   6.923  17.296  0.00  0.00    +0.000 C 
ENDROOT
BRANCH   1   2
ATOM      2  N   UNL     1       5.350   6.530  15.931  0.00  0.00    +0.000 NA
ATOM      3  H   UNL     1       4.614   6.828  15.292  0.00  0.00    +0.000 HD
BRANCH   2   4
ATOM      4  C   UNL     1       5.605   5.109  15.758  0.00  0.00    +0.000 C 
BRANCH   4  10
ATOM      5 CL   UNL     1       5.203   2.293  11.396  0.00  0.00    +0.000 Cl
ATOM      6  C   UNL     1       6.040   3.436  12.373  0.00  0.00    +0.000 A 
ATOM      7  C   UNL     1       7.164   4.086  11.869  0.00  0.00    +0.000 A 
ATOM      8  C   UNL     1       7.845   5.005  12.666  0.00  0.00    +0.000 A 
ATOM      9  C   UNL     1       7.380   5.294  13.953  0.00  0.00    +0.000 A 
ATOM     10  C   UNL     1       6.220   4.676  14.450  0.00  0.00    +0.000 A 
ATOM     11  C   UNL     1       5.570   3.722  13.653  0.00  0.00    +0.000 A 
ENDBRANCH   4  10
ENDBRANCH   2   4
ENDBRANCH   1   2
BRANCH   1  12
ATOM     12  C   UNL     1       3.527   7.297  17.472  0.00  0.00    +0.000 C 
BRANCH  12  13
ATOM     13  C   UNL     1       2.779   6.283  18.291  0.00  0.00    +0.000 A 
ATOM     14  C   UNL     1       2.562   6.494  19.669  0.00  0.00    +0.000 A 
ATOM     15  C   UNL     1       1.908   5.527  20.445  0.00  0.00    +0.000 A 
ATOM     16  C   UNL     1       1.492   4.377  19.810  0.00  0.00    +0.000 A 
ATOM     17  C   UNL     1       1.684   4.176  18.462  0.00  0.00    +0.000 A 
ATOM     18  C   UNL     1       2.313   5.109  17.675  0.00  0.00    +0.000 A 
ATOM     19  O   UNL     1       1.206   2.978  18.038  0.00  0.00    +0.000 OA
ATOM     20  C   UNL     1       0.732   2.425  19.282  0.00  0.00    +0.000 C 
ATOM     21  O   UNL     1       0.871   3.324  20.402  0.00  0.00    +0.000 OA
ENDBRANCH  12  13
ENDBRANCH   1  12
TORSDOF 5
ENDMDL
MODEL 2
REMARK VINA RESULT:      -7.3      3.835      6.912
REMARK  Name = 
REMARK  5 active torsions:
REMARK  status: ('A' for Active; 'I' for Inactive)
REMARK    1  A    between atoms: C_6  and  C_7
REMARK    2  A    between atoms: C_7  and  N_8
REMARK    3  A    between atoms: N_8  and  C_9
REMARK    4  A    between atoms: C_9  and  C_10
REMARK    5  A    between atoms: C_10  and  C_11
REMARK                            x       y       z     vdW  Elec       q    Type
REMARK                         _______ _______ _______ _____ _____    ______ ____
ROOT
ATOM      1  C   UNL     1       3.621   2.385  19.062  0.00  0.00    +0.000 C 
ENDROOT
BRANCH   1   2
ATOM      2  N   UNL     1       2.177   2.328  19.288  0.00  0.00    +0.000 NA
ATOM      3  H   UNL     1       1.811   1.442  18.942  0.00  0.00    +0.000 HD
BRANCH   2   4
ATOM      4  C   UNL     1       1.431   3.430  18.702  0.00  0.00    +0.000 C 
BRANCH   4  10
ATOM      5 CL   UNL     1       2.820   8.303  17.503  0.00  0.00    +0.000 Cl
ATOM      6  C   UNL     1       2.348   7.118  18.658  0.00  0.00    +0.000 A 
ATOM      7  C   UNL     1       2.103   7.495  19.976  0.00  0.00    +0.000 A 
ATOM      8  C   UNL     1       1.730   6.531  20.912  0.00  0.00    +0.000 A 
ATOM      9  C   UNL     1       1.571   5.199  20.517  0.00  0.00    +0.000 A 
ATOM     10  C   UNL     1       1.772   4.820  19.178  0.00  0.00    +0.000 A 
ATOM     11  C   UNL     1       2.189   5.792  18.258  0.00  0.00    +0.000 A 
ENDBRANCH   4  10
ENDBRANCH   2   4
ENDBRANCH   1   2
BRANCH   1  12
ATOM     12  C   UNL     1       4.005   2.556  17.587  0.00  0.00    +0.000 C 
BRANCH  12  13
ATOM     13  C   UNL     1       4.836   3.786  17.356  0.00  0.00    +0.000 A 
ATOM     14  C   UNL     1       4.862   4.405  16.088  0.00  0.00    +0.000 A 
ATOM     15  C   UNL     1       5.675   5.524  15.857  0.00  0.00    +0.000 A 
ATOM     16  C   UNL     1       6.437   5.985  16.908  0.00  0.00    +0.000 A 
ATOM     17  C   UNL     1       6.399   5.397  18.152  0.00  0.00    +0.000 A 
ATOM     18  C   UNL     1       5.606   4.306  18.411  0.00  0.00    +0.000 A 
ATOM     19  O   UNL     1       7.228   6.000  19.042  0.00  0.00    +0.000 OA
ATOM     20  C   UNL     1       7.828   7.009  18.206  0.00  0.00    +0.000 C 
ATOM     21  O   UNL     1       7.300   7.033  16.863  0.00  0.00    +0.000 OA
ENDBRANCH  12  13
ENDBRANCH   1  12
TORSDOF 5
ENDMDL
MODEL 3
REMARK VINA RESULT:      -7.2      4.281      5.910
REMARK  Name = 
REMARK  5 active torsions:
REMARK  status: ('A' for Active; 'I' for Inactive)
REMARK    1  A    between atoms: C_6  and  C_7
REMARK    2  A    between atoms: C_7  and  N_8
REMARK    3  A    between atoms: N_8  and  C_9
REMARK    4  A    between atoms: C_9  and  C_10
REMARK    5  A    between atoms: C_10  and  C_11
REMARK                            x       y       z     vdW  Elec       q    Type
REMARK                         _______ _______ _______ _____ _____    ______ ____
ROOT
ATOM      1  C   UNL     1       4.854   6.127  17.673  0.00  0.00    +0.000 C 
ENDROOT
BRANCH   1   2
ATOM      2  N   UNL     1       5.107   4.975  16.810  0.00  0.00    +0.000 NA
ATOM      3  H   UNL     1       4.553   5.055  15.958  0.00  0.00    +0.000 HD
BRANCH   2   4
ATOM      4  C   UNL     1       4.861   3.686  17.436  0.00  0.00    +0.000 C 
BRANCH   4  10
ATOM      5 CL   UNL     1       2.307   2.993  21.921  0.00  0.00    +0.000 Cl
ATOM      6  C   UNL     1       2.309   3.259  20.221  0.00  0.00    +0.000 A 
ATOM      7  C   UNL     1       1.109   3.496  19.556  0.00  0.00    +0.000 A 
ATOM      8  C   UNL     1       1.114   3.701  18.176  0.00  0.00    +0.000 A 
ATOM      9  C   UNL     1       2.323   3.702  17.474  0.00  0.00    +0.000 A 
ATOM     10  C   UNL     1       3.541   3.509  18.147  0.00  0.00    +0.000 A 
ATOM     11  C   UNL     1       3.518   3.260  19.527  0.00  0.00    +0.000 A 
ENDBRANCH   4  10
ENDBRANCH   2   4
ENDBRANCH   1   2
BRANCH   1  12
ATOM     12  C   UNL     1       3.817   7.105  17.103  0.00  0.00    +0.000 C 
BRANCH  12  13
ATOM     13  C   UNL     1       2.901   7.644  18.165  0.00  0.00    +0.000 A 
ATOM     14  C   UNL     1       2.718   6.942  19.376  0.00  0.00    +0.000 A 
ATOM     15  C   UNL     1       1.826   7.418  20.348  0.00  0.00    +0.000 A 
ATOM     16  C   UNL     1       1.146   8.584  20.071  0.00  0.00    +0.000 A 
ATOM     17  C   UNL     1       1.337   9.282  18.901  0.00  0.00    +0.000 A 
ATOM     18  C   UNL     1       2.211   8.845  17.934  0.00  0.00    +0.000 A 
ATOM     19  O   UNL     1       0.568  10.398  18.824  0.00  0.00    +0.000 OA
ATOM     20  C   UNL     1      -0.165  10.300  20.061  0.00  0.00    +0.000 C 
ATOM     21  O   UNL     1       0.226   9.176  20.876  0.00  0.00    +0.000 OA
ENDBRANCH  12  13
ENDBRANCH   1  12
TORSDOF 5
ENDMDL
MODEL 4
REMARK VINA RESULT:      -7.1      4.048      6.718
REMARK  Name = 
REMARK  5 active torsions:
REMARK  status: ('A' for Active; 'I' for Inactive)
REMARK    1  A    between atoms: C_6  and  C_7
REMARK    2  A    between atoms: C_7  and  N_8
REMARK    3  A    between atoms: N_8  and  C_9
REMARK    4  A    between atoms: C_9  and  C_10
REMARK    5  A    between atoms: C_10  and  C_11
REMARK                            x       y       z     vdW  Elec       q    Type
REMARK                         _______ _______ _______ _____ _____    ______ ____
ROOT
ATOM      1  C   UNL     1       3.071   1.858  18.819  0.00  0.00    +0.000 C 
ENDROOT
BRANCH   1   2
ATOM      2  N   UNL     1       1.612   1.922  18.757  0.00  0.00    +0.000 NA
ATOM      3  H   UNL     1       1.257   1.146  18.200  0.00  0.00    +0.000 HD
BRANCH   2   4
ATOM      4  C   UNL     1       1.084   3.176  18.244  0.00  0.00    +0.000 C 
BRANCH   4  10
ATOM      5 CL   UNL     1       2.946   8.009  17.698  0.00  0.00    +0.000 Cl
ATOM      6  C   UNL     1       2.369   6.726  18.689  0.00  0.00    +0.000 A 
ATOM      7  C   UNL     1       2.179   6.936  20.052  0.00  0.00    +0.000 A 
ATOM      8  C   UNL     1       1.720   5.890  20.854  0.00  0.00    +0.000 A 
ATOM      9  C   UNL     1       1.423   4.650  20.282  0.00  0.00    +0.000 A 
ATOM     10  C   UNL     1       1.570   4.446  18.900  0.00  0.00    +0.000 A 
ATOM     11  C   UNL     1       2.073   5.492  18.113  0.00  0.00    +0.000 A 
ENDBRANCH   4  10
ENDBRANCH   2   4
ENDBRANCH   1   2
BRANCH   1  12
ATOM     12  C   UNL     1       3.761   2.334  17.534  0.00  0.00    +0.000 C 
BRANCH  12  13
ATOM     13  C   UNL     1       4.712   3.470  17.788  0.00  0.00    +0.000 A 
ATOM     14  C   UNL     1       5.021   3.863  19.108  0.00  0.00    +0.000 A 
ATOM     15  C   UNL     1       5.869   4.954  19.347  0.00  0.00    +0.000 A 
ATOM     16  C   UNL     1       6.378   5.617  18.251  0.00  0.00    +0.000 A 
ATOM     17  C   UNL     1       6.094   5.224  16.963  0.00  0.00    +0.000 A 
ATOM     18  C   UNL     1       5.275   4.154  16.698  0.00  0.00    +0.000 A 
ATOM     19  O   UNL     1       6.690   6.012  16.032  0.00  0.00    +0.000 OA
ATOM     20  C   UNL     1       7.346   6.976  16.879  0.00  0.00    +0.000 C 
ATOM     21  O   UNL     1       7.188   6.707  18.288  0.00  0.00    +0.000 OA
ENDBRANCH  12  13
ENDBRANCH   1  12
TORSDOF 5
ENDMDL
MODEL 5
REMARK VINA RESULT:      -7.1      1.064      1.700
REMARK  Name = 
REMARK  5 active torsions:
REMARK  status: ('A' for Active; 'I' for Inactive)
REMARK    1  A    between atoms: C_6  and  C_7
REMARK    2  A    between atoms: C_7  and  N_8
REMARK    3  A    between atoms: N_8  and  C_9
REMARK    4  A    between atoms: C_9  and  C_10
REMARK    5  A    between atoms: C_10  and  C_11
REMARK                            x       y       z     vdW  Elec       q    Type
REMARK                         _______ _______ _______ _____ _____    ______ ____
ROOT
ATOM      1  C   UNL     1       4.829   6.468  16.402  0.00  0.00    +0.000 C 
ENDROOT
BRANCH   1   2
ATOM      2  N   UNL     1       6.151   5.941  16.740  0.00  0.00    +0.000 NA
ATOM      3  H   UNL     1       6.871   6.576  16.401  0.00  0.00    +0.000 HD
BRANCH   2   4
ATOM      4  C   UNL     1       6.408   4.598  16.247  0.00  0.00    +0.000 C 
BRANCH   4  10
ATOM      5 CL   UNL     1       5.018   2.663  11.616  0.00  0.00    +0.000 Cl
ATOM      6  C   UNL     1       6.058   3.631  12.587  0.00  0.00    +0.000 A 
ATOM      7  C   UNL     1       7.038   4.414  11.984  0.00  0.00    +0.000 A 
ATOM      8  C   UNL     1       7.885   5.190  12.775  0.00  0.00    +0.000 A 
ATOM      9  C   UNL     1       7.726   5.205  14.164  0.00  0.00    +0.000 A 
ATOM     10  C   UNL     1       6.708   4.452  14.775  0.00  0.00    +0.000 A 
ATOM     11  C   UNL     1       5.892   3.644  13.971  0.00  0.00    +0.000 A 
ENDBRANCH   4  10
ENDBRANCH   2   4
ENDBRANCH   1   2
BRANCH   1  12
ATOM     12  C   UNL     1       3.971   6.805  17.629  0.00  0.00    +0.000 C 
BRANCH  12  13
ATOM     13  C   UNL     1       3.352   5.580  18.242  0.00  0.00    +0.000 A 
ATOM     14  C   UNL     1       2.915   4.515  17.427  0.00  0.00    +0.000 A 
ATOM     15  C   UNL     1       2.292   3.393  17.992  0.00  0.00    +0.000 A 
ATOM     16  C   UNL     1       2.129   3.378  19.360  0.00  0.00    +0.000 A 
ATOM     17  C   UNL     1       2.573   4.406  20.161  0.00  0.00    +0.000 A 
ATOM     18  C   UNL     1       3.194   5.513  19.636  0.00  0.00    +0.000 A 
ATOM     19  O   UNL     1       2.309   4.197  21.476  0.00  0.00    +0.000 OA
ATOM     20  C   UNL     1       1.607   2.940  21.410  0.00  0.00    +0.000 C 
ATOM     21  O   UNL     1       1.526   2.394  20.077  0.00  0.00    +0.000 OA
ENDBRANCH  12  13
ENDBRANCH   1  12
TORSDOF 5
ENDMDL
MODEL 6
REMARK VINA RESULT:      -7.1      4.548      6.943
REMARK  Name = 
REMARK  5 active torsions:
REMARK  status: ('A' for Active; 'I' for Inactive)
REMARK    1  A    between atoms: C_6  and  C_7
REMARK    2  A    between atoms: C_7  and  N_8
REMARK    3  A    between atoms: N_8  and  C_9
REMARK    4  A    between atoms: C_9  and  C_10
REMARK    5  A    between atoms: C_10  and  C_11
REMARK                            x       y       z     vdW  Elec       q    Type
REMARK                         _______ _______ _______ _____ _____    ______ ____
ROOT
ATOM      1  C   UNL     1       1.738   3.245  20.862  0.00  0.00    +0.000 C 
ENDROOT
BRANCH   1   2
ATOM      2  N   UNL     1       1.131   4.529  20.514  0.00  0.00    +0.000 NA
ATOM      3  H   UNL     1       0.894   4.540  19.523  0.00  0.00    +0.000 HD
BRANCH   2   4
ATOM      4  C   UNL     1       1.948   5.689  20.835  0.00  0.00    +0.000 C 
BRANCH   4  10
ATOM      5 CL   UNL     1       0.769  10.673  19.893  0.00  0.00    +0.000 Cl
ATOM      6  C   UNL     1       1.456   9.175  19.400  0.00  0.00    +0.000 A 
ATOM      7  C   UNL     1       2.144   9.092  18.193  0.00  0.00    +0.000 A 
ATOM      8  C   UNL     1       2.691   7.874  17.792  0.00  0.00    +0.000 A 
ATOM      9  C   UNL     1       2.576   6.751  18.617  0.00  0.00    +0.000 A 
ATOM     10  C   UNL     1       1.922   6.839  19.858  0.00  0.00    +0.000 A 
ATOM     11  C   UNL     1       1.340   8.059  20.229  0.00  0.00    +0.000 A 
ENDBRANCH   4  10
ENDBRANCH   2   4
ENDBRANCH   1   2
BRANCH   1  12
ATOM     12  C   UNL     1       2.143   2.407  19.642  0.00  0.00    +0.000 C 
BRANCH  12  13
ATOM     13  C   UNL     1       3.201   3.083  18.816  0.00  0.00    +0.000 A 
ATOM     14  C   UNL     1       2.997   3.312  17.439  0.00  0.00    +0.000 A 
ATOM     15  C   UNL     1       4.002   3.897  16.656  0.00  0.00    +0.000 A 
ATOM     16  C   UNL     1       5.183   4.232  17.283  0.00  0.00    +0.000 A 
ATOM     17  C   UNL     1       5.378   4.029  18.630  0.00  0.00    +0.000 A 
ATOM     18  C   UNL     1       4.408   3.467  19.424  0.00  0.00    +0.000 A 
ATOM     19  O   UNL     1       6.609   4.423  19.046  0.00  0.00    +0.000 OA
ATOM     20  C   UNL     1       7.185   4.856  17.798  0.00  0.00    +0.000 C 
ATOM     21  O   UNL     1       6.273   4.778  16.683  0.00  0.00    +0.000 OA
ENDBRANCH  12  13
ENDBRANCH   1  12
TORSDOF 5
ENDMDL
MODEL 7
REMARK VINA RESULT:      -7.1      1.443      1.881
REMARK  Name = 
REMARK  5 active torsions:
REMARK  status: ('A' for Active; 'I' for Inactive)
REMARK    1  A    between atoms: C_6  and  C_7
REMARK    2  A    between atoms: C_7  and  N_8
REMARK    3  A    between atoms: N_8  and  C_9
REMARK    4  A    between atoms: C_9  and  C_10
REMARK    5  A    between atoms: C_10  and  C_11
REMARK                            x       y       z     vdW  Elec       q    Type
REMARK                         _______ _______ _______ _____ _____    ______ ____
ROOT
ATOM      1  C   UNL     1       6.643   4.716  18.169  0.00  0.00    +0.000 C 
ENDROOT
BRANCH   1   2
ATOM      2  N   UNL     1       6.682   4.116  16.836  0.00  0.00    +0.000 NA
ATOM      3  H   UNL     1       7.630   3.805  16.627  0.00  0.00    +0.000 HD
BRANCH   2   4
ATOM      4  C   UNL     1       6.204   4.983  15.770  0.00  0.00    +0.000 C 
BRANCH   4  10
ATOM      5 CL   UNL     1       5.425   2.137  11.479  0.00  0.00    +0.000 Cl
ATOM      6  C   UNL     1       6.256   3.387  12.320  0.00  0.00    +0.000 A 
ATOM      7  C   UNL     1       7.170   4.189  11.642  0.00  0.00    +0.000 A 
ATOM      8  C   UNL     1       7.849   5.195  12.330  0.00  0.00    +0.000 A 
ATOM      9  C   UNL     1       7.585   5.416  13.685  0.00  0.00    +0.000 A 
ATOM     10  C   UNL     1       6.630   4.640  14.363  0.00  0.00    +0.000 A 
ATOM     11  C   UNL     1       5.987   3.604  13.671  0.00  0.00    +0.000 A 
ENDBRANCH   4  10
ENDBRANCH   2   4
ENDBRANCH   1   2
BRANCH   1  12
ATOM     12  C   UNL     1       5.503   5.726  18.354  0.00  0.00    +0.000 C 
BRANCH  12  13
ATOM     13  C   UNL     1       4.202   5.058  18.697  0.00  0.00    +0.000 A 
ATOM     14  C   UNL     1       3.084   5.186  17.846  0.00  0.00    +0.000 A 
ATOM     15  C   UNL     1       1.856   4.605  18.188  0.00  0.00    +0.000 A 
ATOM     16  C   UNL     1       1.789   3.913  19.378  0.00  0.00    +0.000 A 
ATOM     17  C   UNL     1       2.882   3.768  20.201  0.00  0.00    +0.000 A 
ATOM     18  C   UNL     1       4.101   4.318  19.887  0.00  0.00    +0.000 A 
ATOM     19  O   UNL     1       2.602   3.057  21.324  0.00  0.00    +0.000 OA
ATOM     20  C   UNL     1       1.195   2.808  21.137  0.00  0.00    +0.000 C 
ATOM     21  O   UNL     1       0.682   3.311  19.886  0.00  0.00    +0.000 OA
ENDBRANCH  12  13
ENDBRANCH   1  12
TORSDOF 5
ENDMDL
MODEL 8
REMARK VINA RESULT:      -7.1      4.455      5.835
REMARK  Name = 
REMARK  5 active torsions:
REMARK  status: ('A' for Active; 'I' for Inactive)
REMARK    1  A    between atoms: C_6  and  C_7
REMARK    2  A    between atoms: C_7  and  N_8
REMARK    3  A    between atoms: N_8  and  C_9
REMARK    4  A    between atoms: C_9  and  C_10
REMARK    5  A    between atoms: C_10  and  C_11
REMARK                            x       y       z     vdW  Elec       q    Type
REMARK                         _______ _______ _______ _____ _____    ______ ____
ROOT
ATOM      1  C   UNL     1       5.064   6.335  18.124  0.00  0.00    +0.000 C 
ENDROOT
BRANCH   1   2
ATOM      2  N   UNL     1       5.612   5.007  17.850  0.00  0.00    +0.000 NA
ATOM      3  H   UNL     1       5.209   4.641  16.989  0.00  0.00    +0.000 HD
BRANCH   2   4
ATOM      4  C   UNL     1       5.428   4.046  18.925  0.00  0.00    +0.000 C 
BRANCH   4  10
ATOM      5 CL   UNL     1       1.186   2.699  21.631  0.00  0.00    +0.000 Cl
ATOM      6  C   UNL     1       2.090   2.714  20.167  0.00  0.00    +0.000 A 
ATOM      7  C   UNL     1       1.523   2.215  18.997  0.00  0.00    +0.000 A 
ATOM      8  C   UNL     1       2.262   2.220  17.815  0.00  0.00    +0.000 A 
ATOM      9  C   UNL     1       3.553   2.756  17.800  0.00  0.00    +0.000 A 
ATOM     10  C   UNL     1       4.114   3.304  18.966  0.00  0.00    +0.000 A 
ATOM     11  C   UNL     1       3.376   3.252  20.158  0.00  0.00    +0.000 A 
ENDBRANCH   4  10
ENDBRANCH   2   4
ENDBRANCH   1   2
BRANCH   1  12
ATOM     12  C   UNL     1       3.761   6.629  17.370  0.00  0.00    +0.000 C 
BRANCH  12  13
ATOM     13  C   UNL     1       2.823   7.487  18.171  0.00  0.00    +0.000 A 
ATOM     14  C   UNL     1       2.304   8.681  17.627  0.00  0.00    +0.000 A 
ATOM     15  C   UNL     1       1.468   9.509  18.391  0.00  0.00    +0.000 A 
ATOM     16  C   UNL     1       1.182   9.110  19.679  0.00  0.00    +0.000 A 
ATOM     17  C   UNL     1       1.670   7.936  20.206  0.00  0.00    +0.000 A 
ATOM     18  C   UNL     1       2.483   7.101  19.479  0.00  0.00    +0.000 A 
ATOM     19  O   UNL     1       1.275   7.734  21.489  0.00  0.00    +0.000 OA
ATOM     20  C   UNL     1       0.517   8.937  21.726  0.00  0.00    +0.000 C 
ATOM     21  O   UNL     1       0.419   9.794  20.570  0.00  0.00    +0.000 OA
ENDBRANCH  12  13
ENDBRANCH   1  12
TORSDOF 5
ENDMDL
MODEL 9
REMARK VINA RESULT:      -7.0      5.371      6.749
REMARK  Name = 
REMARK  5 active torsions:
REMARK  status: ('A' for Active; 'I' for Inactive)
REMARK    1  A    between atoms: C_6  and  C_7
REMARK    2  A    between atoms: C_7  and  N_8
REMARK    3  A    between atoms: N_8  and  C_9
REMARK    4  A    between atoms: C_9  and  C_10
REMARK    5  A    between atoms: C_10  and  C_11
REMARK                            x       y       z     vdW  Elec       q    Type
REMARK                         _______ _______ _______ _____ _____    ______ ____
ROOT
ATOM      1  C   UNL     1       7.897   6.672  18.544  0.00  0.00    +0.000 C 
ENDROOT
BRANCH   1   2
ATOM      2  N   UNL     1       8.557   7.946  18.822  0.00  0.00    +0.000 NA
ATOM      3  H   UNL     1       8.423   8.195  19.801  0.00  0.00    +0.000 HD
BRANCH   2   4
ATOM      4  C   UNL     1       8.128   9.046  17.973  0.00  0.00    +0.000 C 
BRANCH   4  10
ATOM      5 CL   UNL     1      12.041  11.797  20.032  0.00  0.00    +0.000 Cl
ATOM      6  C   UNL     1      10.589  11.709  19.112  0.00  0.00    +0.000 A 
ATOM      7  C   UNL     1      10.112  12.844  18.462  0.00  0.00    +0.000 A 
ATOM      8  C   UNL     1       8.930  12.772  17.726  0.00  0.00    +0.000 A 
ATOM      9  C   UNL     1       8.249  11.556  17.615  0.00  0.00    +0.000 A 
ATOM     10  C   UNL     1       8.750  10.396  18.231  0.00  0.00    +0.000 A 
ATOM     11  C   UNL     1       9.916  10.493  19.004  0.00  0.00    +0.000 A 
ENDBRANCH   4  10
ENDBRANCH   2   4
ENDBRANCH   1   2
BRANCH   1  12
ATOM     12  C   UNL     1       6.755   6.782  17.524  0.00  0.00    +0.000 C 
BRANCH  12  13
ATOM     13  C   UNL     1       5.597   5.889  17.871  0.00  0.00    +0.000 A 
ATOM     14  C   UNL     1       4.287   6.229  17.472  0.00  0.00    +0.000 A 
ATOM     15  C   UNL     1       3.199   5.423  17.837  0.00  0.00    +0.000 A 
ATOM     16  C   UNL     1       3.462   4.302  18.594  0.00  0.00    +0.000 A 
ATOM     17  C   UNL     1       4.741   3.956  18.967  0.00  0.00    +0.000 A 
ATOM     18  C   UNL     1       5.827   4.721  18.617  0.00  0.00    +0.000 A 
ATOM     19  O   UNL     1       4.781   2.822  19.712  0.00  0.00    +0.000 OA
ATOM     20  C   UNL     1       3.376   2.514  19.803  0.00  0.00    +0.000 C 
ATOM     21  O   UNL     1       2.537   3.424  19.062  0.00  0.00    +0.000 OA
ENDBRANCH  12  13
ENDBRANCH   1  12
TORSDOF 5
ENDMDL
