MODEL 1
REMARK VINA RESULT:     -10.0      0.000      0.000
REMARK  Name = 
REMARK  2 active torsions:
REMARK  status: ('A' for Active; 'I' for Inactive)
REMARK    1  A    between atoms: N_9  and  C_10
REMARK    2  A    between atoms: C_17  and  C_18
REMARK                            x       y       z     vdW  Elec       q    Type
REMARK                         _______ _______ _______ _____ _____    ______ ____
ROOT
ATOM      1  C   UNL     1       3.819   4.222  17.097  0.00  0.00    +0.000 A 
ATOM      2  N   UNL     1       4.133   2.903  17.063  0.00  0.00    +0.000 NA
ATOM      3  C   UNL     1       4.006   2.253  18.229  0.00  0.00    +0.000 A 
ATOM      4  N   UNL     1       3.523   2.758  19.370  0.00  0.00    +0.000 NA
ATOM      5  C   UNL     1       3.103   4.027  19.341  0.00  0.00    +0.000 A 
ATOM      6  C   UNL     1       2.638   4.640  20.496  0.00  0.00    +0.000 A 
ATOM      7  C   UNL     1       2.242   5.985  20.510  0.00  0.00    +0.000 A 
ATOM      8  C   UNL     1       2.256   6.760  19.347  0.00  0.00    +0.000 A 
ATOM      9  C   UNL     1       2.695   6.135  18.179  0.00  0.00    +0.000 A 
ATOM     10  C   UNL     1       3.171   4.815  18.181  0.00  0.00    +0.000 A 
ENDROOT
BRANCH   8  11
ATOM     11  C   UNL     1       1.838   8.175  19.315  0.00  0.00    +0.000 A 
ATOM     12  C   UNL     1       2.049   8.951  18.147  0.00  0.00    +0.000 A 
ATOM     13  C   UNL     1       1.589  10.270  18.039  0.00  0.00    +0.000 A 
ATOM     14  C   UNL     1       0.932  10.801  19.134  0.00  0.00    +0.000 A 
ATOM     15  N   UNL     1       0.409  12.075  19.336  0.00  0.00    +0.000 N 
ATOM     16  C   UNL     1      -0.092  12.198  20.583  0.00  0.00    +0.000 A 
ATOM     17  C   UNL     1       0.122  10.971  21.228  0.00  0.00    +0.000 A 
ATOM     18  C   UNL     1       0.756  10.111  20.322  0.00  0.00    +0.000 A 
ATOM     19  C   UNL     1       1.199   8.776  20.409  0.00  0.00    +0.000 A 
ATOM     20  H   UNL     1       0.378  12.798  18.616  0.00  0.00    +0.000 HD
ENDBRANCH   8  11
BRANCH   1  29
ATOM     21  C   UNL     1       7.785   5.988  18.770  0.00  0.00    +0.000 A 
ATOM     22  C   UNL     1       7.483   7.070  17.936  0.00  0.00    +0.000 A 
ATOM     23  C   UNL     1       6.329   7.035  17.137  0.00  0.00    +0.000 A 
ATOM     24  C   UNL     1       5.743   5.771  17.046  0.00  0.00    +0.000 A 
ATOM     25  C   UNL     1       6.574   4.665  17.259  0.00  0.00    +0.000 A 
ATOM     26  C   UNL     1       7.360   4.720  18.408  0.00  0.00    +0.000 A 
ATOM     27  C   UNL     1       6.693   4.251  15.878  0.00  0.00    +0.000 A 
ATOM     28  C   UNL     1       5.495   4.634  15.268  0.00  0.00    +0.000 A 
ATOM     29  N   UNL     1       4.733   5.110  16.330  0.00  0.00    +0.000 N 
ENDBRANCH   1  29
TORSDOF 2
ENDMDL
MODEL 2
REMARK VINA RESULT:      -9.4      0.815      1.437
REMARK  Name = 
REMARK  2 active torsions:
REMARK  status: ('A' for Active; 'I' for Inactive)
REMARK    1  A    between atoms: N_9  and  C_10
REMARK    2  A    between atoms: C_17  and  C_18
REMARK                            x       y       z     vdW  Elec       q    Type
REMARK                         _______ _______ _______ _____ _____    ______ ____
ROOT
ATOM      1  C   UNL     1       3.909   4.793  16.962  0.00  0.00    +0.000 A 
ATOM      2  N   UNL     1       4.216   3.474  16.874  0.00  0.00    +0.000 NA
ATOM      3  C   UNL     1       3.991   2.758  17.985  0.00  0.00    +0.000 A 
ATOM      4  N   UNL     1       3.420   3.200  19.111  0.00  0.00    +0.000 NA
ATOM      5  C   UNL     1       3.012   4.474  19.125  0.00  0.00    +0.000 A 
ATOM      6  C   UNL     1       2.459   5.022  20.273  0.00  0.00    +0.000 A 
ATOM      7  C   UNL     1       2.072   6.369  20.336  0.00  0.00    +0.000 A 
ATOM      8  C   UNL     1       2.186   7.211  19.226  0.00  0.00    +0.000 A 
ATOM      9  C   UNL     1       2.714   6.651  18.062  0.00  0.00    +0.000 A 
ATOM     10  C   UNL     1       3.180   5.328  18.023  0.00  0.00    +0.000 A 
ENDROOT
BRANCH   8  11
ATOM     11  C   UNL     1       1.782   8.630  19.246  0.00  0.00    +0.000 A 
ATOM     12  C   UNL     1       0.829   9.083  20.195  0.00  0.00    +0.000 A 
ATOM     13  C   UNL     1       0.481  10.435  20.309  0.00  0.00    +0.000 A 
ATOM     14  C   UNL     1       1.093  11.321  19.441  0.00  0.00    +0.000 A 
ATOM     15  N   UNL     1       0.920  12.693  19.290  0.00  0.00    +0.000 N 
ATOM     16  C   UNL     1       1.668  13.163  18.269  0.00  0.00    +0.000 A 
ATOM     17  C   UNL     1       2.342  12.062  17.721  0.00  0.00    +0.000 A 
ATOM     18  C   UNL     1       1.980  10.925  18.454  0.00  0.00    +0.000 A 
ATOM     19  C   UNL     1       2.342   9.566  18.365  0.00  0.00    +0.000 A 
ATOM     20  H   UNL     1       0.335  13.264  19.902  0.00  0.00    +0.000 HD
ENDBRANCH   8  11
BRANCH   1  29
ATOM     21  C   UNL     1       8.001   5.979  18.831  0.00  0.00    +0.000 A 
ATOM     22  C   UNL     1       7.783   7.195  18.173  0.00  0.00    +0.000 A 
ATOM     23  C   UNL     1       6.629   7.368  17.392  0.00  0.00    +0.000 A 
ATOM     24  C   UNL     1       5.947   6.181  17.119  0.00  0.00    +0.000 A 
ATOM     25  C   UNL     1       6.691   4.995  17.154  0.00  0.00    +0.000 A 
ATOM     26  C   UNL     1       7.479   4.816  18.288  0.00  0.00    +0.000 A 
ATOM     27  C   UNL     1       6.776   4.786  15.726  0.00  0.00    +0.000 A 
ATOM     28  C   UNL     1       5.610   5.347  15.194  0.00  0.00    +0.000 A 
ATOM     29  N   UNL     1       4.889   5.713  16.325  0.00  0.00    +0.000 N 
ENDBRANCH   1  29
TORSDOF 2
ENDMDL
MODEL 3
REMARK VINA RESULT:      -9.2      1.581      3.923
REMARK  Name = 
REMARK  2 active torsions:
REMARK  status: ('A' for Active; 'I' for Inactive)
REMARK    1  A    between atoms: N_9  and  C_10
REMARK    2  A    between atoms: C_17  and  C_18
REMARK                            x       y       z     vdW  Elec       q    Type
REMARK                         _______ _______ _______ _____ _____    ______ ____
ROOT
ATOM      1  C   UNL     1       5.488   4.598  19.030  0.00  0.00    +0.000 A 
ATOM      2  N   UNL     1       6.549   3.953  18.483  0.00  0.00    +0.000 NA
ATOM      3  C   UNL     1       6.827   4.280  17.212  0.00  0.00    +0.000 A 
ATOM      4  N   UNL     1       6.222   5.229  16.488  0.00  0.00    +0.000 NA
ATOM      5  C   UNL     1       5.262   5.935  17.094  0.00  0.00    +0.000 A 
ATOM      6  C   UNL     1       4.551   6.900  16.394  0.00  0.00    +0.000 A 
ATOM      7  C   UNL     1       3.504   7.620  16.987  0.00  0.00    +0.000 A 
ATOM      8  C   UNL     1       3.156   7.429  18.327  0.00  0.00    +0.000 A 
ATOM      9  C   UNL     1       3.891   6.481  19.039  0.00  0.00    +0.000 A 
ATOM     10  C   UNL     1       4.882   5.700  18.425  0.00  0.00    +0.000 A 
ENDROOT
BRANCH   8  11
ATOM     11  C   UNL     1       2.069   8.172  18.992  0.00  0.00    +0.000 A 
ATOM     12  C   UNL     1       1.723   7.873  20.336  0.00  0.00    +0.000 A 
ATOM     13  C   UNL     1       0.760   8.611  21.035  0.00  0.00    +0.000 A 
ATOM     14  C   UNL     1       0.136   9.642  20.355  0.00  0.00    +0.000 A 
ATOM     15  N   UNL     1      -0.874  10.506  20.766  0.00  0.00    +0.000 N 
ATOM     16  C   UNL     1      -1.246  11.325  19.759  0.00  0.00    +0.000 A 
ATOM     17  C   UNL     1      -0.467  10.978  18.646  0.00  0.00    +0.000 A 
ATOM     18  C   UNL     1       0.387   9.934  19.025  0.00  0.00    +0.000 A 
ATOM     19  C   UNL     1       1.378   9.202  18.339  0.00  0.00    +0.000 A 
ATOM     20  H   UNL     1      -1.247  10.535  21.716  0.00  0.00    +0.000 HD
ENDBRANCH   8  11
BRANCH   1  29
ATOM     21  C   UNL     1       1.002   3.789  18.101  0.00  0.00    +0.000 A 
ATOM     22  C   UNL     1       0.876   3.735  19.493  0.00  0.00    +0.000 A 
ATOM     23  C   UNL     1       2.010   3.900  20.304  0.00  0.00    +0.000 A 
ATOM     24  C   UNL     1       3.218   3.815  19.610  0.00  0.00    +0.000 A 
ATOM     25  C   UNL     1       3.218   3.088  18.413  0.00  0.00    +0.000 A 
ATOM     26  C   UNL     1       2.201   3.410  17.518  0.00  0.00    +0.000 A 
ATOM     27  C   UNL     1       3.900   1.913  18.909  0.00  0.00    +0.000 A 
ATOM     28  C   UNL     1       4.743   2.370  19.927  0.00  0.00    +0.000 A 
ATOM     29  N   UNL     1       4.596   3.752  19.866  0.00  0.00    +0.000 N 
ENDBRANCH   1  29
TORSDOF 2
ENDMDL
MODEL 4
REMARK VINA RESULT:      -9.1      1.153      1.961
REMARK  Name = 
REMARK  2 active torsions:
REMARK  status: ('A' for Active; 'I' for Inactive)
REMARK    1  A    between atoms: N_9  and  C_10
REMARK    2  A    between atoms: C_17  and  C_18
REMARK                            x       y       z     vdW  Elec       q    Type
REMARK                         _______ _______ _______ _____ _____    ______ ____
ROOT
ATOM      1  C   UNL     1       4.112   4.270  18.074  0.00  0.00    +0.000 A 
ATOM      2  N   UNL     1       4.395   2.944  18.020  0.00  0.00    +0.000 NA
ATOM      3  C   UNL     1       3.873   2.206  19.011  0.00  0.00    +0.000 A 
ATOM      4  N   UNL     1       3.044   2.637  19.969  0.00  0.00    +0.000 NA
ATOM      5  C   UNL     1       2.682   3.923  19.923  0.00  0.00    +0.000 A 
ATOM      6  C   UNL     1       1.869   4.459  20.912  0.00  0.00    +0.000 A 
ATOM      7  C   UNL     1       1.515   5.816  20.922  0.00  0.00    +0.000 A 
ATOM      8  C   UNL     1       1.933   6.684  19.909  0.00  0.00    +0.000 A 
ATOM      9  C   UNL     1       2.726   6.139  18.899  0.00  0.00    +0.000 A 
ATOM     10  C   UNL     1       3.150   4.802  18.933  0.00  0.00    +0.000 A 
ENDROOT
BRANCH   8  11
ATOM     11  C   UNL     1       1.576   8.116  19.875  0.00  0.00    +0.000 A 
ATOM     12  C   UNL     1       1.769   8.868  18.687  0.00  0.00    +0.000 A 
ATOM     13  C   UNL     1       1.362  10.204  18.581  0.00  0.00    +0.000 A 
ATOM     14  C   UNL     1       0.777  10.777  19.696  0.00  0.00    +0.000 A 
ATOM     15  N   UNL     1       0.320  12.075  19.902  0.00  0.00    +0.000 N 
ATOM     16  C   UNL     1      -0.119  12.235  21.169  0.00  0.00    +0.000 A 
ATOM     17  C   UNL     1       0.070  11.008  21.821  0.00  0.00    +0.000 A 
ATOM     18  C   UNL     1       0.625  10.111  20.900  0.00  0.00    +0.000 A 
ATOM     19  C   UNL     1       1.013   8.758  20.987  0.00  0.00    +0.000 A 
ATOM     20  H   UNL     1       0.289  12.790  19.174  0.00  0.00    +0.000 HD
ENDBRANCH   8  11
BRANCH   1  29
ATOM     21  C   UNL     1       6.405   4.231  14.026  0.00  0.00    +0.000 A 
ATOM     22  C   UNL     1       7.500   4.610  14.811  0.00  0.00    +0.000 A 
ATOM     23  C   UNL     1       7.335   4.800  16.193  0.00  0.00    +0.000 A 
ATOM     24  C   UNL     1       6.002   4.868  16.600  0.00  0.00    +0.000 A 
ATOM     25  C   UNL     1       5.062   5.271  15.643  0.00  0.00    +0.000 A 
ATOM     26  C   UNL     1       5.131   4.608  14.420  0.00  0.00    +0.000 A 
ATOM     27  C   UNL     1       4.849   6.611  16.144  0.00  0.00    +0.000 A 
ATOM     28  C   UNL     1       5.061   6.533  17.524  0.00  0.00    +0.000 A 
ATOM     29  N   UNL     1       5.247   5.172  17.742  0.00  0.00    +0.000 N 
ENDBRANCH   1  29
TORSDOF 2
ENDMDL
MODEL 5
REMARK VINA RESULT:      -9.0      1.262      2.311
REMARK  Name = 
REMARK  2 active torsions:
REMARK  status: ('A' for Active; 'I' for Inactive)
REMARK    1  A    between atoms: N_9  and  C_10
REMARK    2  A    between atoms: C_17  and  C_18
REMARK                            x       y       z     vdW  Elec       q    Type
REMARK                         _______ _______ _______ _____ _____    ______ ____
ROOT
ATOM      1  C   UNL     1       3.892   4.248  17.885  0.00  0.00    +0.000 A 
ATOM      2  N   UNL     1       4.133   2.939  17.617  0.00  0.00    +0.000 NA
ATOM      3  C   UNL     1       3.589   2.068  18.479  0.00  0.00    +0.000 A 
ATOM      4  N   UNL     1       2.775   2.364  19.499  0.00  0.00    +0.000 NA
ATOM      5  C   UNL     1       2.453   3.651  19.663  0.00  0.00    +0.000 A 
ATOM      6  C   UNL     1       1.656   4.046  20.729  0.00  0.00    +0.000 A 
ATOM      7  C   UNL     1       1.345   5.394  20.959  0.00  0.00    +0.000 A 
ATOM      8  C   UNL     1       1.789   6.400  20.096  0.00  0.00    +0.000 A 
ATOM      9  C   UNL     1       2.564   6.000  19.008  0.00  0.00    +0.000 A 
ATOM     10  C   UNL     1       2.947   4.663  18.824  0.00  0.00    +0.000 A 
ENDROOT
BRANCH   8  11
ATOM     11  C   UNL     1       1.476   7.829  20.296  0.00  0.00    +0.000 A 
ATOM     12  C   UNL     1       1.119   8.304  21.584  0.00  0.00    +0.000 A 
ATOM     13  C   UNL     1       0.901   9.663  21.839  0.00  0.00    +0.000 A 
ATOM     14  C   UNL     1       1.028  10.535  20.772  0.00  0.00    +0.000 A 
ATOM     15  N   UNL     1       0.834  11.911  20.710  0.00  0.00    +0.000 N 
ATOM     16  C   UNL     1       0.996  12.364  19.449  0.00  0.00    +0.000 A 
ATOM     17  C   UNL     1       1.292  11.247  18.653  0.00  0.00    +0.000 A 
ATOM     18  C   UNL     1       1.311  10.119  19.482  0.00  0.00    +0.000 A 
ATOM     19  C   UNL     1       1.555   8.751  19.243  0.00  0.00    +0.000 A 
ATOM     20  H   UNL     1       0.635  12.496  21.523  0.00  0.00    +0.000 HD
ENDBRANCH   8  11
BRANCH   1  29
ATOM     21  C   UNL     1       6.562   4.345  14.077  0.00  0.00    +0.000 A 
ATOM     22  C   UNL     1       7.576   4.691  14.976  0.00  0.00    +0.000 A 
ATOM     23  C   UNL     1       7.280   4.832  16.342  0.00  0.00    +0.000 A 
ATOM     24  C   UNL     1       5.914   4.890  16.621  0.00  0.00    +0.000 A 
ATOM     25  C   UNL     1       5.070   5.332  15.595  0.00  0.00    +0.000 A 
ATOM     26  C   UNL     1       5.256   4.713  14.360  0.00  0.00    +0.000 A 
ATOM     27  C   UNL     1       4.811   6.653  16.121  0.00  0.00    +0.000 A 
ATOM     28  C   UNL     1       4.890   6.525  17.511  0.00  0.00    +0.000 A 
ATOM     29  N   UNL     1       5.053   5.156  17.697  0.00  0.00    +0.000 N 
ENDBRANCH   1  29
TORSDOF 2
ENDMDL
MODEL 6
REMARK VINA RESULT:      -8.7      1.685      3.912
REMARK  Name = 
REMARK  2 active torsions:
REMARK  status: ('A' for Active; 'I' for Inactive)
REMARK    1  A    between atoms: N_9  and  C_10
REMARK    2  A    between atoms: C_17  and  C_18
REMARK                            x       y       z     vdW  Elec       q    Type
REMARK                         _______ _______ _______ _____ _____    ______ ____
ROOT
ATOM      1  C   UNL     1       5.334   4.652  19.009  0.00  0.00    +0.000 A 
ATOM      2  N   UNL     1       6.324   3.964  18.387  0.00  0.00    +0.000 NA
ATOM      3  C   UNL     1       6.501   4.259  17.091  0.00  0.00    +0.000 A 
ATOM      4  N   UNL     1       5.865   5.213  16.401  0.00  0.00    +0.000 NA
ATOM      5  C   UNL     1       4.983   5.961  17.073  0.00  0.00    +0.000 A 
ATOM      6  C   UNL     1       4.244   6.935  16.416  0.00  0.00    +0.000 A 
ATOM      7  C   UNL     1       3.273   7.698  17.080  0.00  0.00    +0.000 A 
ATOM      8  C   UNL     1       3.036   7.542  18.449  0.00  0.00    +0.000 A 
ATOM      9  C   UNL     1       3.801   6.584  19.115  0.00  0.00    +0.000 A 
ATOM     10  C   UNL     1       4.712   5.761  18.435  0.00  0.00    +0.000 A 
ENDROOT
BRANCH   8  11
ATOM     11  C   UNL     1       2.032   8.331  19.189  0.00  0.00    +0.000 A 
ATOM     12  C   UNL     1       1.251   9.300  18.509  0.00  0.00    +0.000 A 
ATOM     13  C   UNL     1       0.226  10.009  19.150  0.00  0.00    +0.000 A 
ATOM     14  C   UNL     1       0.015   9.741  20.490  0.00  0.00    +0.000 A 
ATOM     15  N   UNL     1      -0.885  10.308  21.387  0.00  0.00    +0.000 N 
ATOM     16  C   UNL     1      -0.711   9.802  22.627  0.00  0.00    +0.000 A 
ATOM     17  C   UNL     1       0.347   8.886  22.546  0.00  0.00    +0.000 A 
ATOM     18  C   UNL     1       0.790   8.854  21.218  0.00  0.00    +0.000 A 
ATOM     19  C   UNL     1       1.800   8.127  20.556  0.00  0.00    +0.000 A 
ATOM     20  H   UNL     1      -1.603  10.984  21.124  0.00  0.00    +0.000 HD
ENDBRANCH   8  11
BRANCH   1  29
ATOM     21  C   UNL     1       0.848   3.653  18.286  0.00  0.00    +0.000 A 
ATOM     22  C   UNL     1       0.764   3.703  19.682  0.00  0.00    +0.000 A 
ATOM     23  C   UNL     1       1.917   3.961  20.442  0.00  0.00    +0.000 A 
ATOM     24  C   UNL     1       3.106   3.856  19.719  0.00  0.00    +0.000 A 
ATOM     25  C   UNL     1       3.092   3.038  18.582  0.00  0.00    +0.000 A 
ATOM     26  C   UNL     1       2.040   3.262  17.697  0.00  0.00    +0.000 A 
ATOM     27  C   UNL     1       3.822   1.924  19.144  0.00  0.00    +0.000 A 
ATOM     28  C   UNL     1       4.681   2.481  20.097  0.00  0.00    +0.000 A 
ATOM     29  N   UNL     1       4.492   3.850  19.935  0.00  0.00    +0.000 N 
ENDBRANCH   1  29
TORSDOF 2
ENDMDL
MODEL 7
REMARK VINA RESULT:      -8.7      2.339      4.769
REMARK  Name = 
REMARK  2 active torsions:
REMARK  status: ('A' for Active; 'I' for Inactive)
REMARK    1  A    between atoms: N_9  and  C_10
REMARK    2  A    between atoms: C_17  and  C_18
REMARK                            x       y       z     vdW  Elec       q    Type
REMARK                         _______ _______ _______ _____ _____    ______ ____
ROOT
ATOM      1  C   UNL     1       2.893   6.152  19.266  0.00  0.00    +0.000 A 
ATOM      2  N   UNL     1       3.806   5.608  18.422  0.00  0.00    +0.000 NA
ATOM      3  C   UNL     1       4.080   6.334  17.329  0.00  0.00    +0.000 A 
ATOM      4  N   UNL     1       3.613   7.557  17.052  0.00  0.00    +0.000 NA
ATOM      5  C   UNL     1       2.814   8.122  17.963  0.00  0.00    +0.000 A 
ATOM      6  C   UNL     1       2.246   9.366  17.726  0.00  0.00    +0.000 A 
ATOM      7  C   UNL     1       1.362   9.960  18.637  0.00  0.00    +0.000 A 
ATOM      8  C   UNL     1       1.045   9.343  19.851  0.00  0.00    +0.000 A 
ATOM      9  C   UNL     1       1.639   8.107  20.103  0.00  0.00    +0.000 A 
ATOM     10  C   UNL     1       2.457   7.472  19.155  0.00  0.00    +0.000 A 
ENDROOT
BRANCH   8  11
ATOM     11  C   UNL     1       0.127   9.938  20.842  0.00  0.00    +0.000 A 
ATOM     12  C   UNL     1       0.077   9.419  22.162  0.00  0.00    +0.000 A 
ATOM     13  C   UNL     1      -0.711  10.007  23.160  0.00  0.00    +0.000 A 
ATOM     14  C   UNL     1      -1.463  11.113  22.803  0.00  0.00    +0.000 A 
ATOM     15  N   UNL     1      -2.358  11.869  23.552  0.00  0.00    +0.000 N 
ATOM     16  C   UNL     1      -2.934  12.825  22.793  0.00  0.00    +0.000 A 
ATOM     17  C   UNL     1      -2.413  12.683  21.499  0.00  0.00    +0.000 A 
ATOM     18  C   UNL     1      -1.501  11.620  21.515  0.00  0.00    +0.000 A 
ATOM     19  C   UNL     1      -0.684  11.036  20.526  0.00  0.00    +0.000 A 
ATOM     20  H   UNL     1      -2.519  11.736  24.552  0.00  0.00    +0.000 HD
ENDBRANCH   8  11
BRANCH   1  29
ATOM     21  C   UNL     1       2.983   1.555  18.554  0.00  0.00    +0.000 A 
ATOM     22  C   UNL     1       1.592   1.662  18.648  0.00  0.00    +0.000 A 
ATOM     23  C   UNL     1       1.003   2.911  18.901  0.00  0.00    +0.000 A 
ATOM     24  C   UNL     1       1.907   3.888  19.322  0.00  0.00    +0.000 A 
ATOM     25  C   UNL     1       3.084   3.445  19.939  0.00  0.00    +0.000 A 
ATOM     26  C   UNL     1       3.776   2.447  19.258  0.00  0.00    +0.000 A 
ATOM     27  C   UNL     1       2.722   3.787  21.297  0.00  0.00    +0.000 A 
ATOM     28  C   UNL     1       1.876   4.895  21.193  0.00  0.00    +0.000 A 
ATOM     29  N   UNL     1       1.908   5.194  19.834  0.00  0.00    +0.000 N 
ENDBRANCH   1  29
TORSDOF 2
ENDMDL
MODEL 8
REMARK VINA RESULT:      -8.2      2.662      8.446
REMARK  Name = 
REMARK  2 active torsions:
REMARK  status: ('A' for Active; 'I' for Inactive)
REMARK    1  A    between atoms: N_9  and  C_10
REMARK    2  A    between atoms: C_17  and  C_18
REMARK                            x       y       z     vdW  Elec       q    Type
REMARK                         _______ _______ _______ _____ _____    ______ ____
ROOT
ATOM      1  C   UNL     1       0.698  11.951  20.600  0.00  0.00    +0.000 A 
ATOM      2  N   UNL     1       0.245  13.071  21.217  0.00  0.00    +0.000 NA
ATOM      3  C   UNL     1      -0.478  12.861  22.327  0.00  0.00    +0.000 A 
ATOM      4  N   UNL     1      -0.706  11.679  22.913  0.00  0.00    +0.000 NA
ATOM      5  C   UNL     1      -0.141  10.605  22.352  0.00  0.00    +0.000 A 
ATOM      6  C   UNL     1      -0.374   9.338  22.868  0.00  0.00    +0.000 A 
ATOM      7  C   UNL     1       0.160   8.188  22.270  0.00  0.00    +0.000 A 
ATOM      8  C   UNL     1       0.989   8.269  21.148  0.00  0.00    +0.000 A 
ATOM      9  C   UNL     1       1.248   9.545  20.648  0.00  0.00    +0.000 A 
ATOM     10  C   UNL     1       0.647  10.689  21.193  0.00  0.00    +0.000 A 
ENDROOT
BRANCH   8  11
ATOM     11  C   UNL     1       1.580   7.085  20.495  0.00  0.00    +0.000 A 
ATOM     12  C   UNL     1       2.403   7.243  19.350  0.00  0.00    +0.000 A 
ATOM     13  C   UNL     1       3.056   6.159  18.751  0.00  0.00    +0.000 A 
ATOM     14  C   UNL     1       2.852   4.910  19.310  0.00  0.00    +0.000 A 
ATOM     15  N   UNL     1       3.324   3.662  18.915  0.00  0.00    +0.000 N 
ATOM     16  C   UNL     1       2.825   2.687  19.704  0.00  0.00    +0.000 A 
ATOM     17  C   UNL     1       1.985   3.312  20.637  0.00  0.00    +0.000 A 
ATOM     18  C   UNL     1       2.009   4.689  20.386  0.00  0.00    +0.000 A 
ATOM     19  C   UNL     1       1.378   5.792  20.997  0.00  0.00    +0.000 A 
ATOM     20  H   UNL     1       3.991   3.519  18.155  0.00  0.00    +0.000 HD
ENDBRANCH   8  11
BRANCH   1  29
ATOM     21  C   UNL     1      -3.099  10.782  18.179  0.00  0.00    +0.000 A 
ATOM     22  C   UNL     1      -2.175  10.336  17.227  0.00  0.00    +0.000 A 
ATOM     23  C   UNL     1      -0.799  10.486  17.466  0.00  0.00    +0.000 A 
ATOM     24  C   UNL     1      -0.500  11.342  18.527  0.00  0.00    +0.000 A 
ATOM     25  C   UNL     1      -1.455  12.312  18.855  0.00  0.00    +0.000 A 
ATOM     26  C   UNL     1      -2.758  11.842  19.003  0.00  0.00    +0.000 A 
ATOM     27  C   UNL     1      -0.767  13.451  18.287  0.00  0.00    +0.000 A 
ATOM     28  C   UNL     1       0.596  13.158  18.396  0.00  0.00    +0.000 A 
ATOM     29  N   UNL     1       0.610  11.968  19.116  0.00  0.00    +0.000 N 
ENDBRANCH   1  29
TORSDOF 2
ENDMDL
MODEL 9
REMARK VINA RESULT:      -8.2      2.068      8.433
REMARK  Name = 
REMARK  2 active torsions:
REMARK  status: ('A' for Active; 'I' for Inactive)
REMARK    1  A    between atoms: N_9  and  C_10
REMARK    2  A    between atoms: C_17  and  C_18
REMARK                            x       y       z     vdW  Elec       q    Type
REMARK                         _______ _______ _______ _____ _____    ______ ____
ROOT
ATOM      1  C   UNL     1       0.665  11.930  20.626  0.00  0.00    +0.000 A 
ATOM      2  N   UNL     1       0.185  13.029  21.262  0.00  0.00    +0.000 NA
ATOM      3  C   UNL     1      -0.538  12.783  22.364  0.00  0.00    +0.000 A 
ATOM      4  N   UNL     1      -0.745  11.587  22.926  0.00  0.00    +0.000 NA
ATOM      5  C   UNL     1      -0.155  10.535  22.349  0.00  0.00    +0.000 A 
ATOM      6  C   UNL     1      -0.365   9.254  22.840  0.00  0.00    +0.000 A 
ATOM      7  C   UNL     1       0.196   8.126  22.225  0.00  0.00    +0.000 A 
ATOM      8  C   UNL     1       1.029   8.245  21.109  0.00  0.00    +0.000 A 
ATOM      9  C   UNL     1       1.264   9.535  20.633  0.00  0.00    +0.000 A 
ATOM     10  C   UNL     1       0.636  10.657  21.196  0.00  0.00    +0.000 A 
ENDROOT
BRANCH   8  11
ATOM     11  C   UNL     1       1.647   7.086  20.437  0.00  0.00    +0.000 A 
ATOM     12  C   UNL     1       1.404   5.773  20.919  0.00  0.00    +0.000 A 
ATOM     13  C   UNL     1       1.896   4.639  20.262  0.00  0.00    +0.000 A 
ATOM     14  C   UNL     1       2.654   4.846  19.123  0.00  0.00    +0.000 A 
ATOM     15  N   UNL     1       3.300   3.933  18.297  0.00  0.00    +0.000 N 
ATOM     16  C   UNL     1       3.993   4.567  17.327  0.00  0.00    +0.000 A 
ATOM     17  C   UNL     1       3.808   5.942  17.531  0.00  0.00    +0.000 A 
ATOM     18  C   UNL     1       2.976   6.106  18.646  0.00  0.00    +0.000 A 
ATOM     19  C   UNL     1       2.453   7.239  19.300  0.00  0.00    +0.000 A 
ATOM     20  H   UNL     1       3.221   2.920  18.396  0.00  0.00    +0.000 HD
ENDBRANCH   8  11
BRANCH   1  29
ATOM     21  C   UNL     1      -3.129  10.828  18.169  0.00  0.00    +0.000 A 
ATOM     22  C   UNL     1      -2.204  10.392  17.214  0.00  0.00    +0.000 A 
ATOM     23  C   UNL     1      -0.829  10.529  17.462  0.00  0.00    +0.000 A 
ATOM     24  C   UNL     1      -0.528  11.365  18.538  0.00  0.00    +0.000 A 
ATOM     25  C   UNL     1      -1.478  12.336  18.878  0.00  0.00    +0.000 A 
ATOM     26  C   UNL     1      -2.784  11.872  19.013  0.00  0.00    +0.000 A 
ATOM     27  C   UNL     1      -0.780  13.479  18.333  0.00  0.00    +0.000 A 
ATOM     28  C   UNL     1       0.581  13.175  18.443  0.00  0.00    +0.000 A 
ATOM     29  N   UNL     1       0.583  11.972  19.142  0.00  0.00    +0.000 N 
ENDBRANCH   1  29
TORSDOF 2
ENDMDL
