MODEL 1
REMARK VINA RESULT:      -8.7      0.000      0.000
REMARK  Name = 
REMARK  4 active torsions:
REMARK  status: ('A' for Active; 'I' for Inactive)
REMARK    1  A    between atoms: C_2  and  C_4
REMARK    2  A    between atoms: C_9  and  C_10
REMARK    3  A    between atoms: C_13  and  O_14
REMARK    4  A    between atoms: O_14  and  C_15
REMARK                            x       y       z     vdW  Elec       q    Type
REMARK                         _______ _______ _______ _____ _____    ______ ____
ROOT
ATOM      1  C   UNL     1      10.654  13.662  18.125  0.00  0.00    +0.000 A 
ATOM      2  C   UNL     1      11.232  13.263  19.335  0.00  0.00    +0.000 A 
ATOM      3  C   UNL     1      10.903  12.033  19.910  0.00  0.00    +0.000 A 
ATOM      4  C   UNL     1       9.992  11.187  19.248  0.00  0.00    +0.000 A 
ATOM      5  C   UNL     1       9.476   9.897  19.527  0.00  0.00    +0.000 A 
ATOM      6  C   UNL     1       8.656   9.514  18.478  0.00  0.00    +0.000 A 
ATOM      7  N   UNL     1       8.597  10.592  17.622  0.00  0.00    +0.000 N 
ATOM      8  C   UNL     1       9.427  11.604  18.048  0.00  0.00    +0.000 A 
ATOM      9  C   UNL     1       9.722  12.846  17.466  0.00  0.00    +0.000 A 
ATOM     10  H   UNL     1       8.047  10.629  16.774  0.00  0.00    +0.000 HD
ENDROOT
BRANCH   1  12
ATOM     11  N   UNL     1      11.060  15.097  16.237  0.00  0.00    +0.000 NA
ATOM     12  C   UNL     1      11.032  14.969  17.521  0.00  0.00    +0.000 C 
ATOM     13  N   UNL     1      11.362  16.024  18.327  0.00  0.00    +0.000 N 
ATOM     14  H   UNL     1      11.291  16.062  15.991  0.00  0.00    +0.000 HD
ATOM     15  H   UNL     1      11.909  16.753  17.887  0.00  0.00    +0.000 HD
ATOM     16  H   UNL     1      11.738  15.775  19.236  0.00  0.00    +0.000 HD
ENDBRANCH   1  12
BRANCH   6  17
ATOM     17  C   UNL     1       7.987   8.238  18.237  0.00  0.00    +0.000 A 
ATOM     18  C   UNL     1       8.348   7.099  18.970  0.00  0.00    +0.000 A 
ATOM     19  C   UNL     1       7.768   5.858  18.692  0.00  0.00    +0.000 A 
ATOM     20  C   UNL     1       6.818   5.739  17.679  0.00  0.00    +0.000 A 
ATOM     21  C   UNL     1       6.484   6.860  16.915  0.00  0.00    +0.000 A 
ATOM     22  C   UNL     1       7.042   8.106  17.212  0.00  0.00    +0.000 A 
BRANCH  20  23
ATOM     23  O   UNL     1       6.328   4.472  17.462  0.00  0.00    +0.000 OA
BRANCH  23  24
ATOM     24  C   UNL     1       5.083   4.124  17.931  0.00  0.00    +0.000 A 
ATOM     25  C   UNL     1       4.070   4.050  16.971  0.00  0.00    +0.000 A 
ATOM     26  C   UNL     1       2.772   3.705  17.349  0.00  0.00    +0.000 A 
ATOM     27  C   UNL     1       2.497   3.437  18.685  0.00  0.00    +0.000 A 
ATOM     28  F   UNL     1       1.247   3.130  19.054  0.00  0.00    +0.000 F 
ATOM     29  C   UNL     1       3.502   3.475  19.645  0.00  0.00    +0.000 A 
ATOM     30  C   UNL     1       4.806   3.790  19.262  0.00  0.00    +0.000 A 
ENDBRANCH  23  24
ENDBRANCH  20  23
ENDBRANCH   6  17
TORSDOF 4
ENDMDL
MODEL 2
REMARK VINA RESULT:      -8.6      0.313      1.145
REMARK  Name = 
REMARK  4 active torsions:
REMARK  status: ('A' for Active; 'I' for Inactive)
REMARK    1  A    between atoms: C_2  and  C_4
REMARK    2  A    between atoms: C_9  and  C_10
REMARK    3  A    between atoms: C_13  and  O_14
REMARK    4  A    between atoms: O_14  and  C_15
REMARK                            x       y       z     vdW  Elec       q    Type
REMARK                         _______ _______ _______ _____ _____    ______ ____
ROOT
ATOM      1  C   UNL     1      10.627  13.819  18.179  0.00  0.00    +0.000 A 
ATOM      2  C   UNL     1      11.267  13.421  19.357  0.00  0.00    +0.000 A 
ATOM      3  C   UNL     1      10.990  12.177  19.933  0.00  0.00    +0.000 A 
ATOM      4  C   UNL     1      10.069  11.319  19.303  0.00  0.00    +0.000 A 
ATOM      5  C   UNL     1       9.594  10.014  19.589  0.00  0.00    +0.000 A 
ATOM      6  C   UNL     1       8.738   9.624  18.574  0.00  0.00    +0.000 A 
ATOM      7  N   UNL     1       8.618  10.709  17.733  0.00  0.00    +0.000 N 
ATOM      8  C   UNL     1       9.443  11.735  18.132  0.00  0.00    +0.000 A 
ATOM      9  C   UNL     1       9.685  12.989  17.553  0.00  0.00    +0.000 A 
ATOM     10  H   UNL     1       8.030  10.742  16.910  0.00  0.00    +0.000 HD
ENDROOT
BRANCH   1  12
ATOM     11  N   UNL     1      10.950  16.200  18.309  0.00  0.00    +0.000 NA
ATOM     12  C   UNL     1      10.949  15.140  17.573  0.00  0.00    +0.000 C 
ATOM     13  N   UNL     1      11.228  15.229  16.237  0.00  0.00    +0.000 N 
ATOM     14  H   UNL     1      11.235  17.007  17.753  0.00  0.00    +0.000 HD
ATOM     15  H   UNL     1      11.115  16.148  15.828  0.00  0.00    +0.000 HD
ATOM     16  H   UNL     1      10.807  14.511  15.656  0.00  0.00    +0.000 HD
ENDBRANCH   1  12
BRANCH   6  17
ATOM     17  C   UNL     1       8.087   8.336  18.348  0.00  0.00    +0.000 A 
ATOM     18  C   UNL     1       8.443   7.218  19.115  0.00  0.00    +0.000 A 
ATOM     19  C   UNL     1       7.881   5.965  18.853  0.00  0.00    +0.000 A 
ATOM     20  C   UNL     1       6.954   5.813  17.823  0.00  0.00    +0.000 A 
ATOM     21  C   UNL     1       6.626   6.913  17.026  0.00  0.00    +0.000 A 
ATOM     22  C   UNL     1       7.165   8.171  17.306  0.00  0.00    +0.000 A 
BRANCH  20  23
ATOM     23  O   UNL     1       6.482   4.536  17.625  0.00  0.00    +0.000 OA
BRANCH  23  24
ATOM     24  C   UNL     1       5.156   4.248  17.853  0.00  0.00    +0.000 A 
ATOM     25  C   UNL     1       4.689   4.513  19.144  0.00  0.00    +0.000 A 
ATOM     26  C   UNL     1       3.358   4.255  19.473  0.00  0.00    +0.000 A 
ATOM     27  C   UNL     1       2.505   3.732  18.508  0.00  0.00    +0.000 A 
ATOM     28  F   UNL     1       1.233   3.461  18.829  0.00  0.00    +0.000 F 
ATOM     29  C   UNL     1       2.948   3.495  17.212  0.00  0.00    +0.000 A 
ATOM     30  C   UNL     1       4.270   3.783  16.875  0.00  0.00    +0.000 A 
ENDBRANCH  23  24
ENDBRANCH  20  23
ENDBRANCH   6  17
TORSDOF 4
ENDMDL
MODEL 3
REMARK VINA RESULT:      -8.6      0.716      1.525
REMARK  Name = 
REMARK  4 active torsions:
REMARK  status: ('A' for Active; 'I' for Inactive)
REMARK    1  A    between atoms: C_2  and  C_4
REMARK    2  A    between atoms: C_9  and  C_10
REMARK    3  A    between atoms: C_13  and  O_14
REMARK    4  A    between atoms: O_14  and  C_15
REMARK                            x       y       z     vdW  Elec       q    Type
REMARK                         _______ _______ _______ _____ _____    ______ ____
ROOT
ATOM      1  C   UNL     1      10.019  13.514  18.149  0.00  0.00    +0.000 A 
ATOM      2  C   UNL     1      10.746  13.075  19.260  0.00  0.00    +0.000 A 
ATOM      3  C   UNL     1      10.575  11.779  19.756  0.00  0.00    +0.000 A 
ATOM      4  C   UNL     1       9.671  10.912  19.114  0.00  0.00    +0.000 A 
ATOM      5  C   UNL     1       9.290   9.564  19.328  0.00  0.00    +0.000 A 
ATOM      6  C   UNL     1       8.401   9.194  18.332  0.00  0.00    +0.000 A 
ATOM      7  N   UNL     1       8.171  10.325  17.581  0.00  0.00    +0.000 N 
ATOM      8  C   UNL     1       8.957  11.370  18.011  0.00  0.00    +0.000 A 
ATOM      9  C   UNL     1       9.093  12.674  17.514  0.00  0.00    +0.000 A 
ATOM     10  H   UNL     1       7.537  10.380  16.794  0.00  0.00    +0.000 HD
ENDROOT
BRANCH   1  12
ATOM     11  N   UNL     1      11.429  15.331  17.441  0.00  0.00    +0.000 NA
ATOM     12  C   UNL     1      10.230  14.893  17.626  0.00  0.00    +0.000 C 
ATOM     13  N   UNL     1       9.154  15.693  17.360  0.00  0.00    +0.000 N 
ATOM     14  H   UNL     1      11.395  16.269  17.037  0.00  0.00    +0.000 HD
ATOM     15  H   UNL     1       9.347  16.686  17.328  0.00  0.00    +0.000 HD
ATOM     16  H   UNL     1       8.319  15.495  17.902  0.00  0.00    +0.000 HD
ENDBRANCH   1  12
BRANCH   6  17
ATOM     17  C   UNL     1       7.814   7.887  18.046  0.00  0.00    +0.000 A 
ATOM     18  C   UNL     1       6.779   7.765  17.108  0.00  0.00    +0.000 A 
ATOM     19  C   UNL     1       6.159   6.532  16.885  0.00  0.00    +0.000 A 
ATOM     20  C   UNL     1       6.567   5.404  17.595  0.00  0.00    +0.000 A 
ATOM     21  C   UNL     1       7.568   5.525  18.562  0.00  0.00    +0.000 A 
ATOM     22  C   UNL     1       8.208   6.751  18.763  0.00  0.00    +0.000 A 
BRANCH  20  23
ATOM     23  O   UNL     1       5.876   4.245  17.327  0.00  0.00    +0.000 OA
BRANCH  23  24
ATOM     24  C   UNL     1       4.627   4.045  17.869  0.00  0.00    +0.000 A 
ATOM     25  C   UNL     1       4.598   3.741  19.233  0.00  0.00    +0.000 A 
ATOM     26  C   UNL     1       3.379   3.522  19.875  0.00  0.00    +0.000 A 
ATOM     27  C   UNL     1       2.198   3.608  19.147  0.00  0.00    +0.000 A 
ATOM     28  F   UNL     1       1.028   3.373  19.755  0.00  0.00    +0.000 F 
ATOM     29  C   UNL     1       2.211   3.942  17.798  0.00  0.00    +0.000 A 
ATOM     30  C   UNL     1       3.428   4.191  17.163  0.00  0.00    +0.000 A 
ENDBRANCH  23  24
ENDBRANCH  20  23
ENDBRANCH   6  17
TORSDOF 4
ENDMDL
MODEL 4
REMARK VINA RESULT:      -8.5      8.658     11.018
REMARK  Name = 
REMARK  4 active torsions:
REMARK  status: ('A' for Active; 'I' for Inactive)
REMARK    1  A    between atoms: C_2  and  C_4
REMARK    2  A    between atoms: C_9  and  C_10
REMARK    3  A    between atoms: C_13  and  O_14
REMARK    4  A    between atoms: O_14  and  C_15
REMARK                            x       y       z     vdW  Elec       q    Type
REMARK                         _______ _______ _______ _____ _____    ______ ____
ROOT
ATOM      1  C   UNL     1       4.181   5.199  18.663  0.00  0.00    +0.000 A 
ATOM      2  C   UNL     1       4.209   6.007  17.521  0.00  0.00    +0.000 A 
ATOM      3  C   UNL     1       3.448   7.177  17.458  0.00  0.00    +0.000 A 
ATOM      4  C   UNL     1       2.662   7.545  18.566  0.00  0.00    +0.000 A 
ATOM      5  C   UNL     1       1.818   8.650  18.843  0.00  0.00    +0.000 A 
ATOM      6  C   UNL     1       1.347   8.532  20.140  0.00  0.00    +0.000 A 
ATOM      7  N   UNL     1       1.818   7.326  20.612  0.00  0.00    +0.000 N 
ATOM      8  C   UNL     1       2.647   6.727  19.691  0.00  0.00    +0.000 A 
ATOM      9  C   UNL     1       3.382   5.534  19.765  0.00  0.00    +0.000 A 
ATOM     10  H   UNL     1       1.614   6.942  21.525  0.00  0.00    +0.000 HD
ENDROOT
BRANCH   1  12
ATOM     11  N   UNL     1       6.294   4.050  18.577  0.00  0.00    +0.000 NA
ATOM     12  C   UNL     1       5.014   3.966  18.716  0.00  0.00    +0.000 C 
ATOM     13  N   UNL     1       4.419   2.748  18.897  0.00  0.00    +0.000 N 
ATOM     14  H   UNL     1       6.715   3.126  18.685  0.00  0.00    +0.000 HD
ATOM     15  H   UNL     1       4.966   1.948  18.604  0.00  0.00    +0.000 HD
ATOM     16  H   UNL     1       3.460   2.680  18.573  0.00  0.00    +0.000 HD
ENDBRANCH   1  12
BRANCH   6  17
ATOM     17  C   UNL     1       0.546   9.464  20.928  0.00  0.00    +0.000 A 
ATOM     18  C   UNL     1       0.457  10.813  20.556  0.00  0.00    +0.000 A 
ATOM     19  C   UNL     1      -0.243  11.727  21.348  0.00  0.00    +0.000 A 
ATOM     20  C   UNL     1      -0.867  11.305  22.521  0.00  0.00    +0.000 A 
ATOM     21  C   UNL     1      -0.747   9.972  22.922  0.00  0.00    +0.000 A 
ATOM     22  C   UNL     1      -0.072   9.053  22.116  0.00  0.00    +0.000 A 
BRANCH  20  23
ATOM     23  O   UNL     1      -1.505  12.285  23.247  0.00  0.00    +0.000 OA
BRANCH  23  24
ATOM     24  C   UNL     1      -2.855  12.493  23.085  0.00  0.00    +0.000 A 
ATOM     25  C   UNL     1      -3.612  12.521  24.260  0.00  0.00    +0.000 A 
ATOM     26  C   UNL     1      -4.990  12.727  24.200  0.00  0.00    +0.000 A 
ATOM     27  C   UNL     1      -5.602  12.902  22.963  0.00  0.00    +0.000 A 
ATOM     28  F   UNL     1      -6.928  13.075  22.901  0.00  0.00    +0.000 F 
ATOM     29  C   UNL     1      -4.856  12.909  21.790  0.00  0.00    +0.000 A 
ATOM     30  C   UNL     1      -3.474  12.735  21.853  0.00  0.00    +0.000 A 
ENDBRANCH  23  24
ENDBRANCH  20  23
ENDBRANCH   6  17
TORSDOF 4
ENDMDL
MODEL 5
REMARK VINA RESULT:      -8.5      6.673      8.518
REMARK  Name = 
REMARK  4 active torsions:
REMARK  status: ('A' for Active; 'I' for Inactive)
REMARK    1  A    between atoms: C_2  and  C_4
REMARK    2  A    between atoms: C_9  and  C_10
REMARK    3  A    between atoms: C_13  and  O_14
REMARK    4  A    between atoms: O_14  and  C_15
REMARK                            x       y       z     vdW  Elec       q    Type
REMARK                         _______ _______ _______ _____ _____    ______ ____
ROOT
ATOM      1  C   UNL     1       0.038   9.868  21.371  0.00  0.00    +0.000 A 
ATOM      2  C   UNL     1      -0.313  10.513  20.180  0.00  0.00    +0.000 A 
ATOM      3  C   UNL     1       0.262  10.128  18.966  0.00  0.00    +0.000 A 
ATOM      4  C   UNL     1       1.191   9.069  18.950  0.00  0.00    +0.000 A 
ATOM      5  C   UNL     1       1.919   8.422  17.921  0.00  0.00    +0.000 A 
ATOM      6  C   UNL     1       2.640   7.380  18.479  0.00  0.00    +0.000 A 
ATOM      7  N   UNL     1       2.431   7.452  19.839  0.00  0.00    +0.000 N 
ATOM      8  C   UNL     1       1.527   8.443  20.146  0.00  0.00    +0.000 A 
ATOM      9  C   UNL     1       0.983   8.831  21.379  0.00  0.00    +0.000 A 
ATOM     10  H   UNL     1       2.854   6.838  20.523  0.00  0.00    +0.000 HD
ENDROOT
BRANCH   1  12
ATOM     11  N   UNL     1      -0.434   9.564  23.711  0.00  0.00    +0.000 NA
ATOM     12  C   UNL     1      -0.600  10.282  22.651  0.00  0.00    +0.000 C 
ATOM     13  N   UNL     1      -1.371  11.411  22.696  0.00  0.00    +0.000 N 
ATOM     14  H   UNL     1      -0.896  10.010  24.505  0.00  0.00    +0.000 HD
ATOM     15  H   UNL     1      -2.024  11.462  23.468  0.00  0.00    +0.000 HD
ATOM     16  H   UNL     1      -1.812  11.671  21.819  0.00  0.00    +0.000 HD
ENDBRANCH   1  12
BRANCH   6  17
ATOM     17  C   UNL     1       3.448   6.352  17.828  0.00  0.00    +0.000 A 
ATOM     18  C   UNL     1       4.513   6.713  16.991  0.00  0.00    +0.000 A 
ATOM     19  C   UNL     1       5.242   5.739  16.302  0.00  0.00    +0.000 A 
ATOM     20  C   UNL     1       4.918   4.391  16.444  0.00  0.00    +0.000 A 
ATOM     21  C   UNL     1       3.830   4.025  17.242  0.00  0.00    +0.000 A 
ATOM     22  C   UNL     1       3.121   4.997  17.952  0.00  0.00    +0.000 A 
BRANCH  20  23
ATOM     23  O   UNL     1       5.673   3.511  15.703  0.00  0.00    +0.000 OA
BRANCH  23  24
ATOM     24  C   UNL     1       6.108   3.865  14.446  0.00  0.00    +0.000 A 
ATOM     25  C   UNL     1       7.209   4.725  14.403  0.00  0.00    +0.000 A 
ATOM     26  C   UNL     1       7.724   5.141  13.174  0.00  0.00    +0.000 A 
ATOM     27  C   UNL     1       7.132   4.693  11.999  0.00  0.00    +0.000 A 
ATOM     28  F   UNL     1       7.610   5.110  10.819  0.00  0.00    +0.000 F 
ATOM     29  C   UNL     1       6.058   3.811  12.027  0.00  0.00    +0.000 A 
ATOM     30  C   UNL     1       5.563   3.371  13.255  0.00  0.00    +0.000 A 
ENDBRANCH  23  24
ENDBRANCH  20  23
ENDBRANCH   6  17
TORSDOF 4
ENDMDL
MODEL 6
REMARK VINA RESULT:      -8.4      8.252      9.831
REMARK  Name = 
REMARK  4 active torsions:
REMARK  status: ('A' for Active; 'I' for Inactive)
REMARK    1  A    between atoms: C_2  and  C_4
REMARK    2  A    between atoms: C_9  and  C_10
REMARK    3  A    between atoms: C_13  and  O_14
REMARK    4  A    between atoms: O_14  and  C_15
REMARK                            x       y       z     vdW  Elec       q    Type
REMARK                         _______ _______ _______ _____ _____    ______ ____
ROOT
ATOM      1  C   UNL     1      -3.044  12.713  23.321  0.00  0.00    +0.000 A 
ATOM      2  C   UNL     1      -3.223  13.510  22.185  0.00  0.00    +0.000 A 
ATOM      3  C   UNL     1      -2.512  13.245  21.011  0.00  0.00    +0.000 A 
ATOM      4  C   UNL     1      -1.622  12.155  20.978  0.00  0.00    +0.000 A 
ATOM      5  C   UNL     1      -0.791  11.601  19.972  0.00  0.00    +0.000 A 
ATOM      6  C   UNL     1      -0.179  10.468  20.480  0.00  0.00    +0.000 A 
ATOM      7  N   UNL     1      -0.555  10.388  21.803  0.00  0.00    +0.000 N 
ATOM      8  C   UNL     1      -1.458  11.376  22.119  0.00  0.00    +0.000 A 
ATOM      9  C   UNL     1      -2.141  11.640  23.316  0.00  0.00    +0.000 A 
ATOM     10  H   UNL     1      -0.240   9.679  22.453  0.00  0.00    +0.000 HD
ENDROOT
BRANCH   1  12
ATOM     11  N   UNL     1      -4.631  12.111  25.027  0.00  0.00    +0.000 NA
ATOM     12  C   UNL     1      -3.824  13.001  24.556  0.00  0.00    +0.000 C 
ATOM     13  N   UNL     1      -3.695  14.212  25.178  0.00  0.00    +0.000 N 
ATOM     14  H   UNL     1      -5.048  12.447  25.896  0.00  0.00    +0.000 HD
ATOM     15  H   UNL     1      -4.459  14.472  25.789  0.00  0.00    +0.000 HD
ATOM     16  H   UNL     1      -3.424  14.984  24.576  0.00  0.00    +0.000 HD
ENDBRANCH   1  12
BRANCH   6  17
ATOM     17  C   UNL     1       0.672   9.489  19.809  0.00  0.00    +0.000 A 
ATOM     18  C   UNL     1       1.275   8.455  20.540  0.00  0.00    +0.000 A 
ATOM     19  C   UNL     1       2.152   7.560  19.920  0.00  0.00    +0.000 A 
ATOM     20  C   UNL     1       2.436   7.684  18.562  0.00  0.00    +0.000 A 
ATOM     21  C   UNL     1       1.874   8.737  17.835  0.00  0.00    +0.000 A 
ATOM     22  C   UNL     1       0.975   9.614  18.448  0.00  0.00    +0.000 A 
BRANCH  20  23
ATOM     23  O   UNL     1       3.334   6.775  18.051  0.00  0.00    +0.000 OA
BRANCH  23  24
ATOM     24  C   UNL     1       3.188   5.434  18.324  0.00  0.00    +0.000 A 
ATOM     25  C   UNL     1       2.041   4.828  17.803  0.00  0.00    +0.000 A 
ATOM     26  C   UNL     1       1.804   3.471  18.026  0.00  0.00    +0.000 A 
ATOM     27  C   UNL     1       2.716   2.732  18.770  0.00  0.00    +0.000 A 
ATOM     28  F   UNL     1       2.479   1.435  19.007  0.00  0.00    +0.000 F 
ATOM     29  C   UNL     1       3.876   3.314  19.266  0.00  0.00    +0.000 A 
ATOM     30  C   UNL     1       4.128   4.664  19.017  0.00  0.00    +0.000 A 
ENDBRANCH  23  24
ENDBRANCH  20  23
ENDBRANCH   6  17
TORSDOF 4
ENDMDL
MODEL 7
REMARK VINA RESULT:      -8.4      8.327     11.144
REMARK  Name = 
REMARK  4 active torsions:
REMARK  status: ('A' for Active; 'I' for Inactive)
REMARK    1  A    between atoms: C_2  and  C_4
REMARK    2  A    between atoms: C_9  and  C_10
REMARK    3  A    between atoms: C_13  and  O_14
REMARK    4  A    between atoms: O_14  and  C_15
REMARK                            x       y       z     vdW  Elec       q    Type
REMARK                         _______ _______ _______ _____ _____    ______ ____
ROOT
ATOM      1  C   UNL     1       3.649   3.751  19.036  0.00  0.00    +0.000 A 
ATOM      2  C   UNL     1       3.979   4.489  17.895  0.00  0.00    +0.000 A 
ATOM      3  C   UNL     1       3.552   5.813  17.755  0.00  0.00    +0.000 A 
ATOM      4  C   UNL     1       2.797   6.403  18.786  0.00  0.00    +0.000 A 
ATOM      5  C   UNL     1       2.247   7.695  18.978  0.00  0.00    +0.000 A 
ATOM      6  C   UNL     1       1.654   7.741  20.228  0.00  0.00    +0.000 A 
ATOM      7  N   UNL     1       1.758   6.470  20.750  0.00  0.00    +0.000 N 
ATOM      8  C   UNL     1       2.479   5.651  19.912  0.00  0.00    +0.000 A 
ATOM      9  C   UNL     1       2.873   4.313  20.061  0.00  0.00    +0.000 A 
ATOM     10  H   UNL     1       1.386   6.179  21.645  0.00  0.00    +0.000 HD
ENDROOT
BRANCH   1  12
ATOM     11  N   UNL     1       4.986   2.051  20.091  0.00  0.00    +0.000 NA
ATOM     12  C   UNL     1       4.128   2.348  19.173  0.00  0.00    +0.000 C 
ATOM     13  N   UNL     1       3.672   1.383  18.318  0.00  0.00    +0.000 N 
ATOM     14  H   UNL     1       5.171   1.046  20.078  0.00  0.00    +0.000 HD
ATOM     15  H   UNL     1       4.253   0.558  18.241  0.00  0.00    +0.000 HD
ATOM     16  H   UNL     1       3.378   1.716  17.405  0.00  0.00    +0.000 HD
ENDBRANCH   1  12
BRANCH   6  17
ATOM     17  C   UNL     1       1.057   8.870  20.936  0.00  0.00    +0.000 A 
ATOM     18  C   UNL     1       0.652   8.737  22.272  0.00  0.00    +0.000 A 
ATOM     19  C   UNL     1       0.009   9.788  22.931  0.00  0.00    +0.000 A 
ATOM     20  C   UNL     1      -0.236  10.988  22.266  0.00  0.00    +0.000 A 
ATOM     21  C   UNL     1       0.126  11.116  20.922  0.00  0.00    +0.000 A 
ATOM     22  C   UNL     1       0.795  10.075  20.272  0.00  0.00    +0.000 A 
BRANCH  20  23
ATOM     23  O   UNL     1      -0.900  11.951  22.991  0.00  0.00    +0.000 OA
BRANCH  23  24
ATOM     24  C   UNL     1      -2.194  12.287  22.666  0.00  0.00    +0.000 A 
ATOM     25  C   UNL     1      -3.095  12.339  23.734  0.00  0.00    +0.000 A 
ATOM     26  C   UNL     1      -4.431  12.671  23.506  0.00  0.00    +0.000 A 
ATOM     27  C   UNL     1      -4.855  12.947  22.211  0.00  0.00    +0.000 A 
ATOM     28  F   UNL     1      -6.142  13.242  21.986  0.00  0.00    +0.000 F 
ATOM     29  C   UNL     1      -3.963  12.931  21.146  0.00  0.00    +0.000 A 
ATOM     30  C   UNL     1      -2.621  12.629  21.378  0.00  0.00    +0.000 A 
ENDBRANCH  23  24
ENDBRANCH  20  23
ENDBRANCH   6  17
TORSDOF 4
ENDMDL
MODEL 8
REMARK VINA RESULT:      -8.3      8.800     11.387
REMARK  Name = 
REMARK  4 active torsions:
REMARK  status: ('A' for Active; 'I' for Inactive)
REMARK    1  A    between atoms: C_2  and  C_4
REMARK    2  A    between atoms: C_9  and  C_10
REMARK    3  A    between atoms: C_13  and  O_14
REMARK    4  A    between atoms: O_14  and  C_15
REMARK                            x       y       z     vdW  Elec       q    Type
REMARK                         _______ _______ _______ _____ _____    ______ ____
ROOT
ATOM      1  C   UNL     1       3.359   4.474  19.341  0.00  0.00    +0.000 A 
ATOM      2  C   UNL     1       3.722   5.248  18.233  0.00  0.00    +0.000 A 
ATOM      3  C   UNL     1       3.280   6.568  18.111  0.00  0.00    +0.000 A 
ATOM      4  C   UNL     1       2.475   7.119  19.126  0.00  0.00    +0.000 A 
ATOM      5  C   UNL     1       1.897   8.397  19.330  0.00  0.00    +0.000 A 
ATOM      6  C   UNL     1       1.256   8.400  20.557  0.00  0.00    +0.000 A 
ATOM      7  N   UNL     1       1.359   7.118  21.049  0.00  0.00    +0.000 N 
ATOM      8  C   UNL     1       2.125   6.332  20.218  0.00  0.00    +0.000 A 
ATOM      9  C   UNL     1       2.535   4.997  20.348  0.00  0.00    +0.000 A 
ATOM     10  H   UNL     1       0.958   6.798  21.921  0.00  0.00    +0.000 HD
ENDROOT
BRANCH   1  12
ATOM     11  N   UNL     1       3.015   2.096  19.472  0.00  0.00    +0.000 NA
ATOM     12  C   UNL     1       3.856   3.075  19.460  0.00  0.00    +0.000 C 
ATOM     13  N   UNL     1       5.197   2.834  19.573  0.00  0.00    +0.000 N 
ATOM     14  H   UNL     1       3.520   1.209  19.511  0.00  0.00    +0.000 HD
ATOM     15  H   UNL     1       5.447   1.938  19.970  0.00  0.00    +0.000 HD
ATOM     16  H   UNL     1       5.741   3.587  19.984  0.00  0.00    +0.000 HD
ENDBRANCH   1  12
BRANCH   6  17
ATOM     17  C   UNL     1       0.613   9.502  21.269  0.00  0.00    +0.000 A 
ATOM     18  C   UNL     1      -0.167   9.251  22.408  0.00  0.00    +0.000 A 
ATOM     19  C   UNL     1      -0.848  10.289  23.049  0.00  0.00    +0.000 A 
ATOM     20  C   UNL     1      -0.758  11.592  22.564  0.00  0.00    +0.000 A 
ATOM     21  C   UNL     1      -0.019  11.845  21.405  0.00  0.00    +0.000 A 
ATOM     22  C   UNL     1       0.686  10.812  20.781  0.00  0.00    +0.000 A 
BRANCH  20  23
ATOM     23  O   UNL     1      -1.488  12.538  23.246  0.00  0.00    +0.000 OA
BRANCH  23  24
ATOM     24  C   UNL     1      -2.849  12.624  23.060  0.00  0.00    +0.000 A 
ATOM     25  C   UNL     1      -3.625  12.591  24.222  0.00  0.00    +0.000 A 
ATOM     26  C   UNL     1      -5.015  12.673  24.137  0.00  0.00    +0.000 A 
ATOM     27  C   UNL     1      -5.618  12.785  22.889  0.00  0.00    +0.000 A 
ATOM     28  F   UNL     1      -6.954  12.839  22.804  0.00  0.00    +0.000 F 
ATOM     29  C   UNL     1      -4.857  12.852  21.729  0.00  0.00    +0.000 A 
ATOM     30  C   UNL     1      -3.465  12.802  21.816  0.00  0.00    +0.000 A 
ENDBRANCH  23  24
ENDBRANCH  20  23
ENDBRANCH   6  17
TORSDOF 4
ENDMDL
MODEL 9
REMARK VINA RESULT:      -8.3      0.985      1.370
REMARK  Name = 
REMARK  4 active torsions:
REMARK  status: ('A' for Active; 'I' for Inactive)
REMARK    1  A    between atoms: C_2  and  C_4
REMARK    2  A    between atoms: C_9  and  C_10
REMARK    3  A    between atoms: C_13  and  O_14
REMARK    4  A    between atoms: O_14  and  C_15
REMARK                            x       y       z     vdW  Elec       q    Type
REMARK                         _______ _______ _______ _____ _____    ______ ____
ROOT
ATOM      1  C   UNL     1       9.524  13.560  17.982  0.00  0.00    +0.000 A 
ATOM      2  C   UNL     1      10.538  13.095  18.826  0.00  0.00    +0.000 A 
ATOM      3  C   UNL     1      10.571  11.758  19.229  0.00  0.00    +0.000 A 
ATOM      4  C   UNL     1       9.578  10.875  18.763  0.00  0.00    +0.000 A 
ATOM      5  C   UNL     1       9.337   9.490  18.944  0.00  0.00    +0.000 A 
ATOM      6  C   UNL     1       8.241   9.130  18.178  0.00  0.00    +0.000 A 
ATOM      7  N   UNL     1       7.763  10.294  17.616  0.00  0.00    +0.000 N 
ATOM      8  C   UNL     1       8.578  11.359  17.925  0.00  0.00    +0.000 A 
ATOM      9  C   UNL     1       8.510  12.703  17.530  0.00  0.00    +0.000 A 
ATOM     10  H   UNL     1       6.944  10.358  17.026  0.00  0.00    +0.000 HD
ENDROOT
BRANCH   1  12
ATOM     11  N   UNL     1      10.610  15.533  17.133  0.00  0.00    +0.000 NA
ATOM     12  C   UNL     1       9.518  14.986  17.550  0.00  0.00    +0.000 C 
ATOM     13  N   UNL     1       8.361  15.713  17.611  0.00  0.00    +0.000 N 
ATOM     14  H   UNL     1      10.423  16.492  16.834  0.00  0.00    +0.000 HD
ATOM     15  H   UNL     1       8.479  16.718  17.625  0.00  0.00    +0.000 HD
ATOM     16  H   UNL     1       7.693  15.408  18.312  0.00  0.00    +0.000 HD
ENDBRANCH   1  12
BRANCH   6  17
ATOM     17  C   UNL     1       7.670   7.808  17.934  0.00  0.00    +0.000 A 
ATOM     18  C   UNL     1       6.583   7.656  17.060  0.00  0.00    +0.000 A 
ATOM     19  C   UNL     1       5.981   6.407  16.880  0.00  0.00    +0.000 A 
ATOM     20  C   UNL     1       6.458   5.293  17.569  0.00  0.00    +0.000 A 
ATOM     21  C   UNL     1       7.512   5.443  18.474  0.00  0.00    +0.000 A 
ATOM     22  C   UNL     1       8.133   6.685  18.631  0.00  0.00    +0.000 A 
BRANCH  20  23
ATOM     23  O   UNL     1       5.781   4.116  17.348  0.00  0.00    +0.000 OA
BRANCH  23  24
ATOM     24  C   UNL     1       4.602   3.864  18.013  0.00  0.00    +0.000 A 
ATOM     25  C   UNL     1       3.436   3.992  17.253  0.00  0.00    +0.000 A 
ATOM     26  C   UNL     1       2.191   3.757  17.838  0.00  0.00    +0.000 A 
ATOM     27  C   UNL     1       2.123   3.395  19.178  0.00  0.00    +0.000 A 
ATOM     28  F   UNL     1       0.928   3.192  19.748  0.00  0.00    +0.000 F 
ATOM     29  C   UNL     1       3.277   3.231  19.936  0.00  0.00    +0.000 A 
ATOM     30  C   UNL     1       4.523   3.436  19.343  0.00  0.00    +0.000 A 
ENDBRANCH  23  24
ENDBRANCH  20  23
ENDBRANCH   6  17
TORSDOF 4
ENDMDL
