MODEL 1
REMARK VINA RESULT:      -8.0      0.000      0.000
REMARK  Name = 
REMARK  10 active torsions:
REMARK  status: ('A' for Active; 'I' for Inactive)
REMARK    1  A    between atoms: C_1  and  C_2
REMARK    2  A    between atoms: C_5  and  C_6
REMARK    3  A    between atoms: C_9  and  C_10
REMARK    4  A    between atoms: C_10  and  C_11
REMARK    5  A    between atoms: C_10  and  C_12
REMARK    6  A    between atoms: C_12  and  N_13
REMARK    7  A    between atoms: N_13  and  S_14
REMARK    8  A    between atoms: S_14  and  C_17
REMARK    9  A    between atoms: C_17  and  C_18
REMARK   10  A    between atoms: C_17  and  C_19
REMARK                            x       y       z     vdW  Elec       q    Type
REMARK                         _______ _______ _______ _____ _____    ______ ____
ROOT
ATOM      1  C   UNL     1       0.990   8.941  20.316  0.00  0.00    +0.000 A 
ATOM      2  C   UNL     1       1.393   9.192  18.993  0.00  0.00    +0.000 A 
ATOM      3  C   UNL     1       2.169   8.275  18.272  0.00  0.00    +0.000 A 
ATOM      4  C   UNL     1       2.583   7.075  18.858  0.00  0.00    +0.000 A 
ATOM      5  C   UNL     1       2.219   6.827  20.186  0.00  0.00    +0.000 A 
ATOM      6  C   UNL     1       1.431   7.739  20.895  0.00  0.00    +0.000 A 
ENDROOT
BRANCH   1  11
ATOM      7  C   UNL     1      -2.505  12.582  23.230  0.00  0.00    +0.000 C 
ATOM      8  C   UNL     1      -1.592  11.663  22.477  0.00  0.00    +0.000 A 
ATOM      9  C   UNL     1      -1.343  11.848  21.117  0.00  0.00    +0.000 A 
ATOM     10  C   UNL     1      -0.504  10.968  20.422  0.00  0.00    +0.000 A 
ATOM     11  C   UNL     1       0.122   9.884  21.063  0.00  0.00    +0.000 A 
ATOM     12  C   UNL     1      -0.133   9.723  22.437  0.00  0.00    +0.000 A 
ATOM     13  C   UNL     1      -0.982  10.591  23.132  0.00  0.00    +0.000 A 
ENDBRANCH   1  11
BRANCH   4  14
ATOM     14  C   UNL     1       3.408   6.077  18.064  0.00  0.00    +0.000 C 
ATOM     15  C   UNL     1       4.388   6.813  17.141  0.00  0.00    +0.000 C 
BRANCH  14  16
ATOM     16  C   UNL     1       4.182   5.084  18.955  0.00  0.00    +0.000 C 
BRANCH  16  17
ATOM     17  N   UNL     1       4.366   3.760  18.286  0.00  0.00    +0.000 NA
ATOM     18  H   UNL     1       5.340   3.619  18.020  0.00  0.00    +0.000 HD
BRANCH  17  19
ATOM     19  S   UNL     1       3.818   2.474  19.246  0.00  0.00    +0.000 S 
ATOM     20  O   UNL     1       3.347   1.477  18.310  0.00  0.00    +0.000 OA
ATOM     21  O   UNL     1       4.853   2.169  20.209  0.00  0.00    +0.000 OA
BRANCH  19  22
ATOM     22  C   UNL     1       2.387   3.172  20.094  0.00  0.00    +0.000 C 
ATOM     23  C   UNL     1       1.114   2.753  19.359  0.00  0.00    +0.000 C 
ATOM     24  C   UNL     1       2.326   2.760  21.558  0.00  0.00    +0.000 C 
ENDBRANCH  19  22
ENDBRANCH  17  19
ENDBRANCH  16  17
ENDBRANCH  14  16
ENDBRANCH   4  14
TORSDOF 6
ENDMDL
MODEL 2
REMARK VINA RESULT:      -8.0      0.420      1.312
REMARK  Name = 
REMARK  10 active torsions:
REMARK  status: ('A' for Active; 'I' for Inactive)
REMARK    1  A    between atoms: C_1  and  C_2
REMARK    2  A    between atoms: C_5  and  C_6
REMARK    3  A    between atoms: C_9  and  C_10
REMARK    4  A    between atoms: C_10  and  C_11
REMARK    5  A    between atoms: C_10  and  C_12
REMARK    6  A    between atoms: C_12  and  N_13
REMARK    7  A    between atoms: N_13  and  S_14
REMARK    8  A    between atoms: S_14  and  C_17
REMARK    9  A    between atoms: C_17  and  C_18
REMARK   10  A    between atoms: C_17  and  C_19
REMARK                            x       y       z     vdW  Elec       q    Type
REMARK                         _______ _______ _______ _____ _____    ______ ____
ROOT
ATOM      1  C   UNL     1       1.106   8.815  20.144  0.00  0.00    +0.000 A 
ATOM      2  C   UNL     1       1.461   9.125  18.819  0.00  0.00    +0.000 A 
ATOM      3  C   UNL     1       2.226   8.249  18.037  0.00  0.00    +0.000 A 
ATOM      4  C   UNL     1       2.678   7.034  18.562  0.00  0.00    +0.000 A 
ATOM      5  C   UNL     1       2.363   6.729  19.890  0.00  0.00    +0.000 A 
ATOM      6  C   UNL     1       1.585   7.600  20.660  0.00  0.00    +0.000 A 
ENDROOT
BRANCH   1  11
ATOM      7  C   UNL     1      -2.171  12.405  23.358  0.00  0.00    +0.000 C 
ATOM      8  C   UNL     1      -1.345  11.466  22.534  0.00  0.00    +0.000 A 
ATOM      9  C   UNL     1      -0.786  10.315  23.093  0.00  0.00    +0.000 A 
ATOM     10  C   UNL     1       0.002   9.458  22.316  0.00  0.00    +0.000 A 
ATOM     11  C   UNL     1       0.250   9.714  20.955  0.00  0.00    +0.000 A 
ATOM     12  C   UNL     1      -0.333  10.872  20.409  0.00  0.00    +0.000 A 
ATOM     13  C   UNL     1      -1.109  11.739  21.185  0.00  0.00    +0.000 A 
ENDBRANCH   1  11
BRANCH   4  14
ATOM     14  C   UNL     1       3.491   6.081  17.703  0.00  0.00    +0.000 C 
ATOM     15  C   UNL     1       4.631   6.836  17.006  0.00  0.00    +0.000 C 
BRANCH  14  16
ATOM     16  C   UNL     1       4.067   4.890  18.496  0.00  0.00    +0.000 C 
BRANCH  16  17
ATOM     17  N   UNL     1       3.509   3.585  18.025  0.00  0.00    +0.000 NA
ATOM     18  H   UNL     1       3.942   3.299  17.148  0.00  0.00    +0.000 HD
BRANCH  17  19
ATOM     19  S   UNL     1       3.663   2.363  19.191  0.00  0.00    +0.000 S 
ATOM     20  O   UNL     1       3.680   1.126  18.443  0.00  0.00    +0.000 OA
ATOM     21  O   UNL     1       4.755   2.725  20.069  0.00  0.00    +0.000 OA
BRANCH  19  22
ATOM     22  C   UNL     1       2.104   2.455  20.094  0.00  0.00    +0.000 C 
ATOM     23  C   UNL     1       2.314   3.253  21.381  0.00  0.00    +0.000 C 
ATOM     24  C   UNL     1       0.987   3.063  19.257  0.00  0.00    +0.000 C 
ENDBRANCH  19  22
ENDBRANCH  17  19
ENDBRANCH  16  17
ENDBRANCH  14  16
ENDBRANCH   4  14
TORSDOF 6
ENDMDL
MODEL 3
REMARK VINA RESULT:      -8.0      0.794      1.191
REMARK  Name = 
REMARK  10 active torsions:
REMARK  status: ('A' for Active; 'I' for Inactive)
REMARK    1  A    between atoms: C_1  and  C_2
REMARK    2  A    between atoms: C_5  and  C_6
REMARK    3  A    between atoms: C_9  and  C_10
REMARK    4  A    between atoms: C_10  and  C_11
REMARK    5  A    between atoms: C_10  and  C_12
REMARK    6  A    between atoms: C_12  and  N_13
REMARK    7  A    between atoms: N_13  and  S_14
REMARK    8  A    between atoms: S_14  and  C_17
REMARK    9  A    between atoms: C_17  and  C_18
REMARK   10  A    between atoms: C_17  and  C_19
REMARK                            x       y       z     vdW  Elec       q    Type
REMARK                         _______ _______ _______ _____ _____    ______ ____
ROOT
ATOM      1  C   UNL     1       1.623   8.383  19.828  0.00  0.00    +0.000 A 
ATOM      2  C   UNL     1       2.036   8.778  18.543  0.00  0.00    +0.000 A 
ATOM      3  C   UNL     1       2.787   7.931  17.718  0.00  0.00    +0.000 A 
ATOM      4  C   UNL     1       3.166   6.658  18.158  0.00  0.00    +0.000 A 
ATOM      5  C   UNL     1       2.792   6.265  19.447  0.00  0.00    +0.000 A 
ATOM      6  C   UNL     1       2.029   7.109  20.260  0.00  0.00    +0.000 A 
ENDROOT
BRANCH   1  11
ATOM      7  C   UNL     1      -1.770  11.739  23.173  0.00  0.00    +0.000 C 
ATOM      8  C   UNL     1      -0.884  10.895  22.309  0.00  0.00    +0.000 A 
ATOM      9  C   UNL     1      -0.800  11.111  20.933  0.00  0.00    +0.000 A 
ATOM     10  C   UNL     1       0.015  10.299  20.134  0.00  0.00    +0.000 A 
ATOM     11  C   UNL     1       0.781   9.254  20.682  0.00  0.00    +0.000 A 
ATOM     12  C   UNL     1       0.691   9.062  22.073  0.00  0.00    +0.000 A 
ATOM     13  C   UNL     1      -0.134   9.861  22.873  0.00  0.00    +0.000 A 
ENDBRANCH   1  11
BRANCH   4  14
ATOM     14  C   UNL     1       3.963   5.738  17.250  0.00  0.00    +0.000 C 
ATOM     15  C   UNL     1       5.127   6.505  16.606  0.00  0.00    +0.000 C 
BRANCH  14  16
ATOM     16  C   UNL     1       4.504   4.489  17.976  0.00  0.00    +0.000 C 
BRANCH  16  17
ATOM     17  N   UNL     1       3.583   3.320  17.836  0.00  0.00    +0.000 NA
ATOM     18  H   UNL     1       3.727   2.848  16.943  0.00  0.00    +0.000 HD
BRANCH  17  19
ATOM     19  S   UNL     1       3.738   2.224  19.120  0.00  0.00    +0.000 S 
ATOM     20  O   UNL     1       3.823   0.922  18.498  0.00  0.00    +0.000 OA
ATOM     21  O   UNL     1       4.785   2.709  19.992  0.00  0.00    +0.000 OA
BRANCH  19  22
ATOM     22  C   UNL     1       2.146   2.345  19.960  0.00  0.00    +0.000 C 
ATOM     23  C   UNL     1       2.335   3.062  21.296  0.00  0.00    +0.000 C 
ATOM     24  C   UNL     1       1.097   3.050  19.111  0.00  0.00    +0.000 C 
ENDBRANCH  19  22
ENDBRANCH  17  19
ENDBRANCH  16  17
ENDBRANCH  14  16
ENDBRANCH   4  14
TORSDOF 6
ENDMDL
MODEL 4
REMARK VINA RESULT:      -8.0      2.609      3.915
REMARK  Name = 
REMARK  10 active torsions:
REMARK  status: ('A' for Active; 'I' for Inactive)
REMARK    1  A    between atoms: C_1  and  C_2
REMARK    2  A    between atoms: C_5  and  C_6
REMARK    3  A    between atoms: C_9  and  C_10
REMARK    4  A    between atoms: C_10  and  C_11
REMARK    5  A    between atoms: C_10  and  C_12
REMARK    6  A    between atoms: C_12  and  N_13
REMARK    7  A    between atoms: N_13  and  S_14
REMARK    8  A    between atoms: S_14  and  C_17
REMARK    9  A    between atoms: C_17  and  C_18
REMARK   10  A    between atoms: C_17  and  C_19
REMARK                            x       y       z     vdW  Elec       q    Type
REMARK                         _______ _______ _______ _____ _____    ______ ____
ROOT
ATOM      1  C   UNL     1       1.806   7.257  19.864  0.00  0.00    +0.000 A 
ATOM      2  C   UNL     1       1.784   6.001  20.496  0.00  0.00    +0.000 A 
ATOM      3  C   UNL     1       2.383   4.875  19.918  0.00  0.00    +0.000 A 
ATOM      4  C   UNL     1       3.015   4.963  18.673  0.00  0.00    +0.000 A 
ATOM      5  C   UNL     1       3.014   6.198  18.016  0.00  0.00    +0.000 A 
ATOM      6  C   UNL     1       2.428   7.322  18.606  0.00  0.00    +0.000 A 
ENDROOT
BRANCH   1  11
ATOM      7  C   UNL     1      -0.588  11.957  22.343  0.00  0.00    +0.000 C 
ATOM      8  C   UNL     1       0.046  10.761  21.701  0.00  0.00    +0.000 A 
ATOM      9  C   UNL     1       0.304  10.729  20.330  0.00  0.00    +0.000 A 
ATOM     10  C   UNL     1       0.877   9.596  19.740  0.00  0.00    +0.000 A 
ATOM     11  C   UNL     1       1.222   8.463  20.499  0.00  0.00    +0.000 A 
ATOM     12  C   UNL     1       0.966   8.521  21.881  0.00  0.00    +0.000 A 
ATOM     13  C   UNL     1       0.379   9.646  22.472  0.00  0.00    +0.000 A 
ENDBRANCH   1  11
BRANCH   4  14
ATOM     14  C   UNL     1       3.679   3.741  18.061  0.00  0.00    +0.000 C 
ATOM     15  C   UNL     1       2.637   2.646  17.796  0.00  0.00    +0.000 C 
BRANCH  14  16
ATOM     16  C   UNL     1       4.443   4.055  16.758  0.00  0.00    +0.000 C 
BRANCH  16  17
ATOM     17  N   UNL     1       5.922   3.930  16.936  0.00  0.00    +0.000 NA
ATOM     18  H   UNL     1       6.270   3.073  16.505  0.00  0.00    +0.000 HD
BRANCH  17  19
ATOM     19  S   UNL     1       6.757   5.279  16.336  0.00  0.00    +0.000 S 
ATOM     20  O   UNL     1       7.796   4.734  15.489  0.00  0.00    +0.000 OA
ATOM     21  O   UNL     1       5.779   6.210  15.819  0.00  0.00    +0.000 OA
BRANCH  19  22
ATOM     22  C   UNL     1       7.535   5.972  17.808  0.00  0.00    +0.000 C 
ATOM     23  C   UNL     1       7.615   7.491  17.667  0.00  0.00    +0.000 C 
ATOM     24  C   UNL     1       6.801   5.585  19.085  0.00  0.00    +0.000 C 
ENDBRANCH  19  22
ENDBRANCH  17  19
ENDBRANCH  16  17
ENDBRANCH  14  16
ENDBRANCH   4  14
TORSDOF 6
ENDMDL
MODEL 5
REMARK VINA RESULT:      -7.9      2.226      3.516
REMARK  Name = 
REMARK  10 active torsions:
REMARK  status: ('A' for Active; 'I' for Inactive)
REMARK    1  A    between atoms: C_1  and  C_2
REMARK    2  A    between atoms: C_5  and  C_6
REMARK    3  A    between atoms: C_9  and  C_10
REMARK    4  A    between atoms: C_10  and  C_11
REMARK    5  A    between atoms: C_10  and  C_12
REMARK    6  A    between atoms: C_12  and  N_13
REMARK    7  A    between atoms: N_13  and  S_14
REMARK    8  A    between atoms: S_14  and  C_17
REMARK    9  A    between atoms: C_17  and  C_18
REMARK   10  A    between atoms: C_17  and  C_19
REMARK                            x       y       z     vdW  Elec       q    Type
REMARK                         _______ _______ _______ _____ _____    ______ ____
ROOT
ATOM      1  C   UNL     1       1.489   7.613  20.446  0.00  0.00    +0.000 A 
ATOM      2  C   UNL     1       1.355   6.357  21.063  0.00  0.00    +0.000 A 
ATOM      3  C   UNL     1       1.985   5.214  20.554  0.00  0.00    +0.000 A 
ATOM      4  C   UNL     1       2.764   5.286  19.394  0.00  0.00    +0.000 A 
ATOM      5  C   UNL     1       2.877   6.522  18.749  0.00  0.00    +0.000 A 
ATOM      6  C   UNL     1       2.259   7.662  19.271  0.00  0.00    +0.000 A 
ENDROOT
BRANCH   1  11
ATOM      7  C   UNL     1      -1.042  12.384  22.635  0.00  0.00    +0.000 C 
ATOM      8  C   UNL     1      -0.371  11.168  22.073  0.00  0.00    +0.000 A 
ATOM      9  C   UNL     1       0.199  11.182  20.799  0.00  0.00    +0.000 A 
ATOM     10  C   UNL     1       0.804  10.032  20.278  0.00  0.00    +0.000 A 
ATOM     11  C   UNL     1       0.870   8.835  21.013  0.00  0.00    +0.000 A 
ATOM     12  C   UNL     1       0.300   8.846  22.299  0.00  0.00    +0.000 A 
ATOM     13  C   UNL     1      -0.318   9.989  22.819  0.00  0.00    +0.000 A 
ENDBRANCH   1  11
BRANCH   4  14
ATOM     14  C   UNL     1       3.460   4.047  18.858  0.00  0.00    +0.000 C 
ATOM     15  C   UNL     1       3.132   3.854  17.371  0.00  0.00    +0.000 C 
BRANCH  14  16
ATOM     16  C   UNL     1       4.990   4.079  19.051  0.00  0.00    +0.000 C 
BRANCH  16  17
ATOM     17  N   UNL     1       5.717   3.709  17.799  0.00  0.00    +0.000 NA
ATOM     18  H   UNL     1       5.064   3.546  17.033  0.00  0.00    +0.000 HD
BRANCH  17  19
ATOM     19  S   UNL     1       6.871   4.872  17.360  0.00  0.00    +0.000 S 
ATOM     20  O   UNL     1       6.650   5.982  18.260  0.00  0.00    +0.000 OA
ATOM     21  O   UNL     1       8.156   4.212  17.282  0.00  0.00    +0.000 OA
BRANCH  19  22
ATOM     22  C   UNL     1       6.346   5.372  15.708  0.00  0.00    +0.000 C 
ATOM     23  C   UNL     1       5.953   4.131  14.909  0.00  0.00    +0.000 C 
ATOM     24  C   UNL     1       5.202   6.376  15.746  0.00  0.00    +0.000 C 
ENDBRANCH  19  22
ENDBRANCH  17  19
ENDBRANCH  16  17
ENDBRANCH  14  16
ENDBRANCH   4  14
TORSDOF 6
ENDMDL
MODEL 6
REMARK VINA RESULT:      -7.9      2.243      3.595
REMARK  Name = 
REMARK  10 active torsions:
REMARK  status: ('A' for Active; 'I' for Inactive)
REMARK    1  A    between atoms: C_1  and  C_2
REMARK    2  A    between atoms: C_5  and  C_6
REMARK    3  A    between atoms: C_9  and  C_10
REMARK    4  A    between atoms: C_10  and  C_11
REMARK    5  A    between atoms: C_10  and  C_12
REMARK    6  A    between atoms: C_12  and  N_13
REMARK    7  A    between atoms: N_13  and  S_14
REMARK    8  A    between atoms: S_14  and  C_17
REMARK    9  A    between atoms: C_17  and  C_18
REMARK   10  A    between atoms: C_17  and  C_19
REMARK                            x       y       z     vdW  Elec       q    Type
REMARK                         _______ _______ _______ _____ _____    ______ ____
ROOT
ATOM      1  C   UNL     1       1.575   7.473  20.392  0.00  0.00    +0.000 A 
ATOM      2  C   UNL     1       2.356   7.516  19.223  0.00  0.00    +0.000 A 
ATOM      3  C   UNL     1       2.955   6.365  18.694  0.00  0.00    +0.000 A 
ATOM      4  C   UNL     1       2.805   5.128  19.329  0.00  0.00    +0.000 A 
ATOM      5  C   UNL     1       2.061   5.076  20.512  0.00  0.00    +0.000 A 
ATOM      6  C   UNL     1       1.452   6.226  21.026  0.00  0.00    +0.000 A 
ENDROOT
BRANCH   1  11
ATOM      7  C   UNL     1      -1.006  12.255  22.499  0.00  0.00    +0.000 C 
ATOM      8  C   UNL     1      -0.361  11.014  21.962  0.00  0.00    +0.000 A 
ATOM      9  C   UNL     1      -0.062   9.936  22.797  0.00  0.00    +0.000 A 
ATOM     10  C   UNL     1       0.560   8.791  22.285  0.00  0.00    +0.000 A 
ATOM     11  C   UNL     1       0.894   8.678  20.923  0.00  0.00    +0.000 A 
ATOM     12  C   UNL     1       0.572   9.771  20.097  0.00  0.00    +0.000 A 
ATOM     13  C   UNL     1      -0.036  10.923  20.607  0.00  0.00    +0.000 A 
ENDBRANCH   1  11
BRANCH   4  14
ATOM     14  C   UNL     1       3.442   3.881  18.739  0.00  0.00    +0.000 C 
ATOM     15  C   UNL     1       3.092   3.759  17.249  0.00  0.00    +0.000 C 
BRANCH  14  16
ATOM     16  C   UNL     1       4.973   3.840  18.916  0.00  0.00    +0.000 C 
BRANCH  16  17
ATOM     17  N   UNL     1       5.680   3.650  17.613  0.00  0.00    +0.000 NA
ATOM     18  H   UNL     1       5.016   3.613  16.840  0.00  0.00    +0.000 HD
BRANCH  17  19
ATOM     19  S   UNL     1       6.848   4.849  17.335  0.00  0.00    +0.000 S 
ATOM     20  O   UNL     1       6.543   5.900  18.281  0.00  0.00    +0.000 OA
ATOM     21  O   UNL     1       8.144   4.208  17.318  0.00  0.00    +0.000 OA
BRANCH  19  22
ATOM     22  C   UNL     1       6.444   5.445  15.681  0.00  0.00    +0.000 C 
ATOM     23  C   UNL     1       6.255   4.249  14.749  0.00  0.00    +0.000 C 
ATOM     24  C   UNL     1       5.210   6.336  15.675  0.00  0.00    +0.000 C 
ENDBRANCH  19  22
ENDBRANCH  17  19
ENDBRANCH  16  17
ENDBRANCH  14  16
ENDBRANCH   4  14
TORSDOF 6
ENDMDL
MODEL 7
REMARK VINA RESULT:      -7.8      0.803      1.751
REMARK  Name = 
REMARK  10 active torsions:
REMARK  status: ('A' for Active; 'I' for Inactive)
REMARK    1  A    between atoms: C_1  and  C_2
REMARK    2  A    between atoms: C_5  and  C_6
REMARK    3  A    between atoms: C_9  and  C_10
REMARK    4  A    between atoms: C_10  and  C_11
REMARK    5  A    between atoms: C_10  and  C_12
REMARK    6  A    between atoms: C_12  and  N_13
REMARK    7  A    between atoms: N_13  and  S_14
REMARK    8  A    between atoms: S_14  and  C_17
REMARK    9  A    between atoms: C_17  and  C_18
REMARK   10  A    between atoms: C_17  and  C_19
REMARK                            x       y       z     vdW  Elec       q    Type
REMARK                         _______ _______ _______ _____ _____    ______ ____
ROOT
ATOM      1  C   UNL     1       1.667   8.274  19.718  0.00  0.00    +0.000 A 
ATOM      2  C   UNL     1       2.226   7.061  20.158  0.00  0.00    +0.000 A 
ATOM      3  C   UNL     1       3.067   6.297  19.339  0.00  0.00    +0.000 A 
ATOM      4  C   UNL     1       3.368   6.714  18.038  0.00  0.00    +0.000 A 
ATOM      5  C   UNL     1       2.791   7.901  17.574  0.00  0.00    +0.000 A 
ATOM      6  C   UNL     1       1.965   8.668  18.402  0.00  0.00    +0.000 A 
ENDROOT
BRANCH   1  11
ATOM      7  C   UNL     1      -1.572  11.646  23.196  0.00  0.00    +0.000 C 
ATOM      8  C   UNL     1      -0.752  10.761  22.308  0.00  0.00    +0.000 A 
ATOM      9  C   UNL     1       0.051   9.751  22.839  0.00  0.00    +0.000 A 
ATOM     10  C   UNL     1       0.829   8.946  21.998  0.00  0.00    +0.000 A 
ATOM     11  C   UNL     1       0.823   9.114  20.601  0.00  0.00    +0.000 A 
ATOM     12  C   UNL     1      -0.003  10.130  20.087  0.00  0.00    +0.000 A 
ATOM     13  C   UNL     1      -0.771  10.947  20.924  0.00  0.00    +0.000 A 
ENDBRANCH   1  11
BRANCH   4  14
ATOM     14  C   UNL     1       4.295   5.890  17.163  0.00  0.00    +0.000 C 
ATOM     15  C   UNL     1       5.485   6.742  16.699  0.00  0.00    +0.000 C 
BRANCH  14  16
ATOM     16  C   UNL     1       4.813   4.615  17.860  0.00  0.00    +0.000 C 
BRANCH  16  17
ATOM     17  N   UNL     1       3.885   3.458  17.666  0.00  0.00    +0.000 NA
ATOM     18  H   UNL     1       4.161   2.902  16.857  0.00  0.00    +0.000 HD
BRANCH  17  19
ATOM     19  S   UNL     1       3.777   2.483  19.050  0.00  0.00    +0.000 S 
ATOM     20  O   UNL     1       3.585   1.139  18.551  0.00  0.00    +0.000 OA
ATOM     21  O   UNL     1       4.892   2.812  19.910  0.00  0.00    +0.000 OA
BRANCH  19  22
ATOM     22  C   UNL     1       2.238   3.025  19.818  0.00  0.00    +0.000 C 
ATOM     23  C   UNL     1       1.057   2.442  19.042  0.00  0.00    +0.000 C 
ATOM     24  C   UNL     1       2.161   2.641  21.289  0.00  0.00    +0.000 C 
ENDBRANCH  19  22
ENDBRANCH  17  19
ENDBRANCH  16  17
ENDBRANCH  14  16
ENDBRANCH   4  14
TORSDOF 6
ENDMDL
MODEL 8
REMARK VINA RESULT:      -7.8      2.597      3.982
REMARK  Name = 
REMARK  10 active torsions:
REMARK  status: ('A' for Active; 'I' for Inactive)
REMARK    1  A    between atoms: C_1  and  C_2
REMARK    2  A    between atoms: C_5  and  C_6
REMARK    3  A    between atoms: C_9  and  C_10
REMARK    4  A    between atoms: C_10  and  C_11
REMARK    5  A    between atoms: C_10  and  C_12
REMARK    6  A    between atoms: C_12  and  N_13
REMARK    7  A    between atoms: N_13  and  S_14
REMARK    8  A    between atoms: S_14  and  C_17
REMARK    9  A    between atoms: C_17  and  C_18
REMARK   10  A    between atoms: C_17  and  C_19
REMARK                            x       y       z     vdW  Elec       q    Type
REMARK                         _______ _______ _______ _____ _____    ______ ____
ROOT
ATOM      1  C   UNL     1       1.985   7.211  19.822  0.00  0.00    +0.000 A 
ATOM      2  C   UNL     1       2.575   7.242  18.546  0.00  0.00    +0.000 A 
ATOM      3  C   UNL     1       3.134   6.096  17.965  0.00  0.00    +0.000 A 
ATOM      4  C   UNL     1       3.135   4.876  18.650  0.00  0.00    +0.000 A 
ATOM      5  C   UNL     1       2.583   4.839  19.935  0.00  0.00    +0.000 A 
ATOM      6  C   UNL     1       2.013   5.982  20.503  0.00  0.00    +0.000 A 
ENDROOT
BRANCH   1  11
ATOM      7  C   UNL     1      -0.439  11.957  22.180  0.00  0.00    +0.000 C 
ATOM      8  C   UNL     1       0.165  10.725  21.578  0.00  0.00    +0.000 A 
ATOM      9  C   UNL     1       0.466   9.612  22.364  0.00  0.00    +0.000 A 
ATOM     10  C   UNL     1       1.051   8.475  21.792  0.00  0.00    +0.000 A 
ATOM     11  C   UNL     1       1.343   8.408  20.417  0.00  0.00    +0.000 A 
ATOM     12  C   UNL     1       1.020   9.536  19.642  0.00  0.00    +0.000 A 
ATOM     13  C   UNL     1       0.449  10.680  20.212  0.00  0.00    +0.000 A 
ENDBRANCH   1  11
BRANCH   4  14
ATOM     14  C   UNL     1       3.725   3.635  18.005  0.00  0.00    +0.000 C 
ATOM     15  C   UNL     1       2.619   2.612  17.711  0.00  0.00    +0.000 C 
BRANCH  14  16
ATOM     16  C   UNL     1       4.509   3.937  16.711  0.00  0.00    +0.000 C 
BRANCH  16  17
ATOM     17  N   UNL     1       5.983   3.998  16.954  0.00  0.00    +0.000 NA
ATOM     18  H   UNL     1       6.428   3.112  16.718  0.00  0.00    +0.000 HD
BRANCH  17  19
ATOM     19  S   UNL     1       6.719   5.275  16.113  0.00  0.00    +0.000 S 
ATOM     20  O   UNL     1       7.826   4.672  15.405  0.00  0.00    +0.000 OA
ATOM     21  O   UNL     1       5.681   5.997  15.409  0.00  0.00    +0.000 OA
BRANCH  19  22
ATOM     22  C   UNL     1       7.387   6.307  17.433  0.00  0.00    +0.000 C 
ATOM     23  C   UNL     1       6.599   7.615  17.496  0.00  0.00    +0.000 C 
ATOM     24  C   UNL     1       7.372   5.601  18.782  0.00  0.00    +0.000 C 
ENDBRANCH  19  22
ENDBRANCH  17  19
ENDBRANCH  16  17
ENDBRANCH  14  16
ENDBRANCH   4  14
TORSDOF 6
ENDMDL
MODEL 9
REMARK VINA RESULT:      -7.8      0.662      1.205
REMARK  Name = 
REMARK  10 active torsions:
REMARK  status: ('A' for Active; 'I' for Inactive)
REMARK    1  A    between atoms: C_1  and  C_2
REMARK    2  A    between atoms: C_5  and  C_6
REMARK    3  A    between atoms: C_9  and  C_10
REMARK    4  A    between atoms: C_10  and  C_11
REMARK    5  A    between atoms: C_10  and  C_12
REMARK    6  A    between atoms: C_12  and  N_13
REMARK    7  A    between atoms: N_13  and  S_14
REMARK    8  A    between atoms: S_14  and  C_17
REMARK    9  A    between atoms: C_17  and  C_18
REMARK   10  A    between atoms: C_17  and  C_19
REMARK                            x       y       z     vdW  Elec       q    Type
REMARK                         _______ _______ _______ _____ _____    ______ ____
ROOT
ATOM      1  C   UNL     1       1.264   8.658  20.019  0.00  0.00    +0.000 A 
ATOM      2  C   UNL     1       1.737   7.433  20.521  0.00  0.00    +0.000 A 
ATOM      3  C   UNL     1       2.532   6.578  19.747  0.00  0.00    +0.000 A 
ATOM      4  C   UNL     1       2.872   6.914  18.432  0.00  0.00    +0.000 A 
ATOM      5  C   UNL     1       2.378   8.113  17.908  0.00  0.00    +0.000 A 
ATOM      6  C   UNL     1       1.598   8.970  18.690  0.00  0.00    +0.000 A 
ENDROOT
BRANCH   1  11
ATOM      7  C   UNL     1      -1.953  12.272  23.267  0.00  0.00    +0.000 C 
ATOM      8  C   UNL     1      -1.110  11.360  22.431  0.00  0.00    +0.000 A 
ATOM      9  C   UNL     1      -0.832  11.655  21.096  0.00  0.00    +0.000 A 
ATOM     10  C   UNL     1      -0.061  10.781  20.320  0.00  0.00    +0.000 A 
ATOM     11  C   UNL     1       0.468   9.592  20.852  0.00  0.00    +0.000 A 
ATOM     12  C   UNL     1       0.187   9.320  22.204  0.00  0.00    +0.000 A 
ATOM     13  C   UNL     1      -0.596  10.182  22.979  0.00  0.00    +0.000 A 
ENDBRANCH   1  11
BRANCH   4  14
ATOM     14  C   UNL     1       3.751   5.990  17.607  0.00  0.00    +0.000 C 
ATOM     15  C   UNL     1       5.199   6.043  18.112  0.00  0.00    +0.000 C 
BRANCH  14  16
ATOM     16  C   UNL     1       3.257   4.529  17.600  0.00  0.00    +0.000 C 
BRANCH  16  17
ATOM     17  N   UNL     1       4.354   3.569  17.930  0.00  0.00    +0.000 NA
ATOM     18  H   UNL     1       5.188   4.063  18.246  0.00  0.00    +0.000 HD
BRANCH  17  19
ATOM     19  S   UNL     1       3.874   2.417  19.079  0.00  0.00    +0.000 S 
ATOM     20  O   UNL     1       3.589   1.221  18.318  0.00  0.00    +0.000 OA
ATOM     21  O   UNL     1       4.857   2.415  20.140  0.00  0.00    +0.000 OA
BRANCH  19  22
ATOM     22  C   UNL     1       2.314   3.077  19.699  0.00  0.00    +0.000 C 
ATOM     23  C   UNL     1       1.161   2.232  19.159  0.00  0.00    +0.000 C 
ATOM     24  C   UNL     1       2.276   3.136  21.220  0.00  0.00    +0.000 C 
ENDBRANCH  19  22
ENDBRANCH  17  19
ENDBRANCH  16  17
ENDBRANCH  14  16
ENDBRANCH   4  14
TORSDOF 6
ENDMDL
