MODEL 1
REMARK VINA RESULT:      -8.1      0.000      0.000
REMARK  Name = 
REMARK  7 active torsions:
REMARK  status: ('A' for Active; 'I' for Inactive)
REMARK    1  A    between atoms: C_1  and  C_2
REMARK    2  A    between atoms: C_5  and  N_6
REMARK    3  A    between atoms: N_6  and  S_7
REMARK    4  A    between atoms: S_7  and  C_10
REMARK    5  A    between atoms: C_13  and  C_14
REMARK    6  A    between atoms: C_15  and  C_16
REMARK    7  A    between atoms: N_21  and  C_22
REMARK                            x       y       z     vdW  Elec       q    Type
REMARK                         _______ _______ _______ _____ _____    ______ ____
ROOT
ATOM      1  C   UNL     1       5.151   4.880  17.689  0.00  0.00    +0.000 A 
ATOM      2  C   UNL     1       4.625   3.701  17.165  0.00  0.00    +0.000 A 
ATOM      3  C   UNL     1       3.358   3.272  17.575  0.00  0.00    +0.000 A 
ATOM      4  C   UNL     1       2.579   4.045  18.457  0.00  0.00    +0.000 A 
ATOM      5  C   UNL     1       1.212   3.546  18.849  0.00  0.00    +0.000 C 
ATOM      6  C   UNL     1       3.106   5.260  18.942  0.00  0.00    +0.000 A 
ATOM      7  C   UNL     1       4.415   5.630  18.605  0.00  0.00    +0.000 A 
ENDROOT
BRANCH   6   8
ATOM      8  C   UNL     1       2.336   6.162  19.850  0.00  0.00    +0.000 C 
ATOM      9  O   UNL     1       2.011   5.741  20.958  0.00  0.00    +0.000 OA
ATOM     10  N   UNL     1       2.056   7.474  19.440  0.00  0.00    +0.000 N 
ATOM     11  C   UNL     1       1.372   8.322  20.421  0.00  0.00    +0.000 C 
ATOM     12  C   UNL     1       1.524   9.827  20.126  0.00  0.00    +0.000 C 
ATOM     13  N   UNL     1       1.239  10.228  18.732  0.00  0.00    +0.000 NA
ATOM     14  C   UNL     1      -0.188  10.148  18.426  0.00  0.00    +0.000 C 
ATOM     15  C   UNL     1       2.031   9.378  17.820  0.00  0.00    +0.000 C 
ATOM     16  C   UNL     1       1.831   7.866  18.036  0.00  0.00    +0.000 C 
ENDBRANCH   6   8
BRANCH   1  17
ATOM     17  S   UNL     1       6.677   5.560  17.092  0.00  0.00    +0.000 S 
ATOM     18  O   UNL     1       7.646   4.492  17.012  0.00  0.00    +0.000 OA
ATOM     19  O   UNL     1       6.951   6.747  17.874  0.00  0.00    +0.000 OA
BRANCH  17  20
ATOM     20  N   UNL     1       6.275   6.107  15.552  0.00  0.00    +0.000 N 
ATOM     21  H   UNL     1       6.503   7.091  15.424  0.00  0.00    +0.000 HD
BRANCH  20  26
ATOM     22  C   UNL     1       6.920   2.559  11.108  0.00  0.00    +0.000 C 
ATOM     23  C   UNL     1       6.755   3.488  12.276  0.00  0.00    +0.000 A 
ATOM     24  C   UNL     1       5.631   3.399  13.106  0.00  0.00    +0.000 A 
ATOM     25  C   UNL     1       5.480   4.270  14.185  0.00  0.00    +0.000 A 
ATOM     26  C   UNL     1       6.450   5.235  14.445  0.00  0.00    +0.000 A 
ATOM     27  C   UNL     1       7.578   5.331  13.631  0.00  0.00    +0.000 A 
ATOM     28  C   UNL     1       7.726   4.461  12.545  0.00  0.00    +0.000 A 
ENDBRANCH  20  26
ENDBRANCH  17  20
ENDBRANCH   1  17
TORSDOF 4
ENDMDL
MODEL 2
REMARK VINA RESULT:      -7.5      1.472      1.924
REMARK  Name = 
REMARK  7 active torsions:
REMARK  status: ('A' for Active; 'I' for Inactive)
REMARK    1  A    between atoms: C_1  and  C_2
REMARK    2  A    between atoms: C_5  and  N_6
REMARK    3  A    between atoms: N_6  and  S_7
REMARK    4  A    between atoms: S_7  and  C_10
REMARK    5  A    between atoms: C_13  and  C_14
REMARK    6  A    between atoms: C_15  and  C_16
REMARK    7  A    between atoms: N_21  and  C_22
REMARK                            x       y       z     vdW  Elec       q    Type
REMARK                         _______ _______ _______ _____ _____    ______ ____
ROOT
ATOM      1  C   UNL     1       5.647   5.386  18.027  0.00  0.00    +0.000 A 
ATOM      2  C   UNL     1       5.044   4.157  18.278  0.00  0.00    +0.000 A 
ATOM      3  C   UNL     1       3.661   4.099  18.485  0.00  0.00    +0.000 A 
ATOM      4  C   UNL     1       2.862   5.254  18.380  0.00  0.00    +0.000 A 
ATOM      5  C   UNL     1       1.375   5.132  18.591  0.00  0.00    +0.000 C 
ATOM      6  C   UNL     1       3.482   6.485  18.079  0.00  0.00    +0.000 A 
ATOM      7  C   UNL     1       4.879   6.548  17.974  0.00  0.00    +0.000 A 
ENDROOT
BRANCH   6   8
ATOM      8  C   UNL     1       2.710   7.752  17.911  0.00  0.00    +0.000 C 
ATOM      9  O   UNL     1       2.799   8.356  16.844  0.00  0.00    +0.000 OA
ATOM     10  N   UNL     1       1.865   8.185  18.943  0.00  0.00    +0.000 N 
ATOM     11  C   UNL     1       1.077   9.390  18.668  0.00  0.00    +0.000 C 
ATOM     12  C   UNL     1      -0.146   9.535  19.594  0.00  0.00    +0.000 C 
ATOM     13  N   UNL     1       0.130   9.355  21.035  0.00  0.00    +0.000 NA
ATOM     14  C   UNL     1       0.883  10.479  21.586  0.00  0.00    +0.000 C 
ATOM     15  C   UNL     1       0.851   8.080  21.227  0.00  0.00    +0.000 C 
ATOM     16  C   UNL     1       2.128   7.946  20.375  0.00  0.00    +0.000 C 
ENDBRANCH   6   8
BRANCH   1  17
ATOM     17  S   UNL     1       7.365   5.505  17.600  0.00  0.00    +0.000 S 
ATOM     18  O   UNL     1       7.920   4.172  17.584  0.00  0.00    +0.000 OA
ATOM     19  O   UNL     1       7.944   6.535  18.438  0.00  0.00    +0.000 OA
BRANCH  17  20
ATOM     20  N   UNL     1       7.328   6.147  16.044  0.00  0.00    +0.000 N 
ATOM     21  H   UNL     1       8.101   6.788  15.876  0.00  0.00    +0.000 HD
BRANCH  20  26
ATOM     22  C   UNL     1       5.559   2.802  11.751  0.00  0.00    +0.000 C 
ATOM     23  C   UNL     1       6.027   3.676  12.878  0.00  0.00    +0.000 A 
ATOM     24  C   UNL     1       5.232   3.862  14.015  0.00  0.00    +0.000 A 
ATOM     25  C   UNL     1       5.669   4.682  15.055  0.00  0.00    +0.000 A 
ATOM     26  C   UNL     1       6.904   5.321  14.970  0.00  0.00    +0.000 A 
ATOM     27  C   UNL     1       7.709   5.140  13.846  0.00  0.00    +0.000 A 
ATOM     28  C   UNL     1       7.268   4.322  12.800  0.00  0.00    +0.000 A 
ENDBRANCH  20  26
ENDBRANCH  17  20
ENDBRANCH   1  17
TORSDOF 4
ENDMDL
MODEL 3
REMARK VINA RESULT:      -7.4      3.224      8.921
REMARK  Name = 
REMARK  7 active torsions:
REMARK  status: ('A' for Active; 'I' for Inactive)
REMARK    1  A    between atoms: C_1  and  C_2
REMARK    2  A    between atoms: C_5  and  N_6
REMARK    3  A    between atoms: N_6  and  S_7
REMARK    4  A    between atoms: S_7  and  C_10
REMARK    5  A    between atoms: C_13  and  C_14
REMARK    6  A    between atoms: C_15  and  C_16
REMARK    7  A    between atoms: N_21  and  C_22
REMARK                            x       y       z     vdW  Elec       q    Type
REMARK                         _______ _______ _______ _____ _____    ______ ____
ROOT
ATOM      1  C   UNL     1       1.441   8.438  19.218  0.00  0.00    +0.000 A 
ATOM      2  C   UNL     1       1.305   8.145  20.573  0.00  0.00    +0.000 A 
ATOM      3  C   UNL     1       1.658   6.875  21.041  0.00  0.00    +0.000 A 
ATOM      4  C   UNL     1       2.209   5.909  20.176  0.00  0.00    +0.000 A 
ATOM      5  C   UNL     1       2.592   4.564  20.737  0.00  0.00    +0.000 C 
ATOM      6  C   UNL     1       2.384   6.237  18.815  0.00  0.00    +0.000 A 
ATOM      7  C   UNL     1       1.934   7.475  18.338  0.00  0.00    +0.000 A 
ENDROOT
BRANCH   6   8
ATOM      8  C   UNL     1       2.997   5.290  17.836  0.00  0.00    +0.000 C 
ATOM      9  O   UNL     1       2.288   4.413  17.346  0.00  0.00    +0.000 OA
ATOM     10  N   UNL     1       4.337   5.462  17.459  0.00  0.00    +0.000 N 
ATOM     11  C   UNL     1       4.839   4.546  16.430  0.00  0.00    +0.000 C 
ATOM     12  C   UNL     1       6.105   5.068  15.724  0.00  0.00    +0.000 C 
ATOM     13  N   UNL     1       7.173   5.552  16.623  0.00  0.00    +0.000 NA
ATOM     14  C   UNL     1       7.826   4.452  17.329  0.00  0.00    +0.000 C 
ATOM     15  C   UNL     1       6.596   6.529  17.568  0.00  0.00    +0.000 C 
ATOM     16  C   UNL     1       5.380   6.001  18.353  0.00  0.00    +0.000 C 
ENDBRANCH   6   8
BRANCH   1  17
ATOM     17  S   UNL     1       1.163  10.074  18.591  0.00  0.00    +0.000 S 
ATOM     18  O   UNL     1      -0.206  10.157  18.138  0.00  0.00    +0.000 OA
ATOM     19  O   UNL     1       2.257  10.379  17.692  0.00  0.00    +0.000 OA
BRANCH  17  20
ATOM     20  N   UNL     1       1.396  11.047  19.945  0.00  0.00    +0.000 N 
ATOM     21  H   UNL     1       2.123  11.743  19.795  0.00  0.00    +0.000 HD
BRANCH  20  26
ATOM     22  C   UNL     1      -3.128  12.498  23.137  0.00  0.00    +0.000 C 
ATOM     23  C   UNL     1      -1.944  12.115  22.296  0.00  0.00    +0.000 A 
ATOM     24  C   UNL     1      -1.077  11.095  22.705  0.00  0.00    +0.000 A 
ATOM     25  C   UNL     1       0.025  10.750  21.922  0.00  0.00    +0.000 A 
ATOM     26  C   UNL     1       0.269  11.419  20.725  0.00  0.00    +0.000 A 
ATOM     27  C   UNL     1      -0.589  12.433  20.302  0.00  0.00    +0.000 A 
ATOM     28  C   UNL     1      -1.692  12.783  21.090  0.00  0.00    +0.000 A 
ENDBRANCH  20  26
ENDBRANCH  17  20
ENDBRANCH   1  17
TORSDOF 4
ENDMDL
MODEL 4
REMARK VINA RESULT:      -7.4      3.031      8.502
REMARK  Name = 
REMARK  7 active torsions:
REMARK  status: ('A' for Active; 'I' for Inactive)
REMARK    1  A    between atoms: C_1  and  C_2
REMARK    2  A    between atoms: C_5  and  N_6
REMARK    3  A    between atoms: N_6  and  S_7
REMARK    4  A    between atoms: S_7  and  C_10
REMARK    5  A    between atoms: C_13  and  C_14
REMARK    6  A    between atoms: C_15  and  C_16
REMARK    7  A    between atoms: N_21  and  C_22
REMARK                            x       y       z     vdW  Elec       q    Type
REMARK                         _______ _______ _______ _____ _____    ______ ____
ROOT
ATOM      1  C   UNL     1       1.509   8.507  19.152  0.00  0.00    +0.000 A 
ATOM      2  C   UNL     1       1.318   8.240  20.505  0.00  0.00    +0.000 A 
ATOM      3  C   UNL     1       1.623   6.970  21.005  0.00  0.00    +0.000 A 
ATOM      4  C   UNL     1       2.182   5.977  20.176  0.00  0.00    +0.000 A 
ATOM      5  C   UNL     1       2.512   4.633  20.771  0.00  0.00    +0.000 C 
ATOM      6  C   UNL     1       2.413   6.278  18.818  0.00  0.00    +0.000 A 
ATOM      7  C   UNL     1       2.010   7.519  18.305  0.00  0.00    +0.000 A 
ENDROOT
BRANCH   6   8
ATOM      8  C   UNL     1       3.037   5.302  17.876  0.00  0.00    +0.000 C 
ATOM      9  O   UNL     1       2.332   4.416  17.396  0.00  0.00    +0.000 OA
ATOM     10  N   UNL     1       4.386   5.454  17.520  0.00  0.00    +0.000 N 
ATOM     11  C   UNL     1       4.900   4.508  16.526  0.00  0.00    +0.000 C 
ATOM     12  C   UNL     1       6.183   5.002  15.830  0.00  0.00    +0.000 C 
ATOM     13  N   UNL     1       7.238   5.503  16.736  0.00  0.00    +0.000 NA
ATOM     14  C   UNL     1       7.870   4.418  17.484  0.00  0.00    +0.000 C 
ATOM     15  C   UNL     1       6.650   6.509  17.644  0.00  0.00    +0.000 C 
ATOM     16  C   UNL     1       5.415   6.010  18.419  0.00  0.00    +0.000 C 
ENDBRANCH   6   8
BRANCH   1  17
ATOM     17  S   UNL     1       1.293  10.138  18.489  0.00  0.00    +0.000 S 
ATOM     18  O   UNL     1       2.470  10.474  17.723  0.00  0.00    +0.000 OA
ATOM     19  O   UNL     1       0.854  10.988  19.577  0.00  0.00    +0.000 OA
BRANCH  17  20
ATOM     20  N   UNL     1      -0.040   9.966  17.476  0.00  0.00    +0.000 N 
ATOM     21  H   UNL     1      -0.051   9.062  17.007  0.00  0.00    +0.000 HD
BRANCH  20  26
ATOM     22  C   UNL     1      -5.020  12.248  19.134  0.00  0.00    +0.000 C 
ATOM     23  C   UNL     1      -3.715  11.645  18.701  0.00  0.00    +0.000 A 
ATOM     24  C   UNL     1      -2.501  12.157  19.173  0.00  0.00    +0.000 A 
ATOM     25  C   UNL     1      -1.291  11.597  18.761  0.00  0.00    +0.000 A 
ATOM     26  C   UNL     1      -1.285  10.521  17.877  0.00  0.00    +0.000 A 
ATOM     27  C   UNL     1      -2.487   9.996  17.404  0.00  0.00    +0.000 A 
ATOM     28  C   UNL     1      -3.700  10.562  17.813  0.00  0.00    +0.000 A 
ENDBRANCH  20  26
ENDBRANCH  17  20
ENDBRANCH   1  17
TORSDOF 4
ENDMDL
MODEL 5
REMARK VINA RESULT:      -7.3      3.358      8.703
REMARK  Name = 
REMARK  7 active torsions:
REMARK  status: ('A' for Active; 'I' for Inactive)
REMARK    1  A    between atoms: C_1  and  C_2
REMARK    2  A    between atoms: C_5  and  N_6
REMARK    3  A    between atoms: N_6  and  S_7
REMARK    4  A    between atoms: S_7  and  C_10
REMARK    5  A    between atoms: C_13  and  C_14
REMARK    6  A    between atoms: C_15  and  C_16
REMARK    7  A    between atoms: N_21  and  C_22
REMARK                            x       y       z     vdW  Elec       q    Type
REMARK                         _______ _______ _______ _____ _____    ______ ____
ROOT
ATOM      1  C   UNL     1       1.457   8.421  19.070  0.00  0.00    +0.000 A 
ATOM      2  C   UNL     1       1.293   8.203  20.436  0.00  0.00    +0.000 A 
ATOM      3  C   UNL     1       1.627   6.957  20.977  0.00  0.00    +0.000 A 
ATOM      4  C   UNL     1       2.185   5.942  20.176  0.00  0.00    +0.000 A 
ATOM      5  C   UNL     1       2.545   4.625  20.814  0.00  0.00    +0.000 C 
ATOM      6  C   UNL     1       2.388   6.194  18.803  0.00  0.00    +0.000 A 
ATOM      7  C   UNL     1       1.957   7.409  18.252  0.00  0.00    +0.000 A 
ENDROOT
BRANCH   6   8
ATOM      8  C   UNL     1       3.009   5.192  17.887  0.00  0.00    +0.000 C 
ATOM      9  O   UNL     1       2.313   4.269  17.468  0.00  0.00    +0.000 OA
ATOM     10  N   UNL     1       4.342   5.360  17.485  0.00  0.00    +0.000 N 
ATOM     11  C   UNL     1       4.852   4.383  16.519  0.00  0.00    +0.000 C 
ATOM     12  C   UNL     1       6.102   4.876  15.765  0.00  0.00    +0.000 C 
ATOM     13  N   UNL     1       7.169   5.442  16.617  0.00  0.00    +0.000 NA
ATOM     14  C   UNL     1       7.849   4.406  17.392  0.00  0.00    +0.000 C 
ATOM     15  C   UNL     1       6.582   6.473  17.496  0.00  0.00    +0.000 C 
ATOM     16  C   UNL     1       5.383   5.980  18.329  0.00  0.00    +0.000 C 
ENDBRANCH   6   8
BRANCH   1  17
ATOM     17  S   UNL     1       1.205  10.024  18.351  0.00  0.00    +0.000 S 
ATOM     18  O   UNL     1      -0.107  10.046  17.748  0.00  0.00    +0.000 OA
ATOM     19  O   UNL     1       2.383  10.331  17.566  0.00  0.00    +0.000 OA
BRANCH  17  20
ATOM     20  N   UNL     1       1.260  11.052  19.682  0.00  0.00    +0.000 N 
ATOM     21  H   UNL     1       2.094  10.904  20.247  0.00  0.00    +0.000 HD
BRANCH  20  26
ATOM     22  C   UNL     1      -0.617  16.428  19.099  0.00  0.00    +0.000 C 
ATOM     23  C   UNL     1      -0.125  15.018  19.257  0.00  0.00    +0.000 A 
ATOM     24  C   UNL     1       1.169  14.664  18.857  0.00  0.00    +0.000 A 
ATOM     25  C   UNL     1       1.617  13.351  18.999  0.00  0.00    +0.000 A 
ATOM     26  C   UNL     1       0.778  12.382  19.544  0.00  0.00    +0.000 A 
ATOM     27  C   UNL     1      -0.511  12.720  19.953  0.00  0.00    +0.000 A 
ATOM     28  C   UNL     1      -0.962  14.037  19.805  0.00  0.00    +0.000 A 
ENDBRANCH  20  26
ENDBRANCH  17  20
ENDBRANCH   1  17
TORSDOF 4
ENDMDL
MODEL 6
REMARK VINA RESULT:      -7.3      5.024      7.999
REMARK  Name = 
REMARK  7 active torsions:
REMARK  status: ('A' for Active; 'I' for Inactive)
REMARK    1  A    between atoms: C_1  and  C_2
REMARK    2  A    between atoms: C_5  and  N_6
REMARK    3  A    between atoms: N_6  and  S_7
REMARK    4  A    between atoms: S_7  and  C_10
REMARK    5  A    between atoms: C_13  and  C_14
REMARK    6  A    between atoms: C_15  and  C_16
REMARK    7  A    between atoms: N_21  and  C_22
REMARK                            x       y       z     vdW  Elec       q    Type
REMARK                         _______ _______ _______ _____ _____    ______ ____
ROOT
ATOM      1  C   UNL     1       0.641  10.063  20.295  0.00  0.00    +0.000 A 
ATOM      2  C   UNL     1       1.516  11.142  20.384  0.00  0.00    +0.000 A 
ATOM      3  C   UNL     1       1.210  12.333  19.717  0.00  0.00    +0.000 A 
ATOM      4  C   UNL     1      -0.000  12.479  19.010  0.00  0.00    +0.000 A 
ATOM      5  C   UNL     1      -0.290  13.790  18.326  0.00  0.00    +0.000 C 
ATOM      6  C   UNL     1      -0.898  11.391  18.968  0.00  0.00    +0.000 A 
ATOM      7  C   UNL     1      -0.535  10.171  19.554  0.00  0.00    +0.000 A 
ENDROOT
BRANCH   6   8
ATOM      8  C   UNL     1      -2.219  11.469  18.275  0.00  0.00    +0.000 C 
ATOM      9  O   UNL     1      -2.274  11.181  17.082  0.00  0.00    +0.000 OA
ATOM     10  N   UNL     1      -3.363  11.810  19.012  0.00  0.00    +0.000 N 
ATOM     11  C   UNL     1      -4.632  11.781  18.281  0.00  0.00    +0.000 C 
ATOM     12  C   UNL     1      -5.860  11.680  19.207  0.00  0.00    +0.000 C 
ATOM     13  N   UNL     1      -5.877  12.634  20.336  0.00  0.00    +0.000 NA
ATOM     14  C   UNL     1      -6.128  14.002  19.885  0.00  0.00    +0.000 C 
ATOM     15  C   UNL     1      -4.595  12.536  21.063  0.00  0.00    +0.000 C 
ATOM     16  C   UNL     1      -3.351  12.720  20.174  0.00  0.00    +0.000 C 
ENDBRANCH   6   8
BRANCH   1  17
ATOM     17  S   UNL     1       0.893   8.585  21.244  0.00  0.00    +0.000 S 
ATOM     18  O   UNL     1      -0.310   7.789  21.167  0.00  0.00    +0.000 OA
ATOM     19  O   UNL     1       1.430   8.987  22.528  0.00  0.00    +0.000 OA
BRANCH  17  20
ATOM     20  N   UNL     1       2.158   7.823  20.436  0.00  0.00    +0.000 N 
ATOM     21  H   UNL     1       3.064   8.064  20.831  0.00  0.00    +0.000 HD
BRANCH  20  26
ATOM     22  C   UNL     1       1.387   2.461  18.587  0.00  0.00    +0.000 C 
ATOM     23  C   UNL     1       1.594   3.868  19.071  0.00  0.00    +0.000 A 
ATOM     24  C   UNL     1       1.406   4.194  20.420  0.00  0.00    +0.000 A 
ATOM     25  C   UNL     1       1.592   5.504  20.861  0.00  0.00    +0.000 A 
ATOM     26  C   UNL     1       1.970   6.497  19.961  0.00  0.00    +0.000 A 
ATOM     27  C   UNL     1       2.168   6.186  18.617  0.00  0.00    +0.000 A 
ATOM     28  C   UNL     1       1.975   4.873  18.173  0.00  0.00    +0.000 A 
ENDBRANCH  20  26
ENDBRANCH  17  20
ENDBRANCH   1  17
TORSDOF 4
ENDMDL
MODEL 7
REMARK VINA RESULT:      -7.2      3.264      8.975
REMARK  Name = 
REMARK  7 active torsions:
REMARK  status: ('A' for Active; 'I' for Inactive)
REMARK    1  A    between atoms: C_1  and  C_2
REMARK    2  A    between atoms: C_5  and  N_6
REMARK    3  A    between atoms: N_6  and  S_7
REMARK    4  A    between atoms: S_7  and  C_10
REMARK    5  A    between atoms: C_13  and  C_14
REMARK    6  A    between atoms: C_15  and  C_16
REMARK    7  A    between atoms: N_21  and  C_22
REMARK                            x       y       z     vdW  Elec       q    Type
REMARK                         _______ _______ _______ _____ _____    ______ ____
ROOT
ATOM      1  C   UNL     1       1.440   8.490  19.186  0.00  0.00    +0.000 A 
ATOM      2  C   UNL     1       1.284   8.206  20.541  0.00  0.00    +0.000 A 
ATOM      3  C   UNL     1       1.623   6.936  21.021  0.00  0.00    +0.000 A 
ATOM      4  C   UNL     1       2.179   5.962  20.169  0.00  0.00    +0.000 A 
ATOM      5  C   UNL     1       2.545   4.618  20.742  0.00  0.00    +0.000 C 
ATOM      6  C   UNL     1       2.374   6.281  18.809  0.00  0.00    +0.000 A 
ATOM      7  C   UNL     1       1.938   7.519  18.318  0.00  0.00    +0.000 A 
ENDROOT
BRANCH   6   8
ATOM      8  C   UNL     1       2.993   5.324  17.842  0.00  0.00    +0.000 C 
ATOM      9  O   UNL     1       2.286   4.447  17.351  0.00  0.00    +0.000 OA
ATOM     10  N   UNL     1       4.338   5.487  17.480  0.00  0.00    +0.000 N 
ATOM     11  C   UNL     1       4.847   4.562  16.463  0.00  0.00    +0.000 C 
ATOM     12  C   UNL     1       6.124   5.073  15.767  0.00  0.00    +0.000 C 
ATOM     13  N   UNL     1       7.184   5.558  16.675  0.00  0.00    +0.000 NA
ATOM     14  C   UNL     1       7.824   4.460  17.396  0.00  0.00    +0.000 C 
ATOM     15  C   UNL     1       6.601   6.544  17.608  0.00  0.00    +0.000 C 
ATOM     16  C   UNL     1       5.373   6.027  18.382  0.00  0.00    +0.000 C 
ENDBRANCH   6   8
BRANCH   1  17
ATOM     17  S   UNL     1       1.181  10.124  18.546  0.00  0.00    +0.000 S 
ATOM     18  O   UNL     1      -0.186  10.218  18.089  0.00  0.00    +0.000 OA
ATOM     19  O   UNL     1       2.280  10.411  17.648  0.00  0.00    +0.000 OA
BRANCH  17  20
ATOM     20  N   UNL     1       1.421  11.104  19.893  0.00  0.00    +0.000 N 
ATOM     21  H   UNL     1       2.289  11.633  19.832  0.00  0.00    +0.000 HD
BRANCH  20  26
ATOM     22  C   UNL     1      -3.093  13.700  22.267  0.00  0.00    +0.000 C 
ATOM     23  C   UNL     1      -1.906  13.020  21.649  0.00  0.00    +0.000 A 
ATOM     24  C   UNL     1      -1.221  13.610  20.581  0.00  0.00    +0.000 A 
ATOM     25  C   UNL     1      -0.124  12.969  20.006  0.00  0.00    +0.000 A 
ATOM     26  C   UNL     1       0.299  11.735  20.493  0.00  0.00    +0.000 A 
ATOM     27  C   UNL     1      -0.370  11.138  21.561  0.00  0.00    +0.000 A 
ATOM     28  C   UNL     1      -1.474  11.779  22.134  0.00  0.00    +0.000 A 
ENDBRANCH  20  26
ENDBRANCH  17  20
ENDBRANCH   1  17
TORSDOF 4
ENDMDL
MODEL 8
REMARK VINA RESULT:      -7.2      5.066     10.702
REMARK  Name = 
REMARK  7 active torsions:
REMARK  status: ('A' for Active; 'I' for Inactive)
REMARK    1  A    between atoms: C_1  and  C_2
REMARK    2  A    between atoms: C_5  and  N_6
REMARK    3  A    between atoms: N_6  and  S_7
REMARK    4  A    between atoms: S_7  and  C_10
REMARK    5  A    between atoms: C_13  and  C_14
REMARK    6  A    between atoms: C_15  and  C_16
REMARK    7  A    between atoms: N_21  and  C_22
REMARK                            x       y       z     vdW  Elec       q    Type
REMARK                         _______ _______ _______ _____ _____    ______ ____
ROOT
ATOM      1  C   UNL     1      -1.620  11.302  18.057  0.00  0.00    +0.000 A 
ATOM      2  C   UNL     1      -1.094  12.586  17.943  0.00  0.00    +0.000 A 
ATOM      3  C   UNL     1       0.037  12.935  18.688  0.00  0.00    +0.000 A 
ATOM      4  C   UNL     1       0.690  11.989  19.503  0.00  0.00    +0.000 A 
ATOM      5  C   UNL     1       1.917  12.413  20.269  0.00  0.00    +0.000 C 
ATOM      6  C   UNL     1       0.173  10.679  19.572  0.00  0.00    +0.000 A 
ATOM      7  C   UNL     1      -1.018  10.369  18.901  0.00  0.00    +0.000 A 
ENDROOT
BRANCH   6   8
ATOM      8  C   UNL     1       0.822   9.603  20.379  0.00  0.00    +0.000 C 
ATOM      9  O   UNL     1       0.774   9.678  21.605  0.00  0.00    +0.000 OA
ATOM     10  N   UNL     1       1.414   8.514  19.722  0.00  0.00    +0.000 N 
ATOM     11  C   UNL     1       1.953   7.458  20.584  0.00  0.00    +0.000 C 
ATOM     12  C   UNL     1       2.136   6.115  19.850  0.00  0.00    +0.000 C 
ATOM     13  N   UNL     1       2.834   6.198  18.550  0.00  0.00    +0.000 NA
ATOM     14  C   UNL     1       4.257   6.485  18.717  0.00  0.00    +0.000 C 
ATOM     15  C   UNL     1       2.174   7.225  17.719  0.00  0.00    +0.000 C 
ATOM     16  C   UNL     1       2.056   8.603  18.397  0.00  0.00    +0.000 C 
ENDBRANCH   6   8
BRANCH   1  17
ATOM     17  S   UNL     1      -2.951  10.750  17.023  0.00  0.00    +0.000 S 
ATOM     18  O   UNL     1      -3.436   9.493  17.543  0.00  0.00    +0.000 OA
ATOM     19  O   UNL     1      -2.499  10.855  15.651  0.00  0.00    +0.000 OA
BRANCH  17  20
ATOM     20  N   UNL     1      -4.111  11.955  17.217  0.00  0.00    +0.000 N 
ATOM     21  H   UNL     1      -4.473  12.285  16.325  0.00  0.00    +0.000 HD
BRANCH  20  26
ATOM     22  C   UNL     1      -7.793  11.580  21.583  0.00  0.00    +0.000 C 
ATOM     23  C   UNL     1      -6.828  11.684  20.437  0.00  0.00    +0.000 A 
ATOM     24  C   UNL     1      -7.152  11.159  19.181  0.00  0.00    +0.000 A 
ATOM     25  C   UNL     1      -6.246  11.251  18.123  0.00  0.00    +0.000 A 
ATOM     26  C   UNL     1      -5.013  11.870  18.311  0.00  0.00    +0.000 A 
ATOM     27  C   UNL     1      -4.679  12.403  19.555  0.00  0.00    +0.000 A 
ATOM     28  C   UNL     1      -5.585  12.305  20.618  0.00  0.00    +0.000 A 
ENDBRANCH  20  26
ENDBRANCH  17  20
ENDBRANCH   1  17
TORSDOF 4
ENDMDL
MODEL 9
REMARK VINA RESULT:      -7.1      4.100      9.745
REMARK  Name = 
REMARK  7 active torsions:
REMARK  status: ('A' for Active; 'I' for Inactive)
REMARK    1  A    between atoms: C_1  and  C_2
REMARK    2  A    between atoms: C_5  and  N_6
REMARK    3  A    between atoms: N_6  and  S_7
REMARK    4  A    between atoms: S_7  and  C_10
REMARK    5  A    between atoms: C_13  and  C_14
REMARK    6  A    between atoms: C_15  and  C_16
REMARK    7  A    between atoms: N_21  and  C_22
REMARK                            x       y       z     vdW  Elec       q    Type
REMARK                         _______ _______ _______ _____ _____    ______ ____
ROOT
ATOM      1  C   UNL     1       1.247   8.816  20.208  0.00  0.00    +0.000 A 
ATOM      2  C   UNL     1       1.202   9.494  18.993  0.00  0.00    +0.000 A 
ATOM      3  C   UNL     1       1.977   9.037  17.921  0.00  0.00    +0.000 A 
ATOM      4  C   UNL     1       2.750   7.865  18.032  0.00  0.00    +0.000 A 
ATOM      5  C   UNL     1       3.549   7.405  16.839  0.00  0.00    +0.000 C 
ATOM      6  C   UNL     1       2.749   7.163  19.255  0.00  0.00    +0.000 A 
ATOM      7  C   UNL     1       2.050   7.685  20.352  0.00  0.00    +0.000 A 
ENDROOT
BRANCH   6   8
ATOM      8  C   UNL     1       3.508   5.891  19.450  0.00  0.00    +0.000 C 
ATOM      9  O   UNL     1       4.735   5.942  19.498  0.00  0.00    +0.000 OA
ATOM     10  N   UNL     1       2.804   4.691  19.630  0.00  0.00    +0.000 N 
ATOM     11  C   UNL     1       3.618   3.502  19.901  0.00  0.00    +0.000 C 
ATOM     12  C   UNL     1       2.817   2.360  20.554  0.00  0.00    +0.000 C 
ATOM     13  N   UNL     1       1.535   2.032  19.896  0.00  0.00    +0.000 NA
ATOM     14  C   UNL     1       1.741   1.368  18.610  0.00  0.00    +0.000 C 
ATOM     15  C   UNL     1       0.748   3.272  19.739  0.00  0.00    +0.000 C 
ATOM     16  C   UNL     1       1.497   4.404  19.009  0.00  0.00    +0.000 C 
ENDBRANCH   6   8
BRANCH   1  17
ATOM     17  S   UNL     1       0.172   9.249  21.551  0.00  0.00    +0.000 S 
ATOM     18  O   UNL     1       0.989   9.670  22.665  0.00  0.00    +0.000 OA
ATOM     19  O   UNL     1      -0.781   8.169  21.702  0.00  0.00    +0.000 OA
BRANCH  17  20
ATOM     20  N   UNL     1      -0.702  10.549  20.936  0.00  0.00    +0.000 N 
ATOM     21  H   UNL     1      -1.501  10.247  20.383  0.00  0.00    +0.000 HD
BRANCH  20  26
ATOM     22  C   UNL     1      -1.242  15.281  24.111  0.00  0.00    +0.000 C 
ATOM     23  C   UNL     1      -1.099  14.037  23.282  0.00  0.00    +0.000 A 
ATOM     24  C   UNL     1      -0.139  13.963  22.266  0.00  0.00    +0.000 A 
ATOM     25  C   UNL     1      -0.017  12.807  21.495  0.00  0.00    +0.000 A 
ATOM     26  C   UNL     1      -0.849  11.717  21.733  0.00  0.00    +0.000 A 
ATOM     27  C   UNL     1      -1.806  11.774  22.746  0.00  0.00    +0.000 A 
ATOM     28  C   UNL     1      -1.933  12.936  23.516  0.00  0.00    +0.000 A 
ENDBRANCH  20  26
ENDBRANCH  17  20
ENDBRANCH   1  17
TORSDOF 4
ENDMDL
