MODEL 1
REMARK VINA RESULT:      -7.8      0.000      0.000
REMARK  Name = 
REMARK  10 active torsions:
REMARK  status: ('A' for Active; 'I' for Inactive)
REMARK    1  A    between atoms: C_1  and  C_2
REMARK    2  A    between atoms: C_4  and  C_5
REMARK    3  A    between atoms: C_8  and  C_9
REMARK    4  A    between atoms: C_10  and  C_11
REMARK    5  A    between atoms: C_10  and  C_13
REMARK    6  A    between atoms: N_15  and  C_16
REMARK    7  A    between atoms: C_19  and  C_20
REMARK    8  A    between atoms: C_20  and  O_22
REMARK    9  A    between atoms: C_26  and  N_27
REMARK   10  A    between atoms: C_31  and  C_32
REMARK                            x       y       z     vdW  Elec       q    Type
REMARK                         _______ _______ _______ _____ _____    ______ ____
ROOT
ATOM      1  C   UNL     1       1.093   9.681  20.617  0.00  0.00    +0.000 C 
ATOM      2  C   UNL     1       0.764   9.581  19.306  0.00  0.00    +0.000 C 
ENDROOT
BRANCH   1   6
ATOM      3  C   UNL     1      -0.976  11.853  22.629  0.00  0.00    +0.000 A 
ATOM      4  C   UNL     1      -1.231  10.661  23.271  0.00  0.00    +0.000 A 
ATOM      5  C   UNL     1      -0.480   9.672  22.603  0.00  0.00    +0.000 A 
ATOM      6  C   UNL     1       0.223  10.290  21.576  0.00  0.00    +0.000 A 
ATOM      7  O   UNL     1      -0.083  11.640  21.615  0.00  0.00    +0.000 OA
BRANCH   3  11
ATOM      8  C   UNL     1       0.209  16.613  23.385  0.00  0.00    +0.000 C 
ATOM      9  C   UNL     1      -0.882  15.578  23.267  0.00  0.00    +0.000 A 
ATOM     10  C   UNL     1      -0.535  14.258  22.913  0.00  0.00    +0.000 A 
ATOM     11  C   UNL     1      -1.476  13.210  22.867  0.00  0.00    +0.000 A 
ATOM     12  C   UNL     1      -2.804  13.554  23.144  0.00  0.00    +0.000 A 
ATOM     13  C   UNL     1      -3.186  14.873  23.466  0.00  0.00    +0.000 A 
ATOM     14  C   UNL     1      -2.224  15.893  23.541  0.00  0.00    +0.000 A 
ATOM     15  C   UNL     1      -2.636  17.283  23.944  0.00  0.00    +0.000 C 
BRANCH  12  16
ATOM     16  N   UNL     1      -3.841  12.545  23.215  0.00  0.00    +0.000 N 
ATOM     17  O   UNL     1      -4.093  12.068  24.329  0.00  0.00    +0.000 OA
ATOM     18  O   UNL     1      -4.456  12.298  22.168  0.00  0.00    +0.000 OA
ENDBRANCH  12  16
ENDBRANCH   3  11
ENDBRANCH   1   6
BRANCH   2  19
ATOM     19  C   UNL     1       1.702   8.868  18.402  0.00  0.00    +0.000 C 
ATOM     20  O   UNL     1       2.040   9.425  17.360  0.00  0.00    +0.000 OA
ATOM     21  N   UNL     1       2.109   7.601  18.784  0.00  0.00    +0.000 N 
ATOM     22  H   UNL     1       1.659   7.159  19.578  0.00  0.00    +0.000 HD
BRANCH  21  23
ATOM     23  C   UNL     1       3.051   6.807  18.078  0.00  0.00    +0.000 A 
ATOM     24  C   UNL     1       4.190   7.340  17.466  0.00  0.00    +0.000 A 
ATOM     25  C   UNL     1       5.090   6.526  16.776  0.00  0.00    +0.000 A 
ATOM     26  C   UNL     1       4.870   5.151  16.684  0.00  0.00    +0.000 A 
ATOM     27  C   UNL     1       3.746   4.597  17.311  0.00  0.00    +0.000 A 
ATOM     28  C   UNL     1       2.845   5.424  18.008  0.00  0.00    +0.000 A 
BRANCH  26  29
ATOM     29  C   UNL     1       5.893   4.341  15.973  0.00  0.00    +0.000 C 
ATOM     30  O   UNL     1       5.752   3.969  14.819  0.00  0.00    +0.000 OA
BRANCH  29  31
ATOM     31  O   UNL     1       6.967   4.024  16.716  0.00  0.00    +0.000 OA
ATOM     32  H   UNL     1       6.892   4.224  17.666  0.00  0.00    +0.000 HD
ENDBRANCH  29  31
ENDBRANCH  26  29
ENDBRANCH  21  23
ENDBRANCH   2  19
BRANCH   2  33
ATOM     33  C   UNL     1      -0.555  10.201  18.877  0.00  0.00    +0.000 C 
ATOM     34  N   UNL     1      -1.650  10.716  18.521  0.00  0.00    +0.000 NA
ENDBRANCH   2  33
TORSDOF 8
ENDMDL
MODEL 2
REMARK VINA RESULT:      -7.8      2.191     11.388
REMARK  Name = 
REMARK  10 active torsions:
REMARK  status: ('A' for Active; 'I' for Inactive)
REMARK    1  A    between atoms: C_1  and  C_2
REMARK    2  A    between atoms: C_4  and  C_5
REMARK    3  A    between atoms: C_8  and  C_9
REMARK    4  A    between atoms: C_10  and  C_11
REMARK    5  A    between atoms: C_10  and  C_13
REMARK    6  A    between atoms: N_15  and  C_16
REMARK    7  A    between atoms: C_19  and  C_20
REMARK    8  A    between atoms: C_20  and  O_22
REMARK    9  A    between atoms: C_26  and  N_27
REMARK   10  A    between atoms: C_31  and  C_32
REMARK                            x       y       z     vdW  Elec       q    Type
REMARK                         _______ _______ _______ _____ _____    ______ ____
ROOT
ATOM      1  C   UNL     1       1.026   9.900  20.243  0.00  0.00    +0.000 C 
ATOM      2  C   UNL     1      -0.154  10.530  20.030  0.00  0.00    +0.000 C 
ENDROOT
BRANCH   1   6
ATOM      3  C   UNL     1       2.398   7.234  18.227  0.00  0.00    +0.000 A 
ATOM      4  C   UNL     1       2.589   8.282  17.354  0.00  0.00    +0.000 A 
ATOM      5  C   UNL     1       2.103   9.439  17.996  0.00  0.00    +0.000 A 
ATOM      6  C   UNL     1       1.635   9.067  19.250  0.00  0.00    +0.000 A 
ATOM      7  O   UNL     1       1.839   7.704  19.384  0.00  0.00    +0.000 OA
BRANCH   3  11
ATOM      8  C   UNL     1       0.930   2.613  19.285  0.00  0.00    +0.000 C 
ATOM      9  C   UNL     1       1.973   3.502  18.656  0.00  0.00    +0.000 A 
ATOM     10  C   UNL     1       1.739   4.891  18.595  0.00  0.00    +0.000 A 
ATOM     11  C   UNL     1       2.696   5.804  18.108  0.00  0.00    +0.000 A 
ATOM     12  C   UNL     1       3.891   5.256  17.631  0.00  0.00    +0.000 A 
ATOM     13  C   UNL     1       4.139   3.867  17.646  0.00  0.00    +0.000 A 
ATOM     14  C   UNL     1       3.185   2.981  18.171  0.00  0.00    +0.000 A 
ATOM     15  C   UNL     1       3.487   1.508  18.237  0.00  0.00    +0.000 C 
BRANCH  12  16
ATOM     16  N   UNL     1       4.981   6.102  17.190  0.00  0.00    +0.000 N 
ATOM     17  O   UNL     1       5.832   6.415  18.033  0.00  0.00    +0.000 OA
ATOM     18  O   UNL     1       5.025   6.378  15.983  0.00  0.00    +0.000 OA
ENDBRANCH  12  16
ENDBRANCH   3  11
ENDBRANCH   1   6
BRANCH   2  19
ATOM     19  C   UNL     1      -0.669  11.429  21.093  0.00  0.00    +0.000 C 
ATOM     20  O   UNL     1       0.046  11.641  22.070  0.00  0.00    +0.000 OA
ATOM     21  N   UNL     1      -1.943  11.944  20.925  0.00  0.00    +0.000 N 
ATOM     22  H   UNL     1      -2.519  11.592  20.169  0.00  0.00    +0.000 HD
BRANCH  21  23
ATOM     23  C   UNL     1      -2.565  12.869  21.805  0.00  0.00    +0.000 A 
ATOM     24  C   UNL     1      -3.285  12.476  22.938  0.00  0.00    +0.000 A 
ATOM     25  C   UNL     1      -3.887  13.418  23.776  0.00  0.00    +0.000 A 
ATOM     26  C   UNL     1      -3.779  14.781  23.497  0.00  0.00    +0.000 A 
ATOM     27  C   UNL     1      -3.042  15.192  22.379  0.00  0.00    +0.000 A 
ATOM     28  C   UNL     1      -2.435  14.238  21.542  0.00  0.00    +0.000 A 
BRANCH  26  29
ATOM     29  C   UNL     1      -4.407  15.726  24.457  0.00  0.00    +0.000 C 
ATOM     30  O   UNL     1      -3.752  16.440  25.200  0.00  0.00    +0.000 OA
BRANCH  29  31
ATOM     31  O   UNL     1      -5.750  15.703  24.462  0.00  0.00    +0.000 OA
ATOM     32  H   UNL     1      -6.180  16.418  24.965  0.00  0.00    +0.000 HD
ENDBRANCH  29  31
ENDBRANCH  26  29
ENDBRANCH  21  23
ENDBRANCH   2  19
BRANCH   2  33
ATOM     33  C   UNL     1      -0.844  10.270  18.701  0.00  0.00    +0.000 C 
ATOM     34  N   UNL     1      -1.416  10.054  17.598  0.00  0.00    +0.000 NA
ENDBRANCH   2  33
TORSDOF 8
ENDMDL
MODEL 3
REMARK VINA RESULT:      -7.8      2.290     11.037
REMARK  Name = 
REMARK  10 active torsions:
REMARK  status: ('A' for Active; 'I' for Inactive)
REMARK    1  A    between atoms: C_1  and  C_2
REMARK    2  A    between atoms: C_4  and  C_5
REMARK    3  A    between atoms: C_8  and  C_9
REMARK    4  A    between atoms: C_10  and  C_11
REMARK    5  A    between atoms: C_10  and  C_13
REMARK    6  A    between atoms: N_15  and  C_16
REMARK    7  A    between atoms: C_19  and  C_20
REMARK    8  A    between atoms: C_20  and  O_22
REMARK    9  A    between atoms: C_26  and  N_27
REMARK   10  A    between atoms: C_31  and  C_32
REMARK                            x       y       z     vdW  Elec       q    Type
REMARK                         _______ _______ _______ _____ _____    ______ ____
ROOT
ATOM      1  C   UNL     1       1.201   8.141  21.064  0.00  0.00    +0.000 C 
ATOM      2  C   UNL     1       1.051   9.250  20.301  0.00  0.00    +0.000 C 
ENDROOT
BRANCH   1   6
ATOM      3  C   UNL     1       3.028   5.546  19.339  0.00  0.00    +0.000 A 
ATOM      4  C   UNL     1       2.263   4.754  20.166  0.00  0.00    +0.000 A 
ATOM      5  C   UNL     1       1.459   5.624  20.931  0.00  0.00    +0.000 A 
ATOM      6  C   UNL     1       1.750   6.926  20.543  0.00  0.00    +0.000 A 
ATOM      7  O   UNL     1       2.710   6.860  19.548  0.00  0.00    +0.000 OA
BRANCH   3  11
ATOM      8  C   UNL     1       7.270   6.900  17.148  0.00  0.00    +0.000 C 
ATOM      9  C   UNL     1       6.147   5.896  17.232  0.00  0.00    +0.000 A 
ATOM     10  C   UNL     1       5.174   6.044  18.242  0.00  0.00    +0.000 A 
ATOM     11  C   UNL     1       4.045   5.207  18.339  0.00  0.00    +0.000 A 
ATOM     12  C   UNL     1       3.956   4.172  17.402  0.00  0.00    +0.000 A 
ATOM     13  C   UNL     1       4.932   3.978  16.403  0.00  0.00    +0.000 A 
ATOM     14  C   UNL     1       6.030   4.848  16.304  0.00  0.00    +0.000 A 
ATOM     15  C   UNL     1       7.033   4.666  15.196  0.00  0.00    +0.000 C 
BRANCH  12  16
ATOM     16  N   UNL     1       2.795   3.307  17.348  0.00  0.00    +0.000 N 
ATOM     17  O   UNL     1       1.773   3.761  16.819  0.00  0.00    +0.000 OA
ATOM     18  O   UNL     1       2.941   2.147  17.760  0.00  0.00    +0.000 OA
ENDBRANCH  12  16
ENDBRANCH   3  11
ENDBRANCH   1   6
BRANCH   2  19
ATOM     19  C   UNL     1       0.538  10.483  20.951  0.00  0.00    +0.000 C 
ATOM     20  O   UNL     1       1.344  11.364  21.242  0.00  0.00    +0.000 OA
ATOM     21  N   UNL     1      -0.820  10.540  21.215  0.00  0.00    +0.000 N 
ATOM     22  H   UNL     1      -1.382   9.706  21.085  0.00  0.00    +0.000 HD
BRANCH  21  23
ATOM     23  C   UNL     1      -1.489  11.664  21.768  0.00  0.00    +0.000 A 
ATOM     24  C   UNL     1      -1.945  11.705  23.089  0.00  0.00    +0.000 A 
ATOM     25  C   UNL     1      -2.605  12.828  23.593  0.00  0.00    +0.000 A 
ATOM     26  C   UNL     1      -2.823  13.942  22.781  0.00  0.00    +0.000 A 
ATOM     27  C   UNL     1      -2.353  13.926  21.461  0.00  0.00    +0.000 A 
ATOM     28  C   UNL     1      -1.685  12.792  20.962  0.00  0.00    +0.000 A 
BRANCH  26  29
ATOM     29  C   UNL     1      -3.491  15.117  23.398  0.00  0.00    +0.000 C 
ATOM     30  O   UNL     1      -3.427  16.237  22.918  0.00  0.00    +0.000 OA
BRANCH  29  31
ATOM     31  O   UNL     1      -4.140  14.849  24.544  0.00  0.00    +0.000 OA
ATOM     32  H   UNL     1      -4.870  14.210  24.472  0.00  0.00    +0.000 HD
ENDBRANCH  29  31
ENDBRANCH  26  29
ENDBRANCH  21  23
ENDBRANCH   2  19
BRANCH   2  33
ATOM     33  C   UNL     1       1.440   9.136  18.836  0.00  0.00    +0.000 C 
ATOM     34  N   UNL     1       1.763   9.041  17.621  0.00  0.00    +0.000 NA
ENDBRANCH   2  33
TORSDOF 8
ENDMDL
MODEL 4
REMARK VINA RESULT:      -7.7      2.196     11.355
REMARK  Name = 
REMARK  10 active torsions:
REMARK  status: ('A' for Active; 'I' for Inactive)
REMARK    1  A    between atoms: C_1  and  C_2
REMARK    2  A    between atoms: C_4  and  C_5
REMARK    3  A    between atoms: C_8  and  C_9
REMARK    4  A    between atoms: C_10  and  C_11
REMARK    5  A    between atoms: C_10  and  C_13
REMARK    6  A    between atoms: N_15  and  C_16
REMARK    7  A    between atoms: C_19  and  C_20
REMARK    8  A    between atoms: C_20  and  O_22
REMARK    9  A    between atoms: C_26  and  N_27
REMARK   10  A    between atoms: C_31  and  C_32
REMARK                            x       y       z     vdW  Elec       q    Type
REMARK                         _______ _______ _______ _____ _____    ______ ____
ROOT
ATOM      1  C   UNL     1       0.974   9.862  20.268  0.00  0.00    +0.000 C 
ATOM      2  C   UNL     1      -0.203  10.495  20.043  0.00  0.00    +0.000 C 
ENDROOT
BRANCH   1   6
ATOM      3  C   UNL     1       2.395   7.242  18.226  0.00  0.00    +0.000 A 
ATOM      4  C   UNL     1       2.598   8.308  17.377  0.00  0.00    +0.000 A 
ATOM      5  C   UNL     1       2.095   9.450  18.033  0.00  0.00    +0.000 A 
ATOM      6  C   UNL     1       1.605   9.051  19.271  0.00  0.00    +0.000 A 
ATOM      7  O   UNL     1       1.811   7.687  19.381  0.00  0.00    +0.000 OA
BRANCH   3  11
ATOM      8  C   UNL     1       0.915   2.595  19.147  0.00  0.00    +0.000 C 
ATOM      9  C   UNL     1       1.972   3.500  18.565  0.00  0.00    +0.000 A 
ATOM     10  C   UNL     1       1.734   4.890  18.527  0.00  0.00    +0.000 A 
ATOM     11  C   UNL     1       2.700   5.815  18.084  0.00  0.00    +0.000 A 
ATOM     12  C   UNL     1       3.910   5.281  17.627  0.00  0.00    +0.000 A 
ATOM     13  C   UNL     1       4.162   3.893  17.619  0.00  0.00    +0.000 A 
ATOM     14  C   UNL     1       3.197   2.993  18.101  0.00  0.00    +0.000 A 
ATOM     15  C   UNL     1       3.502   1.520  18.143  0.00  0.00    +0.000 C 
BRANCH  12  16
ATOM     16  N   UNL     1       5.008   6.139  17.233  0.00  0.00    +0.000 N 
ATOM     17  O   UNL     1       5.862   6.397  18.090  0.00  0.00    +0.000 OA
ATOM     18  O   UNL     1       5.053   6.482  16.043  0.00  0.00    +0.000 OA
ENDBRANCH  12  16
ENDBRANCH   3  11
ENDBRANCH   1   6
BRANCH   2  19
ATOM     19  C   UNL     1      -0.741  11.370  21.115  0.00  0.00    +0.000 C 
ATOM     20  O   UNL     1      -0.115  11.450  22.169  0.00  0.00    +0.000 OA
ATOM     21  N   UNL     1      -1.939  12.017  20.862  0.00  0.00    +0.000 N 
ATOM     22  H   UNL     1      -2.464  11.772  20.029  0.00  0.00    +0.000 HD
BRANCH  21  23
ATOM     23  C   UNL     1      -2.562  12.940  21.742  0.00  0.00    +0.000 A 
ATOM     24  C   UNL     1      -2.331  14.319  21.687  0.00  0.00    +0.000 A 
ATOM     25  C   UNL     1      -2.960  15.194  22.576  0.00  0.00    +0.000 A 
ATOM     26  C   UNL     1      -3.839  14.706  23.544  0.00  0.00    +0.000 A 
ATOM     27  C   UNL     1      -4.099  13.331  23.598  0.00  0.00    +0.000 A 
ATOM     28  C   UNL     1      -3.465  12.455  22.696  0.00  0.00    +0.000 A 
BRANCH  26  29
ATOM     29  C   UNL     1      -4.505  15.701  24.425  0.00  0.00    +0.000 C 
ATOM     30  O   UNL     1      -5.601  16.174  24.172  0.00  0.00    +0.000 OA
BRANCH  29  31
ATOM     31  O   UNL     1      -3.786  16.058  25.502  0.00  0.00    +0.000 OA
ATOM     32  H   UNL     1      -3.378  16.942  25.459  0.00  0.00    +0.000 HD
ENDBRANCH  29  31
ENDBRANCH  26  29
ENDBRANCH  21  23
ENDBRANCH   2  19
BRANCH   2  33
ATOM     33  C   UNL     1      -0.865  10.262  18.696  0.00  0.00    +0.000 C 
ATOM     34  N   UNL     1      -1.414  10.068  17.577  0.00  0.00    +0.000 NA
ENDBRANCH   2  33
TORSDOF 8
ENDMDL
MODEL 5
REMARK VINA RESULT:      -7.7      2.310     10.945
REMARK  Name = 
REMARK  10 active torsions:
REMARK  status: ('A' for Active; 'I' for Inactive)
REMARK    1  A    between atoms: C_1  and  C_2
REMARK    2  A    between atoms: C_4  and  C_5
REMARK    3  A    between atoms: C_8  and  C_9
REMARK    4  A    between atoms: C_10  and  C_11
REMARK    5  A    between atoms: C_10  and  C_13
REMARK    6  A    between atoms: N_15  and  C_16
REMARK    7  A    between atoms: C_19  and  C_20
REMARK    8  A    between atoms: C_20  and  O_22
REMARK    9  A    between atoms: C_26  and  N_27
REMARK   10  A    between atoms: C_31  and  C_32
REMARK                            x       y       z     vdW  Elec       q    Type
REMARK                         _______ _______ _______ _____ _____    ______ ____
ROOT
ATOM      1  C   UNL     1       1.015   8.408  20.800  0.00  0.00    +0.000 C 
ATOM      2  C   UNL     1       0.926   9.451  19.939  0.00  0.00    +0.000 C 
ENDROOT
BRANCH   1   6
ATOM      3  C   UNL     1       2.984   5.732  19.382  0.00  0.00    +0.000 A 
ATOM      4  C   UNL     1       2.349   5.024  20.378  0.00  0.00    +0.000 A 
ATOM      5  C   UNL     1       1.510   5.936  21.051  0.00  0.00    +0.000 A 
ATOM      6  C   UNL     1       1.649   7.177  20.440  0.00  0.00    +0.000 A 
ATOM      7  O   UNL     1       2.552   7.030  19.401  0.00  0.00    +0.000 OA
BRANCH   3  11
ATOM      8  C   UNL     1       7.278   6.809  17.137  0.00  0.00    +0.000 C 
ATOM      9  C   UNL     1       6.099   5.874  17.244  0.00  0.00    +0.000 A 
ATOM     10  C   UNL     1       5.146   6.091  18.260  0.00  0.00    +0.000 A 
ATOM     11  C   UNL     1       3.970   5.323  18.377  0.00  0.00    +0.000 A 
ATOM     12  C   UNL     1       3.812   4.284  17.453  0.00  0.00    +0.000 A 
ATOM     13  C   UNL     1       4.766   4.021  16.449  0.00  0.00    +0.000 A 
ATOM     14  C   UNL     1       5.912   4.824  16.329  0.00  0.00    +0.000 A 
ATOM     15  C   UNL     1       6.892   4.570  15.216  0.00  0.00    +0.000 C 
BRANCH  12  16
ATOM     16  N   UNL     1       2.602   3.488  17.421  0.00  0.00    +0.000 N 
ATOM     17  O   UNL     1       1.559   4.055  17.072  0.00  0.00    +0.000 OA
ATOM     18  O   UNL     1       2.720   2.278  17.662  0.00  0.00    +0.000 OA
ENDBRANCH  12  16
ENDBRANCH   3  11
ENDBRANCH   1   6
BRANCH   2  19
ATOM     19  C   UNL     1       0.312  10.711  20.429  0.00  0.00    +0.000 C 
ATOM     20  O   UNL     1       0.242  11.662  19.654  0.00  0.00    +0.000 OA
ATOM     21  N   UNL     1      -0.111  10.738  21.747  0.00  0.00    +0.000 N 
ATOM     22  H   UNL     1       0.128   9.964  22.356  0.00  0.00    +0.000 HD
BRANCH  21  23
ATOM     23  C   UNL     1      -0.778  11.832  22.360  0.00  0.00    +0.000 A 
ATOM     24  C   UNL     1      -0.276  13.137  22.342  0.00  0.00    +0.000 A 
ATOM     25  C   UNL     1      -0.960  14.185  22.962  0.00  0.00    +0.000 A 
ATOM     26  C   UNL     1      -2.170  13.948  23.616  0.00  0.00    +0.000 A 
ATOM     27  C   UNL     1      -2.698  12.651  23.625  0.00  0.00    +0.000 A 
ATOM     28  C   UNL     1      -2.005  11.601  22.994  0.00  0.00    +0.000 A 
BRANCH  26  29
ATOM     29  C   UNL     1      -2.864  15.119  24.215  0.00  0.00    +0.000 C 
ATOM     30  O   UNL     1      -2.748  16.249  23.770  0.00  0.00    +0.000 OA
BRANCH  29  31
ATOM     31  O   UNL     1      -3.598  14.833  25.303  0.00  0.00    +0.000 OA
ATOM     32  H   UNL     1      -3.221  15.128  26.152  0.00  0.00    +0.000 HD
ENDBRANCH  29  31
ENDBRANCH  26  29
ENDBRANCH  21  23
ENDBRANCH   2  19
BRANCH   2  33
ATOM     33  C   UNL     1       1.480   9.239  18.540  0.00  0.00    +0.000 C 
ATOM     34  N   UNL     1       1.940   9.064  17.379  0.00  0.00    +0.000 NA
ENDBRANCH   2  33
TORSDOF 8
ENDMDL
MODEL 6
REMARK VINA RESULT:      -7.7      2.285      3.277
REMARK  Name = 
REMARK  10 active torsions:
REMARK  status: ('A' for Active; 'I' for Inactive)
REMARK    1  A    between atoms: C_1  and  C_2
REMARK    2  A    between atoms: C_4  and  C_5
REMARK    3  A    between atoms: C_8  and  C_9
REMARK    4  A    between atoms: C_10  and  C_11
REMARK    5  A    between atoms: C_10  and  C_13
REMARK    6  A    between atoms: N_15  and  C_16
REMARK    7  A    between atoms: C_19  and  C_20
REMARK    8  A    between atoms: C_20  and  O_22
REMARK    9  A    between atoms: C_26  and  N_27
REMARK   10  A    between atoms: C_31  and  C_32
REMARK                            x       y       z     vdW  Elec       q    Type
REMARK                         _______ _______ _______ _____ _____    ______ ____
ROOT
ATOM      1  C   UNL     1      -0.092  11.027  18.602  0.00  0.00    +0.000 C 
ATOM      2  C   UNL     1       0.786  10.208  19.230  0.00  0.00    +0.000 C 
ENDROOT
BRANCH   1   6
ATOM      3  C   UNL     1      -2.400  12.882  20.671  0.00  0.00    +0.000 A 
ATOM      4  C   UNL     1      -1.652  13.934  20.191  0.00  0.00    +0.000 A 
ATOM      5  C   UNL     1      -0.677  13.381  19.336  0.00  0.00    +0.000 A 
ATOM      6  C   UNL     1      -0.863  12.003  19.310  0.00  0.00    +0.000 A 
ATOM      7  O   UNL     1      -1.941  11.713  20.128  0.00  0.00    +0.000 OA
BRANCH   3  11
ATOM      8  C   UNL     1      -7.336  12.676  21.144  0.00  0.00    +0.000 C 
ATOM      9  C   UNL     1      -5.997  12.762  21.831  0.00  0.00    +0.000 A 
ATOM     10  C   UNL     1      -4.824  12.681  21.052  0.00  0.00    +0.000 A 
ATOM     11  C   UNL     1      -3.535  12.840  21.598  0.00  0.00    +0.000 A 
ATOM     12  C   UNL     1      -3.466  13.036  22.982  0.00  0.00    +0.000 A 
ATOM     13  C   UNL     1      -4.620  13.085  23.792  0.00  0.00    +0.000 A 
ATOM     14  C   UNL     1      -5.895  12.961  23.218  0.00  0.00    +0.000 A 
ATOM     15  C   UNL     1      -7.121  13.075  24.085  0.00  0.00    +0.000 C 
BRANCH  12  16
ATOM     16  N   UNL     1      -2.203  13.302  23.640  0.00  0.00    +0.000 N 
ATOM     17  O   UNL     1      -2.100  14.369  24.259  0.00  0.00    +0.000 OA
ATOM     18  O   UNL     1      -1.352  12.402  23.605  0.00  0.00    +0.000 OA
ENDBRANCH  12  16
ENDBRANCH   3  11
ENDBRANCH   1   6
BRANCH   2  19
ATOM     19  C   UNL     1       1.590   9.277  18.399  0.00  0.00    +0.000 C 
ATOM     20  O   UNL     1       1.919   9.640  17.272  0.00  0.00    +0.000 OA
ATOM     21  N   UNL     1       1.889   8.039  18.945  0.00  0.00    +0.000 N 
ATOM     22  H   UNL     1       1.446   7.765  19.814  0.00  0.00    +0.000 HD
BRANCH  21  23
ATOM     23  C   UNL     1       2.702   7.056  18.322  0.00  0.00    +0.000 A 
ATOM     24  C   UNL     1       3.929   7.352  17.719  0.00  0.00    +0.000 A 
ATOM     25  C   UNL     1       4.697   6.356  17.111  0.00  0.00    +0.000 A 
ATOM     26  C   UNL     1       4.251   5.033  17.095  0.00  0.00    +0.000 A 
ATOM     27  C   UNL     1       3.035   4.716  17.713  0.00  0.00    +0.000 A 
ATOM     28  C   UNL     1       2.269   5.724  18.327  0.00  0.00    +0.000 A 
BRANCH  26  29
ATOM     29  C   UNL     1       5.141   4.020  16.470  0.00  0.00    +0.000 C 
ATOM     30  O   UNL     1       5.960   4.305  15.611  0.00  0.00    +0.000 OA
BRANCH  29  31
ATOM     31  O   UNL     1       4.944   2.764  16.904  0.00  0.00    +0.000 OA
ATOM     32  H   UNL     1       4.438   2.188  16.304  0.00  0.00    +0.000 HD
ENDBRANCH  29  31
ENDBRANCH  26  29
ENDBRANCH  21  23
ENDBRANCH   2  19
BRANCH   2  33
ATOM     33  C   UNL     1       0.879  10.328  20.742  0.00  0.00    +0.000 C 
ATOM     34  N   UNL     1       0.958  10.427  21.996  0.00  0.00    +0.000 NA
ENDBRANCH   2  33
TORSDOF 8
ENDMDL
MODEL 7
REMARK VINA RESULT:      -7.6      2.974      3.841
REMARK  Name = 
REMARK  10 active torsions:
REMARK  status: ('A' for Active; 'I' for Inactive)
REMARK    1  A    between atoms: C_1  and  C_2
REMARK    2  A    between atoms: C_4  and  C_5
REMARK    3  A    between atoms: C_8  and  C_9
REMARK    4  A    between atoms: C_10  and  C_11
REMARK    5  A    between atoms: C_10  and  C_13
REMARK    6  A    between atoms: N_15  and  C_16
REMARK    7  A    between atoms: C_19  and  C_20
REMARK    8  A    between atoms: C_20  and  O_22
REMARK    9  A    between atoms: C_26  and  N_27
REMARK   10  A    between atoms: C_31  and  C_32
REMARK                            x       y       z     vdW  Elec       q    Type
REMARK                         _______ _______ _______ _____ _____    ______ ____
ROOT
ATOM      1  C   UNL     1       0.473   9.767  19.295  0.00  0.00    +0.000 C 
ATOM      2  C   UNL     1       1.078   9.030  20.259  0.00  0.00    +0.000 C 
ENDROOT
BRANCH   1   6
ATOM      3  C   UNL     1      -1.841  12.356  20.291  0.00  0.00    +0.000 A 
ATOM      4  C   UNL     1      -0.784  13.151  19.906  0.00  0.00    +0.000 A 
ATOM      5  C   UNL     1       0.238  12.284  19.470  0.00  0.00    +0.000 A 
ATOM      6  C   UNL     1      -0.227  10.980  19.592  0.00  0.00    +0.000 A 
ATOM      7  O   UNL     1      -1.518  11.042  20.086  0.00  0.00    +0.000 OA
BRANCH   3  11
ATOM      8  C   UNL     1      -6.433  13.949  19.287  0.00  0.00    +0.000 C 
ATOM      9  C   UNL     1      -5.442  13.507  20.335  0.00  0.00    +0.000 A 
ATOM     10  C   UNL     1      -4.177  13.038  19.923  0.00  0.00    +0.000 A 
ATOM     11  C   UNL     1      -3.161  12.690  20.834  0.00  0.00    +0.000 A 
ATOM     12  C   UNL     1      -3.485  12.784  22.192  0.00  0.00    +0.000 A 
ATOM     13  C   UNL     1      -4.753  13.214  22.634  0.00  0.00    +0.000 A 
ATOM     14  C   UNL     1      -5.737  13.591  21.706  0.00  0.00    +0.000 A 
ATOM     15  C   UNL     1      -7.066  14.106  22.191  0.00  0.00    +0.000 C 
BRANCH  12  16
ATOM     16  N   UNL     1      -2.492  12.539  23.218  0.00  0.00    +0.000 N 
ATOM     17  O   UNL     1      -2.264  11.360  23.516  0.00  0.00    +0.000 OA
ATOM     18  O   UNL     1      -1.886  13.525  23.660  0.00  0.00    +0.000 OA
ENDBRANCH  12  16
ENDBRANCH   3  11
ENDBRANCH   1   6
BRANCH   2  19
ATOM     19  C   UNL     1       1.840   7.826  19.843  0.00  0.00    +0.000 C 
ATOM     20  O   UNL     1       2.515   7.891  18.818  0.00  0.00    +0.000 OA
ATOM     21  N   UNL     1       1.709   6.692  20.627  0.00  0.00    +0.000 N 
ATOM     22  H   UNL     1       1.010   6.680  21.362  0.00  0.00    +0.000 HD
BRANCH  21  23
ATOM     23  C   UNL     1       2.414   5.478  20.418  0.00  0.00    +0.000 A 
ATOM     24  C   UNL     1       3.540   5.383  19.593  0.00  0.00    +0.000 A 
ATOM     25  C   UNL     1       4.203   4.168  19.408  0.00  0.00    +0.000 A 
ATOM     26  C   UNL     1       3.752   3.014  20.050  0.00  0.00    +0.000 A 
ATOM     27  C   UNL     1       2.639   3.095  20.897  0.00  0.00    +0.000 A 
ATOM     28  C   UNL     1       1.979   4.324  21.082  0.00  0.00    +0.000 A 
BRANCH  26  29
ATOM     29  C   UNL     1       4.533   1.766  19.842  0.00  0.00    +0.000 C 
ATOM     30  O   UNL     1       5.370   1.374  20.639  0.00  0.00    +0.000 OA
BRANCH  29  31
ATOM     31  O   UNL     1       4.267   1.129  18.690  0.00  0.00    +0.000 OA
ATOM     32  H   UNL     1       5.002   1.091  18.052  0.00  0.00    +0.000 HD
ENDBRANCH  29  31
ENDBRANCH  26  29
ENDBRANCH  21  23
ENDBRANCH   2  19
BRANCH   2  33
ATOM     33  C   UNL     1       0.932   9.516  21.691  0.00  0.00    +0.000 C 
ATOM     34  N   UNL     1       0.811   9.919  22.880  0.00  0.00    +0.000 NA
ENDBRANCH   2  33
TORSDOF 8
ENDMDL
MODEL 8
REMARK VINA RESULT:      -7.6      2.345     11.004
REMARK  Name = 
REMARK  10 active torsions:
REMARK  status: ('A' for Active; 'I' for Inactive)
REMARK    1  A    between atoms: C_1  and  C_2
REMARK    2  A    between atoms: C_4  and  C_5
REMARK    3  A    between atoms: C_8  and  C_9
REMARK    4  A    between atoms: C_10  and  C_11
REMARK    5  A    between atoms: C_10  and  C_13
REMARK    6  A    between atoms: N_15  and  C_16
REMARK    7  A    between atoms: C_19  and  C_20
REMARK    8  A    between atoms: C_20  and  O_22
REMARK    9  A    between atoms: C_26  and  N_27
REMARK   10  A    between atoms: C_31  and  C_32
REMARK                            x       y       z     vdW  Elec       q    Type
REMARK                         _______ _______ _______ _____ _____    ______ ____
ROOT
ATOM      1  C   UNL     1       0.851  10.382  19.813  0.00  0.00    +0.000 C 
ATOM      2  C   UNL     1      -0.351  10.860  19.410  0.00  0.00    +0.000 C 
ENDROOT
BRANCH   1   6
ATOM      3  C   UNL     1       2.495   7.390  18.632  0.00  0.00    +0.000 A 
ATOM      4  C   UNL     1       2.572   8.143  17.481  0.00  0.00    +0.000 A 
ATOM      5  C   UNL     1       1.966   9.384  17.768  0.00  0.00    +0.000 A 
ATOM      6  C   UNL     1       1.543   9.357  19.092  0.00  0.00    +0.000 A 
ATOM      7  O   UNL     1       1.891   8.124  19.615  0.00  0.00    +0.000 OA
BRANCH   3  11
ATOM      8  C   UNL     1       1.898   3.390  21.509  0.00  0.00    +0.000 C 
ATOM      9  C   UNL     1       2.659   4.042  20.382  0.00  0.00    +0.000 A 
ATOM     10  C   UNL     1       2.239   5.306  19.916  0.00  0.00    +0.000 A 
ATOM     11  C   UNL     1       2.943   6.026  18.931  0.00  0.00    +0.000 A 
ATOM     12  C   UNL     1       4.070   5.399  18.389  0.00  0.00    +0.000 A 
ATOM     13  C   UNL     1       4.493   4.121  18.808  0.00  0.00    +0.000 A 
ATOM     14  C   UNL     1       3.796   3.439  19.818  0.00  0.00    +0.000 A 
ATOM     15  C   UNL     1       4.294   2.102  20.300  0.00  0.00    +0.000 C 
BRANCH  12  16
ATOM     16  N   UNL     1       4.922   6.081  17.436  0.00  0.00    +0.000 N 
ATOM     17  O   UNL     1       5.839   6.776  17.891  0.00  0.00    +0.000 OA
ATOM     18  O   UNL     1       4.720   5.849  16.235  0.00  0.00    +0.000 OA
ENDBRANCH  12  16
ENDBRANCH   3  11
ENDBRANCH   1   6
BRANCH   2  19
ATOM     19  C   UNL     1      -0.956  11.973  20.185  0.00  0.00    +0.000 C 
ATOM     20  O   UNL     1      -1.637  12.798  19.581  0.00  0.00    +0.000 OA
ATOM     21  N   UNL     1      -0.681  12.022  21.541  0.00  0.00    +0.000 N 
ATOM     22  H   UNL     1       0.015  11.393  21.925  0.00  0.00    +0.000 HD
BRANCH  21  23
ATOM     23  C   UNL     1      -1.228  12.973  22.443  0.00  0.00    +0.000 A 
ATOM     24  C   UNL     1      -0.577  14.163  22.782  0.00  0.00    +0.000 A 
ATOM     25  C   UNL     1      -1.146  15.070  23.678  0.00  0.00    +0.000 A 
ATOM     26  C   UNL     1      -2.388  14.805  24.258  0.00  0.00    +0.000 A 
ATOM     27  C   UNL     1      -3.064  13.628  23.912  0.00  0.00    +0.000 A 
ATOM     28  C   UNL     1      -2.486  12.720  23.004  0.00  0.00    +0.000 A 
BRANCH  26  29
ATOM     29  C   UNL     1      -2.952  15.836  25.167  0.00  0.00    +0.000 C 
ATOM     30  O   UNL     1      -2.251  16.566  25.848  0.00  0.00    +0.000 OA
BRANCH  29  31
ATOM     31  O   UNL     1      -4.295  15.872  25.202  0.00  0.00    +0.000 OA
ATOM     32  H   UNL     1      -4.745  15.339  24.522  0.00  0.00    +0.000 HD
ENDBRANCH  29  31
ENDBRANCH  26  29
ENDBRANCH  21  23
ENDBRANCH   2  19
BRANCH   2  33
ATOM     33  C   UNL     1      -0.971  10.218  18.180  0.00  0.00    +0.000 C 
ATOM     34  N   UNL     1      -1.485   9.686  17.159  0.00  0.00    +0.000 NA
ENDBRANCH   2  33
TORSDOF 8
ENDMDL
MODEL 9
REMARK VINA RESULT:      -7.6      2.941      3.967
REMARK  Name = 
REMARK  10 active torsions:
REMARK  status: ('A' for Active; 'I' for Inactive)
REMARK    1  A    between atoms: C_1  and  C_2
REMARK    2  A    between atoms: C_4  and  C_5
REMARK    3  A    between atoms: C_8  and  C_9
REMARK    4  A    between atoms: C_10  and  C_11
REMARK    5  A    between atoms: C_10  and  C_13
REMARK    6  A    between atoms: N_15  and  C_16
REMARK    7  A    between atoms: C_19  and  C_20
REMARK    8  A    between atoms: C_20  and  O_22
REMARK    9  A    between atoms: C_26  and  N_27
REMARK   10  A    between atoms: C_31  and  C_32
REMARK                            x       y       z     vdW  Elec       q    Type
REMARK                         _______ _______ _______ _____ _____    ______ ____
ROOT
ATOM      1  C   UNL     1       0.617   9.756  18.580  0.00  0.00    +0.000 C 
ATOM      2  C   UNL     1       1.218   9.111  19.609  0.00  0.00    +0.000 C 
ENDROOT
BRANCH   1   6
ATOM      3  C   UNL     1      -2.059  12.071  19.310  0.00  0.00    +0.000 A 
ATOM      4  C   UNL     1      -1.070  12.979  19.001  0.00  0.00    +0.000 A 
ATOM      5  C   UNL     1       0.080  12.231  18.675  0.00  0.00    +0.000 A 
ATOM      6  C   UNL     1      -0.242  10.883  18.786  0.00  0.00    +0.000 A 
ATOM      7  O   UNL     1      -1.571  10.801  19.164  0.00  0.00    +0.000 OA
BRANCH   3  11
ATOM      8  C   UNL     1      -5.120  13.405  22.982  0.00  0.00    +0.000 C 
ATOM      9  C   UNL     1      -4.976  12.900  21.568  0.00  0.00    +0.000 A 
ATOM     10  C   UNL     1      -3.686  12.801  21.007  0.00  0.00    +0.000 A 
ATOM     11  C   UNL     1      -3.452  12.257  19.729  0.00  0.00    +0.000 A 
ATOM     12  C   UNL     1      -4.581  11.858  19.006  0.00  0.00    +0.000 A 
ATOM     13  C   UNL     1      -5.887  11.979  19.527  0.00  0.00    +0.000 A 
ATOM     14  C   UNL     1      -6.091  12.489  20.819  0.00  0.00    +0.000 A 
ATOM     15  C   UNL     1      -7.484  12.556  21.386  0.00  0.00    +0.000 C 
BRANCH  12  16
ATOM     16  N   UNL     1      -4.457  11.203  17.721  0.00  0.00    +0.000 N 
ATOM     17  O   UNL     1      -4.499  11.919  16.712  0.00  0.00    +0.000 OA
ATOM     18  O   UNL     1      -4.230   9.984  17.731  0.00  0.00    +0.000 OA
ENDBRANCH  12  16
ENDBRANCH   3  11
ENDBRANCH   1   6
BRANCH   2  19
ATOM     19  C   UNL     1       2.146   7.998  19.289  0.00  0.00    +0.000 C 
ATOM     20  O   UNL     1       2.221   7.058  20.078  0.00  0.00    +0.000 OA
ATOM     21  N   UNL     1       2.895   8.111  18.129  0.00  0.00    +0.000 N 
ATOM     22  H   UNL     1       2.885   8.989  17.622  0.00  0.00    +0.000 HD
BRANCH  21  23
ATOM     23  C   UNL     1       3.778   7.115  17.635  0.00  0.00    +0.000 A 
ATOM     24  C   UNL     1       3.434   5.761  17.561  0.00  0.00    +0.000 A 
ATOM     25  C   UNL     1       4.334   4.811  17.074  0.00  0.00    +0.000 A 
ATOM     26  C   UNL     1       5.605   5.197  16.646  0.00  0.00    +0.000 A 
ATOM     27  C   UNL     1       5.957   6.552  16.692  0.00  0.00    +0.000 A 
ATOM     28  C   UNL     1       5.044   7.504  17.180  0.00  0.00    +0.000 A 
BRANCH  26  29
ATOM     29  C   UNL     1       6.492   4.138  16.098  0.00  0.00    +0.000 C 
ATOM     30  O   UNL     1       6.132   3.365  15.226  0.00  0.00    +0.000 OA
BRANCH  29  31
ATOM     31  O   UNL     1       7.708   4.082  16.668  0.00  0.00    +0.000 OA
ATOM     32  H   UNL     1       7.870   3.307  17.235  0.00  0.00    +0.000 HD
ENDBRANCH  29  31
ENDBRANCH  26  29
ENDBRANCH  21  23
ENDBRANCH   2  19
BRANCH   2  33
ATOM     33  C   UNL     1       0.896   9.599  21.011  0.00  0.00    +0.000 C 
ATOM     34  N   UNL     1       0.629  10.004  22.175  0.00  0.00    +0.000 NA
ENDBRANCH   2  33
TORSDOF 8
ENDMDL
