MODEL 1
REMARK VINA RESULT:      -8.4      0.000      0.000
REMARK  Name = 
REMARK  10 active torsions:
REMARK  status: ('A' for Active; 'I' for Inactive)
REMARK    1  A    between atoms: C_1  and  O_2
REMARK    2  A    between atoms: O_2  and  C_3
REMARK    3  A    between atoms: C_3  and  C_5
REMARK    4  A    between atoms: C_7  and  N_8
REMARK    5  A    between atoms: C_9  and  C_11
REMARK    6  A    between atoms: C_21  and  C_22
REMARK    7  A    between atoms: C_23  and  N_24
REMARK    8  A    between atoms: N_24  and  C_25
REMARK    9  A    between atoms: C_27  and  C_28
REMARK   10  A    between atoms: C_30  and  C_31
REMARK                            x       y       z     vdW  Elec       q    Type
REMARK                         _______ _______ _______ _____ _____    ______ ____
ROOT
ATOM      1  C   UNL     1       2.641   5.426  19.416  0.00  0.00    +0.000 A 
ATOM      2  C   UNL     1       1.884   6.529  19.978  0.00  0.00    +0.000 A 
ATOM      3  C   UNL     1       1.800   7.744  19.427  0.00  0.00    +0.000 A 
ATOM      4  C   UNL     1       2.524   7.979  18.147  0.00  0.00    +0.000 A 
ATOM      5  O   UNL     1       2.513   9.090  17.622  0.00  0.00    +0.000 OA
ATOM      6  O   UNL     1       3.169   6.908  17.597  0.00  0.00    +0.000 OA
ATOM      7  C   UNL     1       3.248   5.625  18.232  0.00  0.00    +0.000 A 
ENDROOT
BRANCH   3   8
ATOM      8  N   UNL     1       1.096   8.816  19.969  0.00  0.00    +0.000 N 
ATOM      9  C   UNL     1       1.077   9.191  21.303  0.00  0.00    +0.000 C 
ATOM     10  O   UNL     1       1.656   8.607  22.211  0.00  0.00    +0.000 OA
ATOM     11  H   UNL     1       0.597   9.379  19.282  0.00  0.00    +0.000 HD
BRANCH   9  12
ATOM     12  C   UNL     1       0.321  10.408  21.685  0.00  0.00    +0.000 A 
ATOM     13  C   UNL     1      -0.668  10.425  22.672  0.00  0.00    +0.000 A 
ATOM     14  C   UNL     1      -1.279  11.636  23.017  0.00  0.00    +0.000 A 
ATOM     15  C   UNL     1      -0.901  12.823  22.384  0.00  0.00    +0.000 A 
ATOM     16  C   UNL     1       0.089  12.805  21.406  0.00  0.00    +0.000 A 
ATOM     17 CL   UNL     1       0.572  14.265  20.637  0.00  0.00    +0.000 Cl
ATOM     18  C   UNL     1       0.700  11.607  21.056  0.00  0.00    +0.000 A 
ENDBRANCH   9  12
ENDBRANCH   3   8
BRANCH   1  19
ATOM     19  C   UNL     1       2.726   4.144  20.188  0.00  0.00    +0.000 C 
ATOM     20  O   UNL     1       3.687   3.390  20.204  0.00  0.00    +0.000 OA
BRANCH  19  22
ATOM     21  C   UNL     1       1.541   2.806  21.731  0.00  0.00    +0.000 C 
ATOM     22  O   UNL     1       1.581   3.960  20.894  0.00  0.00    +0.000 OA
ENDBRANCH  19  22
ENDBRANCH   1  19
BRANCH   7  23
ATOM     23  C   UNL     1       4.013   4.649  17.466  0.00  0.00    +0.000 C 
ATOM     24  C   UNL     1       5.235   4.878  16.969  0.00  0.00    +0.000 C 
BRANCH  24  25
ATOM     25  N   UNL     1       6.020   4.049  16.211  0.00  0.00    +0.000 N 
ATOM     26  H   UNL     1       6.385   3.213  16.654  0.00  0.00    +0.000 HD
BRANCH  25  27
ATOM     27  C   UNL     1       6.273   4.202  14.834  0.00  0.00    +0.000 A 
ATOM     28  C   UNL     1       5.606   3.426  13.875  0.00  0.00    +0.000 A 
ATOM     29  C   UNL     1       5.963   3.455  12.524  0.00  0.00    +0.000 A 
ATOM     30  C   UNL     1       5.253   2.581  11.536  0.00  0.00    +0.000 C 
ATOM     31  C   UNL     1       7.002   4.296  12.117  0.00  0.00    +0.000 A 
ATOM     32  C   UNL     1       7.673   5.101  13.046  0.00  0.00    +0.000 A 
ATOM     33  C   UNL     1       8.800   5.990  12.612  0.00  0.00    +0.000 C 
ATOM     34  C   UNL     1       7.302   5.046  14.401  0.00  0.00    +0.000 A 
ENDBRANCH  25  27
ENDBRANCH  24  25
ENDBRANCH   7  23
TORSDOF 7
ENDMDL
MODEL 2
REMARK VINA RESULT:      -8.3      3.971      6.726
REMARK  Name = 
REMARK  10 active torsions:
REMARK  status: ('A' for Active; 'I' for Inactive)
REMARK    1  A    between atoms: C_1  and  O_2
REMARK    2  A    between atoms: O_2  and  C_3
REMARK    3  A    between atoms: C_3  and  C_5
REMARK    4  A    between atoms: C_7  and  N_8
REMARK    5  A    between atoms: C_9  and  C_11
REMARK    6  A    between atoms: C_21  and  C_22
REMARK    7  A    between atoms: C_23  and  N_24
REMARK    8  A    between atoms: N_24  and  C_25
REMARK    9  A    between atoms: C_27  and  C_28
REMARK   10  A    between atoms: C_30  and  C_31
REMARK                            x       y       z     vdW  Elec       q    Type
REMARK                         _______ _______ _______ _____ _____    ______ ____
ROOT
ATOM      1  C   UNL     1      -1.549  10.942  18.629  0.00  0.00    +0.000 A 
ATOM      2  C   UNL     1      -2.095  11.956  19.511  0.00  0.00    +0.000 A 
ATOM      3  C   UNL     1      -1.436  12.490  20.546  0.00  0.00    +0.000 A 
ATOM      4  C   UNL     1      -0.048  12.018  20.805  0.00  0.00    +0.000 A 
ATOM      5  O   UNL     1       0.584  12.445  21.768  0.00  0.00    +0.000 OA
ATOM      6  O   UNL     1       0.473  11.117  19.920  0.00  0.00    +0.000 OA
ATOM      7  C   UNL     1      -0.275  10.557  18.832  0.00  0.00    +0.000 A 
ENDROOT
BRANCH   3   8
ATOM      8  N   UNL     1      -1.958  13.446  21.412  0.00  0.00    +0.000 N 
ATOM      9  C   UNL     1      -2.638  13.196  22.594  0.00  0.00    +0.000 C 
ATOM     10  O   UNL     1      -2.909  12.084  23.033  0.00  0.00    +0.000 OA
ATOM     11  H   UNL     1      -1.762  14.408  21.140  0.00  0.00    +0.000 HD
BRANCH   9  12
ATOM     12  C   UNL     1      -3.060  14.348  23.425  0.00  0.00    +0.000 A 
ATOM     13  C   UNL     1      -4.331  14.927  23.354  0.00  0.00    +0.000 A 
ATOM     14  C   UNL     1      -4.666  15.966  24.228  0.00  0.00    +0.000 A 
ATOM     15  C   UNL     1      -3.741  16.423  25.171  0.00  0.00    +0.000 A 
ATOM     16  C   UNL     1      -2.479  15.841  25.244  0.00  0.00    +0.000 A 
ATOM     17 CL   UNL     1      -1.343  16.385  26.414  0.00  0.00    +0.000 Cl
ATOM     18  C   UNL     1      -2.136  14.809  24.379  0.00  0.00    +0.000 A 
ENDBRANCH   9  12
ENDBRANCH   3   8
BRANCH   1  19
ATOM     19  C   UNL     1      -2.432  10.363  17.565  0.00  0.00    +0.000 C 
ATOM     20  O   UNL     1      -3.172   9.401  17.705  0.00  0.00    +0.000 OA
BRANCH  19  22
ATOM     21  C   UNL     1      -2.862  10.505  15.248  0.00  0.00    +0.000 C 
ATOM     22  O   UNL     1      -2.307  11.089  16.424  0.00  0.00    +0.000 OA
ENDBRANCH  19  22
ENDBRANCH   1  19
BRANCH   7  23
ATOM     23  C   UNL     1       0.485   9.598  18.042  0.00  0.00    +0.000 C 
ATOM     24  C   UNL     1       1.737   9.220  18.326  0.00  0.00    +0.000 C 
BRANCH  24  25
ATOM     25  N   UNL     1       2.550   8.358  17.634  0.00  0.00    +0.000 N 
ATOM     26  H   UNL     1       2.903   8.668  16.734  0.00  0.00    +0.000 HD
BRANCH  25  27
ATOM     27  C   UNL     1       3.026   7.124  18.115  0.00  0.00    +0.000 A 
ATOM     28  C   UNL     1       2.405   6.467  19.187  0.00  0.00    +0.000 A 
ATOM     29  C   UNL     1       2.961   5.327  19.775  0.00  0.00    +0.000 A 
ATOM     30  C   UNL     1       2.289   4.676  20.946  0.00  0.00    +0.000 C 
ATOM     31  C   UNL     1       4.160   4.821  19.268  0.00  0.00    +0.000 A 
ATOM     32  C   UNL     1       4.793   5.441  18.183  0.00  0.00    +0.000 A 
ATOM     33  C   UNL     1       6.090   4.907  17.649  0.00  0.00    +0.000 C 
ATOM     34  C   UNL     1       4.220   6.591  17.615  0.00  0.00    +0.000 A 
ENDBRANCH  25  27
ENDBRANCH  24  25
ENDBRANCH   7  23
TORSDOF 7
ENDMDL
MODEL 3
REMARK VINA RESULT:      -8.2      0.958      1.986
REMARK  Name = 
REMARK  10 active torsions:
REMARK  status: ('A' for Active; 'I' for Inactive)
REMARK    1  A    between atoms: C_1  and  O_2
REMARK    2  A    between atoms: O_2  and  C_3
REMARK    3  A    between atoms: C_3  and  C_5
REMARK    4  A    between atoms: C_7  and  N_8
REMARK    5  A    between atoms: C_9  and  C_11
REMARK    6  A    between atoms: C_21  and  C_22
REMARK    7  A    between atoms: C_23  and  N_24
REMARK    8  A    between atoms: N_24  and  C_25
REMARK    9  A    between atoms: C_27  and  C_28
REMARK   10  A    between atoms: C_30  and  C_31
REMARK                            x       y       z     vdW  Elec       q    Type
REMARK                         _______ _______ _______ _____ _____    ______ ____
ROOT
ATOM      1  C   UNL     1       2.642   5.575  19.366  0.00  0.00    +0.000 A 
ATOM      2  C   UNL     1       1.958   6.744  19.885  0.00  0.00    +0.000 A 
ATOM      3  C   UNL     1       1.936   7.937  19.280  0.00  0.00    +0.000 A 
ATOM      4  C   UNL     1       2.657   8.072  17.984  0.00  0.00    +0.000 A 
ATOM      5  O   UNL     1       2.704   9.157  17.409  0.00  0.00    +0.000 OA
ATOM      6  O   UNL     1       3.233   6.942  17.477  0.00  0.00    +0.000 OA
ATOM      7  C   UNL     1       3.246   5.686  18.168  0.00  0.00    +0.000 A 
ENDROOT
BRANCH   3   8
ATOM      8  N   UNL     1       1.302   9.071  19.780  0.00  0.00    +0.000 N 
ATOM      9  C   UNL     1       1.096   9.370  21.118  0.00  0.00    +0.000 C 
ATOM     10  O   UNL     1       1.416   8.655  22.061  0.00  0.00    +0.000 OA
ATOM     11  H   UNL     1       1.018   9.739  19.066  0.00  0.00    +0.000 HD
BRANCH   9  12
ATOM     12  C   UNL     1       0.460  10.663  21.463  0.00  0.00    +0.000 A 
ATOM     13  C   UNL     1       0.882  11.893  20.949  0.00  0.00    +0.000 A 
ATOM     14  C   UNL     1       0.175  13.056  21.275  0.00  0.00    +0.000 A 
ATOM     15  C   UNL     1      -0.948  12.992  22.104  0.00  0.00    +0.000 A 
ATOM     16  C   UNL     1      -1.370  11.766  22.610  0.00  0.00    +0.000 A 
ATOM     17 CL   UNL     1      -2.762  11.677  23.615  0.00  0.00    +0.000 Cl
ATOM     18  C   UNL     1      -0.674  10.606  22.293  0.00  0.00    +0.000 A 
ENDBRANCH   9  12
ENDBRANCH   3   8
BRANCH   1  19
ATOM     19  C   UNL     1       2.663   4.326  20.194  0.00  0.00    +0.000 C 
ATOM     20  O   UNL     1       3.656   3.660  20.446  0.00  0.00    +0.000 OA
BRANCH  19  22
ATOM     21  C   UNL     1       1.287   2.928  21.508  0.00  0.00    +0.000 C 
ATOM     22  O   UNL     1       1.412   4.060  20.649  0.00  0.00    +0.000 OA
ENDBRANCH  19  22
ENDBRANCH   1  19
BRANCH   7  23
ATOM     23  C   UNL     1       3.944   4.634  17.440  0.00  0.00    +0.000 C 
ATOM     24  C   UNL     1       5.201   4.741  16.993  0.00  0.00    +0.000 C 
BRANCH  24  25
ATOM     25  N   UNL     1       5.934   3.833  16.272  0.00  0.00    +0.000 N 
ATOM     26  H   UNL     1       6.185   2.964  16.730  0.00  0.00    +0.000 HD
BRANCH  25  27
ATOM     27  C   UNL     1       6.272   3.957  14.911  0.00  0.00    +0.000 A 
ATOM     28  C   UNL     1       7.329   4.777  14.490  0.00  0.00    +0.000 A 
ATOM     29  C   UNL     1       7.570   5.033  13.137  0.00  0.00    +0.000 A 
ATOM     30  C   UNL     1       8.685   5.948  12.728  0.00  0.00    +0.000 C 
ATOM     31  C   UNL     1       6.745   4.441  12.179  0.00  0.00    +0.000 A 
ATOM     32  C   UNL     1       5.695   3.599  12.566  0.00  0.00    +0.000 A 
ATOM     33  C   UNL     1       4.797   2.976  11.537  0.00  0.00    +0.000 C 
ATOM     34  C   UNL     1       5.466   3.365  13.932  0.00  0.00    +0.000 A 
ENDBRANCH  25  27
ENDBRANCH  24  25
ENDBRANCH   7  23
TORSDOF 7
ENDMDL
MODEL 4
REMARK VINA RESULT:      -8.2      3.061     10.139
REMARK  Name = 
REMARK  10 active torsions:
REMARK  status: ('A' for Active; 'I' for Inactive)
REMARK    1  A    between atoms: C_1  and  O_2
REMARK    2  A    between atoms: O_2  and  C_3
REMARK    3  A    between atoms: C_3  and  C_5
REMARK    4  A    between atoms: C_7  and  N_8
REMARK    5  A    between atoms: C_9  and  C_11
REMARK    6  A    between atoms: C_21  and  C_22
REMARK    7  A    between atoms: C_23  and  N_24
REMARK    8  A    between atoms: N_24  and  C_25
REMARK    9  A    between atoms: C_27  and  C_28
REMARK   10  A    between atoms: C_30  and  C_31
REMARK                            x       y       z     vdW  Elec       q    Type
REMARK                         _______ _______ _______ _____ _____    ______ ____
ROOT
ATOM      1  C   UNL     1       2.441   5.407  19.593  0.00  0.00    +0.000 A 
ATOM      2  C   UNL     1       3.268   5.140  18.431  0.00  0.00    +0.000 A 
ATOM      3  C   UNL     1       3.691   6.077  17.575  0.00  0.00    +0.000 A 
ATOM      4  C   UNL     1       3.294   7.488  17.836  0.00  0.00    +0.000 A 
ATOM      5  O   UNL     1       3.621   8.381  17.057  0.00  0.00    +0.000 OA
ATOM      6  O   UNL     1       2.577   7.727  18.974  0.00  0.00    +0.000 OA
ATOM      7  C   UNL     1       2.129   6.689  19.856  0.00  0.00    +0.000 A 
ENDROOT
BRANCH   3   8
ATOM      8  N   UNL     1       4.466   5.830  16.445  0.00  0.00    +0.000 N 
ATOM      9  C   UNL     1       5.058   4.623  16.106  0.00  0.00    +0.000 C 
ATOM     10  O   UNL     1       5.011   3.599  16.778  0.00  0.00    +0.000 OA
ATOM     11  H   UNL     1       4.545   6.623  15.811  0.00  0.00    +0.000 HD
BRANCH   9  12
ATOM     12  C   UNL     1       5.792   4.532  14.823  0.00  0.00    +0.000 A 
ATOM     13  C   UNL     1       7.018   5.162  14.586  0.00  0.00    +0.000 A 
ATOM     14  C   UNL     1       7.675   4.960  13.368  0.00  0.00    +0.000 A 
ATOM     15  C   UNL     1       7.115   4.130  12.392  0.00  0.00    +0.000 A 
ATOM     16  C   UNL     1       5.898   3.499  12.632  0.00  0.00    +0.000 A 
ATOM     17 CL   UNL     1       5.213   2.462  11.444  0.00  0.00    +0.000 Cl
ATOM     18  C   UNL     1       5.238   3.695  13.838  0.00  0.00    +0.000 A 
ENDBRANCH   9  12
ENDBRANCH   3   8
BRANCH   1  19
ATOM     19  C   UNL     1       1.961   4.249  20.415  0.00  0.00    +0.000 C 
ATOM     20  O   UNL     1       2.508   3.818  21.418  0.00  0.00    +0.000 OA
BRANCH  19  22
ATOM     21  C   UNL     1       0.893   2.499  19.244  0.00  0.00    +0.000 C 
ATOM     22  O   UNL     1       0.805   3.767  19.891  0.00  0.00    +0.000 OA
ENDBRANCH  19  22
ENDBRANCH   1  19
BRANCH   7  23
ATOM     23  C   UNL     1       1.359   7.186  20.988  0.00  0.00    +0.000 C 
ATOM     24  C   UNL     1       1.041   8.474  21.170  0.00  0.00    +0.000 C 
BRANCH  24  25
ATOM     25  N   UNL     1       0.357   9.049  22.210  0.00  0.00    +0.000 N 
ATOM     26  H   UNL     1       0.276   8.516  23.070  0.00  0.00    +0.000 HD
BRANCH  25  27
ATOM     27  C   UNL     1      -0.147  10.363  22.226  0.00  0.00    +0.000 A 
ATOM     28  C   UNL     1      -1.258  10.714  23.006  0.00  0.00    +0.000 A 
ATOM     29  C   UNL     1      -1.863  11.970  22.907  0.00  0.00    +0.000 A 
ATOM     30  C   UNL     1      -3.074  12.293  23.728  0.00  0.00    +0.000 C 
ATOM     31  C   UNL     1      -1.333  12.907  22.017  0.00  0.00    +0.000 A 
ATOM     32  C   UNL     1      -0.210  12.597  21.240  0.00  0.00    +0.000 A 
ATOM     33  C   UNL     1       0.349  13.597  20.272  0.00  0.00    +0.000 C 
ATOM     34  C   UNL     1       0.375  11.324  21.351  0.00  0.00    +0.000 A 
ENDBRANCH  25  27
ENDBRANCH  24  25
ENDBRANCH   7  23
TORSDOF 7
ENDMDL
MODEL 5
REMARK VINA RESULT:      -8.1      4.040      6.495
REMARK  Name = 
REMARK  10 active torsions:
REMARK  status: ('A' for Active; 'I' for Inactive)
REMARK    1  A    between atoms: C_1  and  O_2
REMARK    2  A    between atoms: O_2  and  C_3
REMARK    3  A    between atoms: C_3  and  C_5
REMARK    4  A    between atoms: C_7  and  N_8
REMARK    5  A    between atoms: C_9  and  C_11
REMARK    6  A    between atoms: C_21  and  C_22
REMARK    7  A    between atoms: C_23  and  N_24
REMARK    8  A    between atoms: N_24  and  C_25
REMARK    9  A    between atoms: C_27  and  C_28
REMARK   10  A    between atoms: C_30  and  C_31
REMARK                            x       y       z     vdW  Elec       q    Type
REMARK                         _______ _______ _______ _____ _____    ______ ____
ROOT
ATOM      1  C   UNL     1      -1.376  10.692  18.591  0.00  0.00    +0.000 A 
ATOM      2  C   UNL     1      -1.919  11.694  19.489  0.00  0.00    +0.000 A 
ATOM      3  C   UNL     1      -1.234  12.263  20.487  0.00  0.00    +0.000 A 
ATOM      4  C   UNL     1       0.182  11.847  20.685  0.00  0.00    +0.000 A 
ATOM      5  O   UNL     1       0.842  12.308  21.613  0.00  0.00    +0.000 OA
ATOM      6  O   UNL     1       0.696  10.957  19.784  0.00  0.00    +0.000 OA
ATOM      7  C   UNL     1      -0.081  10.358  18.738  0.00  0.00    +0.000 A 
ENDROOT
BRANCH   3   8
ATOM      8  N   UNL     1      -1.751  13.208  21.369  0.00  0.00    +0.000 N 
ATOM      9  C   UNL     1      -2.344  12.946  22.594  0.00  0.00    +0.000 C 
ATOM     10  O   UNL     1      -2.531  11.830  23.065  0.00  0.00    +0.000 OA
ATOM     11  H   UNL     1      -1.621  14.173  21.070  0.00  0.00    +0.000 HD
BRANCH   9  12
ATOM     12  C   UNL     1      -2.775  14.091  23.431  0.00  0.00    +0.000 A 
ATOM     13  C   UNL     1      -4.048  14.663  23.360  0.00  0.00    +0.000 A 
ATOM     14  C   UNL     1      -4.391  15.695  24.241  0.00  0.00    +0.000 A 
ATOM     15  C   UNL     1      -3.471  16.150  25.189  0.00  0.00    +0.000 A 
ATOM     16  C   UNL     1      -2.205  15.575  25.261  0.00  0.00    +0.000 A 
ATOM     17 CL   UNL     1      -1.075  16.117  26.437  0.00  0.00    +0.000 Cl
ATOM     18  C   UNL     1      -1.856  14.550  24.390  0.00  0.00    +0.000 A 
ENDBRANCH   9  12
ENDBRANCH   3   8
BRANCH   1  19
ATOM     19  C   UNL     1      -2.285  10.069  17.574  0.00  0.00    +0.000 C 
ATOM     20  O   UNL     1      -3.197   9.294  17.821  0.00  0.00    +0.000 OA
BRANCH  19  22
ATOM     21  C   UNL     1      -3.055  10.843  15.481  0.00  0.00    +0.000 C 
ATOM     22  O   UNL     1      -1.960  10.520  16.336  0.00  0.00    +0.000 OA
ENDBRANCH  19  22
ENDBRANCH   1  19
BRANCH   7  23
ATOM     23  C   UNL     1       0.678   9.420  17.921  0.00  0.00    +0.000 C 
ATOM     24  C   UNL     1       1.936   9.045  18.185  0.00  0.00    +0.000 C 
BRANCH  24  25
ATOM     25  N   UNL     1       2.747   8.204  17.467  0.00  0.00    +0.000 N 
ATOM     26  H   UNL     1       3.191   8.577  16.635  0.00  0.00    +0.000 HD
BRANCH  25  27
ATOM     27  C   UNL     1       3.105   6.897  17.849  0.00  0.00    +0.000 A 
ATOM     28  C   UNL     1       4.440   6.469  17.838  0.00  0.00    +0.000 A 
ATOM     29  C   UNL     1       4.789   5.133  18.058  0.00  0.00    +0.000 A 
ATOM     30  C   UNL     1       6.224   4.707  17.998  0.00  0.00    +0.000 C 
ATOM     31  C   UNL     1       3.778   4.204  18.314  0.00  0.00    +0.000 A 
ATOM     32  C   UNL     1       2.436   4.603  18.354  0.00  0.00    +0.000 A 
ATOM     33  C   UNL     1       1.349   3.602  18.612  0.00  0.00    +0.000 C 
ATOM     34  C   UNL     1       2.110   5.950  18.120  0.00  0.00    +0.000 A 
ENDBRANCH  25  27
ENDBRANCH  24  25
ENDBRANCH   7  23
TORSDOF 7
ENDMDL
MODEL 6
REMARK VINA RESULT:      -8.1      3.963      7.070
REMARK  Name = 
REMARK  10 active torsions:
REMARK  status: ('A' for Active; 'I' for Inactive)
REMARK    1  A    between atoms: C_1  and  O_2
REMARK    2  A    between atoms: O_2  and  C_3
REMARK    3  A    between atoms: C_3  and  C_5
REMARK    4  A    between atoms: C_7  and  N_8
REMARK    5  A    between atoms: C_9  and  C_11
REMARK    6  A    between atoms: C_21  and  C_22
REMARK    7  A    between atoms: C_23  and  N_24
REMARK    8  A    between atoms: N_24  and  C_25
REMARK    9  A    between atoms: C_27  and  C_28
REMARK   10  A    between atoms: C_30  and  C_31
REMARK                            x       y       z     vdW  Elec       q    Type
REMARK                         _______ _______ _______ _____ _____    ______ ____
ROOT
ATOM      1  C   UNL     1      -1.856  11.073  18.723  0.00  0.00    +0.000 A 
ATOM      2  C   UNL     1      -2.462  12.103  19.546  0.00  0.00    +0.000 A 
ATOM      3  C   UNL     1      -1.870  12.669  20.603  0.00  0.00    +0.000 A 
ATOM      4  C   UNL     1      -0.495  12.219  20.954  0.00  0.00    +0.000 A 
ATOM      5  O   UNL     1       0.077  12.677  21.941  0.00  0.00    +0.000 OA
ATOM      6  O   UNL     1       0.086  11.302  20.124  0.00  0.00    +0.000 OA
ATOM      7  C   UNL     1      -0.592  10.708  19.009  0.00  0.00    +0.000 A 
ENDROOT
BRANCH   3   8
ATOM      8  N   UNL     1      -2.450  13.641  21.414  0.00  0.00    +0.000 N 
ATOM      9  C   UNL     1      -3.328  13.414  22.462  0.00  0.00    +0.000 C 
ATOM     10  O   UNL     1      -3.750  12.317  22.807  0.00  0.00    +0.000 OA
ATOM     11  H   UNL     1      -2.140  14.591  21.215  0.00  0.00    +0.000 HD
BRANCH   9  12
ATOM     12  C   UNL     1      -3.791  14.574  23.260  0.00  0.00    +0.000 A 
ATOM     13  C   UNL     1      -5.123  14.993  23.315  0.00  0.00    +0.000 A 
ATOM     14  C   UNL     1      -5.480  16.055  24.153  0.00  0.00    +0.000 A 
ATOM     15  C   UNL     1      -4.514  16.692  24.936  0.00  0.00    +0.000 A 
ATOM     16  C   UNL     1      -3.189  16.270  24.885  0.00  0.00    +0.000 A 
ATOM     17 CL   UNL     1      -1.999  17.037  25.860  0.00  0.00    +0.000 Cl
ATOM     18  C   UNL     1      -2.825  15.217  24.055  0.00  0.00    +0.000 A 
ENDBRANCH   9  12
ENDBRANCH   3   8
BRANCH   1  19
ATOM     19  C   UNL     1      -2.670  10.459  17.624  0.00  0.00    +0.000 C 
ATOM     20  O   UNL     1      -3.267   9.395  17.696  0.00  0.00    +0.000 OA
BRANCH  19  22
ATOM     21  C   UNL     1      -2.841  10.644  15.277  0.00  0.00    +0.000 C 
ATOM     22  O   UNL     1      -2.668  11.279  16.542  0.00  0.00    +0.000 OA
ENDBRANCH  19  22
ENDBRANCH   1  19
BRANCH   7  23
ATOM     23  C   UNL     1       0.222   9.738  18.289  0.00  0.00    +0.000 C 
ATOM     24  C   UNL     1       1.560   9.728  18.301  0.00  0.00    +0.000 C 
BRANCH  24  25
ATOM     25  N   UNL     1       2.417   8.889  17.634  0.00  0.00    +0.000 N 
ATOM     26  H   UNL     1       2.793   9.210  16.749  0.00  0.00    +0.000 HD
BRANCH  25  27
ATOM     27  C   UNL     1       2.906   7.666  18.129  0.00  0.00    +0.000 A 
ATOM     28  C   UNL     1       3.924   6.962  17.469  0.00  0.00    +0.000 A 
ATOM     29  C   UNL     1       4.304   5.675  17.859  0.00  0.00    +0.000 A 
ATOM     30  C   UNL     1       5.369   4.939  17.103  0.00  0.00    +0.000 C 
ATOM     31  C   UNL     1       3.662   5.081  18.948  0.00  0.00    +0.000 A 
ATOM     32  C   UNL     1       2.658   5.766  19.643  0.00  0.00    +0.000 A 
ATOM     33  C   UNL     1       1.956   5.122  20.803  0.00  0.00    +0.000 C 
ATOM     34  C   UNL     1       2.286   7.055  19.226  0.00  0.00    +0.000 A 
ENDBRANCH  25  27
ENDBRANCH  24  25
ENDBRANCH   7  23
TORSDOF 7
ENDMDL
MODEL 7
REMARK VINA RESULT:      -8.0      0.465      1.591
REMARK  Name = 
REMARK  10 active torsions:
REMARK  status: ('A' for Active; 'I' for Inactive)
REMARK    1  A    between atoms: C_1  and  O_2
REMARK    2  A    between atoms: O_2  and  C_3
REMARK    3  A    between atoms: C_3  and  C_5
REMARK    4  A    between atoms: C_7  and  N_8
REMARK    5  A    between atoms: C_9  and  C_11
REMARK    6  A    between atoms: C_21  and  C_22
REMARK    7  A    between atoms: C_23  and  N_24
REMARK    8  A    between atoms: N_24  and  C_25
REMARK    9  A    between atoms: C_27  and  C_28
REMARK   10  A    between atoms: C_30  and  C_31
REMARK                            x       y       z     vdW  Elec       q    Type
REMARK                         _______ _______ _______ _____ _____    ______ ____
ROOT
ATOM      1  C   UNL     1       2.815   5.282  19.310  0.00  0.00    +0.000 A 
ATOM      2  C   UNL     1       2.084   6.420  19.834  0.00  0.00    +0.000 A 
ATOM      3  C   UNL     1       2.043   7.624  19.251  0.00  0.00    +0.000 A 
ATOM      4  C   UNL     1       2.792   7.805  17.977  0.00  0.00    +0.000 A 
ATOM      5  O   UNL     1       2.821   8.902  17.424  0.00  0.00    +0.000 OA
ATOM      6  O   UNL     1       3.413   6.702  17.463  0.00  0.00    +0.000 OA
ATOM      7  C   UNL     1       3.445   5.434  18.130  0.00  0.00    +0.000 A 
ENDROOT
BRANCH   3   8
ATOM      8  N   UNL     1       1.364   8.729  19.756  0.00  0.00    +0.000 N 
ATOM      9  C   UNL     1       0.778   8.827  21.009  0.00  0.00    +0.000 C 
ATOM     10  O   UNL     1       0.746   7.933  21.847  0.00  0.00    +0.000 OA
ATOM     11  H   UNL     1       1.357   9.535  19.134  0.00  0.00    +0.000 HD
BRANCH   9  12
ATOM     12  C   UNL     1       0.155  10.114  21.399  0.00  0.00    +0.000 A 
ATOM     13  C   UNL     1      -0.498  10.318  22.618  0.00  0.00    +0.000 A 
ATOM     14  C   UNL     1      -0.994  11.588  22.932  0.00  0.00    +0.000 A 
ATOM     15  C   UNL     1      -0.833  12.650  22.038  0.00  0.00    +0.000 A 
ATOM     16  C   UNL     1      -0.177  12.446  20.827  0.00  0.00    +0.000 A 
ATOM     17 CL   UNL     1       0.040  13.752  19.731  0.00  0.00    +0.000 Cl
ATOM     18  C   UNL     1       0.317  11.188  20.506  0.00  0.00    +0.000 A 
ENDBRANCH   9  12
ENDBRANCH   3   8
BRANCH   1  19
ATOM     19  C   UNL     1       2.852   4.018  20.115  0.00  0.00    +0.000 C 
ATOM     20  O   UNL     1       3.864   3.417  20.444  0.00  0.00    +0.000 OA
BRANCH  19  22
ATOM     21  C   UNL     1       1.448   2.937  21.675  0.00  0.00    +0.000 C 
ATOM     22  O   UNL     1       1.588   3.654  20.450  0.00  0.00    +0.000 OA
ENDBRANCH  19  22
ENDBRANCH   1  19
BRANCH   7  23
ATOM     23  C   UNL     1       4.191   4.417  17.400  0.00  0.00    +0.000 C 
ATOM     24  C   UNL     1       5.378   4.632  16.820  0.00  0.00    +0.000 C 
BRANCH  24  25
ATOM     25  N   UNL     1       6.142   3.762  16.084  0.00  0.00    +0.000 N 
ATOM     26  H   UNL     1       6.448   2.908  16.537  0.00  0.00    +0.000 HD
BRANCH  25  27
ATOM     27  C   UNL     1       6.445   3.902  14.717  0.00  0.00    +0.000 A 
ATOM     28  C   UNL     1       7.412   4.815  14.269  0.00  0.00    +0.000 A 
ATOM     29  C   UNL     1       7.606   5.076  12.910  0.00  0.00    +0.000 A 
ATOM     30  C   UNL     1       8.621   6.088  12.473  0.00  0.00    +0.000 C 
ATOM     31  C   UNL     1       6.827   4.395  11.972  0.00  0.00    +0.000 A 
ATOM     32  C   UNL     1       5.869   3.460  12.385  0.00  0.00    +0.000 A 
ATOM     33  C   UNL     1       5.020   2.742  11.378  0.00  0.00    +0.000 C 
ATOM     34  C   UNL     1       5.685   3.222  13.757  0.00  0.00    +0.000 A 
ENDBRANCH  25  27
ENDBRANCH  24  25
ENDBRANCH   7  23
TORSDOF 7
ENDMDL
MODEL 8
REMARK VINA RESULT:      -8.0      1.554      1.850
REMARK  Name = 
REMARK  10 active torsions:
REMARK  status: ('A' for Active; 'I' for Inactive)
REMARK    1  A    between atoms: C_1  and  O_2
REMARK    2  A    between atoms: O_2  and  C_3
REMARK    3  A    between atoms: C_3  and  C_5
REMARK    4  A    between atoms: C_7  and  N_8
REMARK    5  A    between atoms: C_9  and  C_11
REMARK    6  A    between atoms: C_21  and  C_22
REMARK    7  A    between atoms: C_23  and  N_24
REMARK    8  A    between atoms: N_24  and  C_25
REMARK    9  A    between atoms: C_27  and  C_28
REMARK   10  A    between atoms: C_30  and  C_31
REMARK                            x       y       z     vdW  Elec       q    Type
REMARK                         _______ _______ _______ _____ _____    ______ ____
ROOT
ATOM      1  C   UNL     1       2.364   6.090  19.361  0.00  0.00    +0.000 A 
ATOM      2  C   UNL     1       1.712   7.292  19.845  0.00  0.00    +0.000 A 
ATOM      3  C   UNL     1       1.739   8.471  19.215  0.00  0.00    +0.000 A 
ATOM      4  C   UNL     1       2.480   8.554  17.926  0.00  0.00    +0.000 A 
ATOM      5  O   UNL     1       2.571   9.624  17.328  0.00  0.00    +0.000 OA
ATOM      6  O   UNL     1       3.025   7.395  17.451  0.00  0.00    +0.000 OA
ATOM      7  C   UNL     1       2.987   6.154  18.169  0.00  0.00    +0.000 A 
ENDROOT
BRANCH   3   8
ATOM      8  N   UNL     1       1.136   9.636  19.681  0.00  0.00    +0.000 N 
ATOM      9  C   UNL     1       0.007  10.242  19.151  0.00  0.00    +0.000 C 
ATOM     10  O   UNL     1      -0.608   9.852  18.165  0.00  0.00    +0.000 OA
ATOM     11  H   UNL     1       1.568  10.024  20.518  0.00  0.00    +0.000 HD
BRANCH   9  12
ATOM     12  C   UNL     1      -0.533  11.445  19.827  0.00  0.00    +0.000 A 
ATOM     13  C   UNL     1      -0.585  12.708  19.231  0.00  0.00    +0.000 A 
ATOM     14  C   UNL     1      -1.178  13.772  19.918  0.00  0.00    +0.000 A 
ATOM     15  C   UNL     1      -1.721  13.576  21.190  0.00  0.00    +0.000 A 
ATOM     16  C   UNL     1      -1.674  12.316  21.780  0.00  0.00    +0.000 A 
ATOM     17 CL   UNL     1      -2.357  12.064  23.337  0.00  0.00    +0.000 Cl
ATOM     18  C   UNL     1      -1.085  11.254  21.106  0.00  0.00    +0.000 A 
ENDBRANCH   9  12
ENDBRANCH   3   8
BRANCH   1  19
ATOM     19  C   UNL     1       2.333   4.859  20.216  0.00  0.00    +0.000 C 
ATOM     20  O   UNL     1       3.287   4.390  20.817  0.00  0.00    +0.000 OA
BRANCH  19  22
ATOM     21  C   UNL     1       0.897   3.070  19.659  0.00  0.00    +0.000 C 
ATOM     22  O   UNL     1       1.071   4.357  20.247  0.00  0.00    +0.000 OA
ENDBRANCH  19  22
ENDBRANCH   1  19
BRANCH   7  23
ATOM     23  C   UNL     1       3.659   5.064  17.474  0.00  0.00    +0.000 C 
ATOM     24  C   UNL     1       4.887   5.155  16.950  0.00  0.00    +0.000 C 
BRANCH  24  25
ATOM     25  N   UNL     1       5.592   4.210  16.249  0.00  0.00    +0.000 N 
ATOM     26  H   UNL     1       5.795   3.333  16.718  0.00  0.00    +0.000 HD
BRANCH  25  27
ATOM     27  C   UNL     1       5.962   4.308  14.895  0.00  0.00    +0.000 A 
ATOM     28  C   UNL     1       5.321   3.552  13.902  0.00  0.00    +0.000 A 
ATOM     29  C   UNL     1       5.784   3.521  12.584  0.00  0.00    +0.000 A 
ATOM     30  C   UNL     1       5.095   2.669  11.561  0.00  0.00    +0.000 C 
ATOM     31  C   UNL     1       6.906   4.279  12.244  0.00  0.00    +0.000 A 
ATOM     32  C   UNL     1       7.556   5.063  13.206  0.00  0.00    +0.000 A 
ATOM     33  C   UNL     1       8.772   5.863  12.844  0.00  0.00    +0.000 C 
ATOM     34  C   UNL     1       7.077   5.070  14.527  0.00  0.00    +0.000 A 
ENDBRANCH  25  27
ENDBRANCH  24  25
ENDBRANCH   7  23
TORSDOF 7
ENDMDL
MODEL 9
REMARK VINA RESULT:      -8.0      3.354      5.613
REMARK  Name = 
REMARK  10 active torsions:
REMARK  status: ('A' for Active; 'I' for Inactive)
REMARK    1  A    between atoms: C_1  and  O_2
REMARK    2  A    between atoms: O_2  and  C_3
REMARK    3  A    between atoms: C_3  and  C_5
REMARK    4  A    between atoms: C_7  and  N_8
REMARK    5  A    between atoms: C_9  and  C_11
REMARK    6  A    between atoms: C_21  and  C_22
REMARK    7  A    between atoms: C_23  and  N_24
REMARK    8  A    between atoms: N_24  and  C_25
REMARK    9  A    between atoms: C_27  and  C_28
REMARK   10  A    between atoms: C_30  and  C_31
REMARK                            x       y       z     vdW  Elec       q    Type
REMARK                         _______ _______ _______ _____ _____    ______ ____
ROOT
ATOM      1  C   UNL     1       0.507   9.766  19.724  0.00  0.00    +0.000 A 
ATOM      2  C   UNL     1      -0.238  10.738  20.503  0.00  0.00    +0.000 A 
ATOM      3  C   UNL     1      -0.320  10.731  21.838  0.00  0.00    +0.000 A 
ATOM      4  C   UNL     1       0.407   9.659  22.574  0.00  0.00    +0.000 A 
ATOM      5  O   UNL     1       0.330   9.583  23.798  0.00  0.00    +0.000 OA
ATOM      6  O   UNL     1       1.161   8.799  21.827  0.00  0.00    +0.000 OA
ATOM      7  C   UNL     1       1.207   8.833  20.394  0.00  0.00    +0.000 A 
ENDROOT
BRANCH   3   8
ATOM      8  N   UNL     1      -1.049  11.644  22.595  0.00  0.00    +0.000 N 
ATOM      9  C   UNL     1      -0.729  12.977  22.799  0.00  0.00    +0.000 C 
ATOM     10  O   UNL     1       0.269  13.540  22.365  0.00  0.00    +0.000 OA
ATOM     11  H   UNL     1      -1.914  11.270  22.981  0.00  0.00    +0.000 HD
BRANCH   9  12
ATOM     12  C   UNL     1      -1.667  13.817  23.581  0.00  0.00    +0.000 A 
ATOM     13  C   UNL     1      -1.256  14.854  24.424  0.00  0.00    +0.000 A 
ATOM     14  C   UNL     1      -2.216  15.642  25.068  0.00  0.00    +0.000 A 
ATOM     15  C   UNL     1      -3.578  15.400  24.869  0.00  0.00    +0.000 A 
ATOM     16  C   UNL     1      -3.985  14.371  24.025  0.00  0.00    +0.000 A 
ATOM     17 CL   UNL     1      -5.658  14.080  23.762  0.00  0.00    +0.000 Cl
ATOM     18  C   UNL     1      -3.039  13.582  23.382  0.00  0.00    +0.000 A 
ENDBRANCH   9  12
ENDBRANCH   3   8
BRANCH   1  19
ATOM     19  C   UNL     1       0.437   9.837  18.228  0.00  0.00    +0.000 C 
ATOM     20  O   UNL     1       1.227   9.315  17.457  0.00  0.00    +0.000 OA
BRANCH  19  22
ATOM     21  C   UNL     1      -1.685   9.811  17.193  0.00  0.00    +0.000 C 
ATOM     22  O   UNL     1      -0.660  10.547  17.857  0.00  0.00    +0.000 OA
ENDBRANCH  19  22
ENDBRANCH   1  19
BRANCH   7  23
ATOM     23  C   UNL     1       2.058   7.799  19.820  0.00  0.00    +0.000 C 
ATOM     24  C   UNL     1       2.131   6.545  20.286  0.00  0.00    +0.000 C 
BRANCH  24  25
ATOM     25  N   UNL     1       2.920   5.513  19.846  0.00  0.00    +0.000 N 
ATOM     26  H   UNL     1       2.622   4.569  20.067  0.00  0.00    +0.000 HD
BRANCH  25  27
ATOM     27  C   UNL     1       4.049   5.648  19.017  0.00  0.00    +0.000 A 
ATOM     28  C   UNL     1       5.350   5.488  19.517  0.00  0.00    +0.000 A 
ATOM     29  C   UNL     1       6.478   5.776  18.745  0.00  0.00    +0.000 A 
ATOM     30  C   UNL     1       7.851   5.631  19.329  0.00  0.00    +0.000 C 
ATOM     31  C   UNL     1       6.304   6.219  17.432  0.00  0.00    +0.000 A 
ATOM     32  C   UNL     1       5.019   6.367  16.894  0.00  0.00    +0.000 A 
ATOM     33  C   UNL     1       4.831   6.860  15.489  0.00  0.00    +0.000 C 
ATOM     34  C   UNL     1       3.900   6.081  17.694  0.00  0.00    +0.000 A 
ENDBRANCH  25  27
ENDBRANCH  24  25
ENDBRANCH   7  23
TORSDOF 7
ENDMDL
