MODEL 1
REMARK VINA RESULT:      -6.9      0.000      0.000
REMARK  Name = 
REMARK  5 active torsions:
REMARK  status: ('A' for Active; 'I' for Inactive)
REMARK    1  A    between atoms: C_1  and  C_2
REMARK    2  A    between atoms: C_2  and  C_3
REMARK    3  A    between atoms: C_9  and  S_10
REMARK    4  A    between atoms: S_10  and  C_11
REMARK    5  A    between atoms: C_11  and  C_12
REMARK                            x       y       z     vdW  Elec       q    Type
REMARK                         _______ _______ _______ _____ _____    ______ ____
ROOT
ATOM      1  C   UNL     1       6.748   4.909  15.826  0.00  0.00    +0.000 C 
ATOM      2  O   UNL     1       7.886   4.729  15.384  0.00  0.00    +0.000 OA
ATOM      3  N   UNL     1       6.522   5.068  17.206  0.00  0.00    +0.000 N 
ATOM      4  C   UNL     1       7.646   4.939  18.087  0.00  0.00    +0.000 C 
ATOM      5  C   UNL     1       7.150   5.542  19.382  0.00  0.00    +0.000 C 
ATOM      6  N   UNL     1       5.673   5.498  19.302  0.00  0.00    +0.000 NA
ATOM      7  C   UNL     1       5.412   5.261  18.055  0.00  0.00    +0.000 C 
ENDROOT
BRANCH   1   9
ATOM      8  C   UNL     1       5.583   3.957  13.783  0.00  0.00    +0.000 C 
ATOM      9  C   UNL     1       5.553   4.990  14.897  0.00  0.00    +0.000 C 
ENDBRANCH   1   9
BRANCH   7  10
ATOM     10  S   UNL     1       3.799   5.111  17.474  0.00  0.00    +0.000 S 
BRANCH  10  11
ATOM     11  C   UNL     1       3.463   3.359  17.793  0.00  0.00    +0.000 C 
BRANCH  11  12
ATOM     12  C   UNL     1       2.726   3.201  19.106  0.00  0.00    +0.000 A 
ATOM     13  C   UNL     1       3.406   2.751  20.248  0.00  0.00    +0.000 A 
ATOM     14  C   UNL     1       2.723   2.550  21.449  0.00  0.00    +0.000 A 
ATOM     15  C   UNL     1       1.352   2.792  21.521  0.00  0.00    +0.000 A 
ATOM     16  C   UNL     1       0.663   3.234  20.394  0.00  0.00    +0.000 A 
ATOM     17  C   UNL     1       1.346   3.437  19.191  0.00  0.00    +0.000 A 
ENDBRANCH  11  12
ENDBRANCH  10  11
ENDBRANCH   7  10
TORSDOF 4
ENDMDL
MODEL 2
REMARK VINA RESULT:      -6.9      1.102      1.268
REMARK  Name = 
REMARK  5 active torsions:
REMARK  status: ('A' for Active; 'I' for Inactive)
REMARK    1  A    between atoms: C_1  and  C_2
REMARK    2  A    between atoms: C_2  and  C_3
REMARK    3  A    between atoms: C_9  and  S_10
REMARK    4  A    between atoms: S_10  and  C_11
REMARK    5  A    between atoms: C_11  and  C_12
REMARK                            x       y       z     vdW  Elec       q    Type
REMARK                         _______ _______ _______ _____ _____    ______ ____
ROOT
ATOM      1  C   UNL     1       6.701   5.153  15.505  0.00  0.00    +0.000 C 
ATOM      2  O   UNL     1       7.687   5.761  15.080  0.00  0.00    +0.000 OA
ATOM      3  N   UNL     1       6.515   4.945  16.885  0.00  0.00    +0.000 N 
ATOM      4  C   UNL     1       7.545   5.399  17.773  0.00  0.00    +0.000 C 
ATOM      5  C   UNL     1       6.872   5.388  19.128  0.00  0.00    +0.000 C 
ATOM      6  N   UNL     1       5.717   4.474  18.991  0.00  0.00    +0.000 NA
ATOM      7  C   UNL     1       5.570   4.306  17.716  0.00  0.00    +0.000 C 
ENDROOT
BRANCH   1   9
ATOM      8  C   UNL     1       6.206   3.793  13.421  0.00  0.00    +0.000 C 
ATOM      9  C   UNL     1       5.640   4.626  14.559  0.00  0.00    +0.000 C 
ENDBRANCH   1   9
BRANCH   7  10
ATOM     10  S   UNL     1       4.338   3.297  17.063  0.00  0.00    +0.000 S 
BRANCH  10  11
ATOM     11  C   UNL     1       2.858   4.300  17.356  0.00  0.00    +0.000 C 
BRANCH  11  12
ATOM     12  C   UNL     1       2.283   3.993  18.722  0.00  0.00    +0.000 A 
ATOM     13  C   UNL     1       2.112   5.020  19.663  0.00  0.00    +0.000 A 
ATOM     14  C   UNL     1       1.634   4.737  20.945  0.00  0.00    +0.000 A 
ATOM     15  C   UNL     1       1.327   3.425  21.302  0.00  0.00    +0.000 A 
ATOM     16  C   UNL     1       1.497   2.396  20.380  0.00  0.00    +0.000 A 
ATOM     17  C   UNL     1       1.974   2.676  19.096  0.00  0.00    +0.000 A 
ENDBRANCH  11  12
ENDBRANCH  10  11
ENDBRANCH   7  10
TORSDOF 4
ENDMDL
MODEL 3
REMARK VINA RESULT:      -6.8      1.019      1.081
REMARK  Name = 
REMARK  5 active torsions:
REMARK  status: ('A' for Active; 'I' for Inactive)
REMARK    1  A    between atoms: C_1  and  C_2
REMARK    2  A    between atoms: C_2  and  C_3
REMARK    3  A    between atoms: C_9  and  S_10
REMARK    4  A    between atoms: S_10  and  C_11
REMARK    5  A    between atoms: C_11  and  C_12
REMARK                            x       y       z     vdW  Elec       q    Type
REMARK                         _______ _______ _______ _____ _____    ______ ____
ROOT
ATOM      1  C   UNL     1       6.740   4.914  15.917  0.00  0.00    +0.000 C 
ATOM      2  O   UNL     1       7.850   4.604  15.476  0.00  0.00    +0.000 OA
ATOM      3  N   UNL     1       6.539   5.126  17.294  0.00  0.00    +0.000 N 
ATOM      4  C   UNL     1       7.649   4.899  18.174  0.00  0.00    +0.000 C 
ATOM      5  C   UNL     1       7.226   5.580  19.457  0.00  0.00    +0.000 C 
ATOM      6  N   UNL     1       5.753   5.691  19.381  0.00  0.00    +0.000 NA
ATOM      7  C   UNL     1       5.461   5.455  18.142  0.00  0.00    +0.000 C 
ENDROOT
BRANCH   1   9
ATOM      8  C   UNL     1       5.574   4.165  13.792  0.00  0.00    +0.000 C 
ATOM      9  C   UNL     1       5.556   5.100  14.990  0.00  0.00    +0.000 C 
ENDBRANCH   1   9
BRANCH   7  10
ATOM     10  S   UNL     1       3.838   5.463  17.568  0.00  0.00    +0.000 S 
BRANCH  10  11
ATOM     11  C   UNL     1       2.940   6.024  19.039  0.00  0.00    +0.000 C 
BRANCH  11  12
ATOM     12  C   UNL     1       2.285   4.847  19.730  0.00  0.00    +0.000 A 
ATOM     13  C   UNL     1       2.591   4.552  21.067  0.00  0.00    +0.000 A 
ATOM     14  C   UNL     1       2.034   3.436  21.695  0.00  0.00    +0.000 A 
ATOM     15  C   UNL     1       1.168   2.600  20.992  0.00  0.00    +0.000 A 
ATOM     16  C   UNL     1       0.859   2.877  19.663  0.00  0.00    +0.000 A 
ATOM     17  C   UNL     1       1.415   3.994  19.032  0.00  0.00    +0.000 A 
ENDBRANCH  11  12
ENDBRANCH  10  11
ENDBRANCH   7  10
TORSDOF 4
ENDMDL
MODEL 4
REMARK VINA RESULT:      -6.7      1.088      1.240
REMARK  Name = 
REMARK  5 active torsions:
REMARK  status: ('A' for Active; 'I' for Inactive)
REMARK    1  A    between atoms: C_1  and  C_2
REMARK    2  A    between atoms: C_2  and  C_3
REMARK    3  A    between atoms: C_9  and  S_10
REMARK    4  A    between atoms: S_10  and  C_11
REMARK    5  A    between atoms: C_11  and  C_12
REMARK                            x       y       z     vdW  Elec       q    Type
REMARK                         _______ _______ _______ _____ _____    ______ ____
ROOT
ATOM      1  C   UNL     1       6.776   4.901  15.265  0.00  0.00    +0.000 C 
ATOM      2  O   UNL     1       7.833   5.340  14.805  0.00  0.00    +0.000 OA
ATOM      3  N   UNL     1       6.552   4.856  16.655  0.00  0.00    +0.000 N 
ATOM      4  C   UNL     1       7.622   5.267  17.517  0.00  0.00    +0.000 C 
ATOM      5  C   UNL     1       6.939   5.473  18.851  0.00  0.00    +0.000 C 
ATOM      6  N   UNL     1       5.682   4.696  18.779  0.00  0.00    +0.000 NA
ATOM      7  C   UNL     1       5.528   4.422  17.522  0.00  0.00    +0.000 C 
ENDROOT
BRANCH   1   9
ATOM      8  C   UNL     1       6.178   3.720  13.101  0.00  0.00    +0.000 C 
ATOM      9  C   UNL     1       5.668   4.416  14.352  0.00  0.00    +0.000 C 
ENDBRANCH   1   9
BRANCH   7  10
ATOM     10  S   UNL     1       4.188   3.510  16.944  0.00  0.00    +0.000 S 
BRANCH  10  11
ATOM     11  C   UNL     1       2.794   4.518  17.513  0.00  0.00    +0.000 C 
BRANCH  11  12
ATOM     12  C   UNL     1       2.312   4.027  18.862  0.00  0.00    +0.000 A 
ATOM     13  C   UNL     1       1.813   2.723  19.002  0.00  0.00    +0.000 A 
ATOM     14  C   UNL     1       1.316   2.280  20.229  0.00  0.00    +0.000 A 
ATOM     15  C   UNL     1       1.308   3.136  21.329  0.00  0.00    +0.000 A 
ATOM     16  C   UNL     1       1.796   4.435  21.204  0.00  0.00    +0.000 A 
ATOM     17  C   UNL     1       2.295   4.880  19.976  0.00  0.00    +0.000 A 
ENDBRANCH  11  12
ENDBRANCH  10  11
ENDBRANCH   7  10
TORSDOF 4
ENDMDL
MODEL 5
REMARK VINA RESULT:      -6.7      1.723      2.016
REMARK  Name = 
REMARK  5 active torsions:
REMARK  status: ('A' for Active; 'I' for Inactive)
REMARK    1  A    between atoms: C_1  and  C_2
REMARK    2  A    between atoms: C_2  and  C_3
REMARK    3  A    between atoms: C_9  and  S_10
REMARK    4  A    between atoms: S_10  and  C_11
REMARK    5  A    between atoms: C_11  and  C_12
REMARK                            x       y       z     vdW  Elec       q    Type
REMARK                         _______ _______ _______ _____ _____    ______ ____
ROOT
ATOM      1  C   UNL     1       6.635   4.957  15.752  0.00  0.00    +0.000 C 
ATOM      2  O   UNL     1       7.606   5.541  15.264  0.00  0.00    +0.000 OA
ATOM      3  N   UNL     1       6.473   4.858  17.147  0.00  0.00    +0.000 N 
ATOM      4  C   UNL     1       7.511   5.393  17.979  0.00  0.00    +0.000 C 
ATOM      5  C   UNL     1       6.859   5.483  19.341  0.00  0.00    +0.000 C 
ATOM      6  N   UNL     1       5.714   4.548  19.297  0.00  0.00    +0.000 NA
ATOM      7  C   UNL     1       5.549   4.277  18.041  0.00  0.00    +0.000 C 
ENDROOT
BRANCH   1   9
ATOM      8  C   UNL     1       6.107   3.804  13.555  0.00  0.00    +0.000 C 
ATOM      9  C   UNL     1       5.567   4.344  14.868  0.00  0.00    +0.000 C 
ENDBRANCH   1   9
BRANCH   7  10
ATOM     10  S   UNL     1       4.321   3.204  17.491  0.00  0.00    +0.000 S 
BRANCH  10  11
ATOM     11  C   UNL     1       2.978   4.360  17.111  0.00  0.00    +0.000 C 
BRANCH  11  12
ATOM     12  C   UNL     1       2.472   5.007  18.382  0.00  0.00    +0.000 A 
ATOM     13  C   UNL     1       2.632   6.387  18.584  0.00  0.00    +0.000 A 
ATOM     14  C   UNL     1       2.217   6.983  19.777  0.00  0.00    +0.000 A 
ATOM     15  C   UNL     1       1.644   6.207  20.783  0.00  0.00    +0.000 A 
ATOM     16  C   UNL     1       1.484   4.836  20.598  0.00  0.00    +0.000 A 
ATOM     17  C   UNL     1       1.897   4.237  19.404  0.00  0.00    +0.000 A 
ENDBRANCH  11  12
ENDBRANCH  10  11
ENDBRANCH   7  10
TORSDOF 4
ENDMDL
MODEL 6
REMARK VINA RESULT:      -6.5      2.485      6.178
REMARK  Name = 
REMARK  5 active torsions:
REMARK  status: ('A' for Active; 'I' for Inactive)
REMARK    1  A    between atoms: C_1  and  C_2
REMARK    2  A    between atoms: C_2  and  C_3
REMARK    3  A    between atoms: C_9  and  S_10
REMARK    4  A    between atoms: S_10  and  C_11
REMARK    5  A    between atoms: C_11  and  C_12
REMARK                            x       y       z     vdW  Elec       q    Type
REMARK                         _______ _______ _______ _____ _____    ______ ____
ROOT
ATOM      1  C   UNL     1       6.604   5.598  19.014  0.00  0.00    +0.000 C 
ATOM      2  O   UNL     1       7.045   5.293  20.126  0.00  0.00    +0.000 OA
ATOM      3  N   UNL     1       5.221   5.567  18.749  0.00  0.00    +0.000 N 
ATOM      4  C   UNL     1       4.351   5.100  19.789  0.00  0.00    +0.000 C 
ATOM      5  C   UNL     1       2.984   5.563  19.338  0.00  0.00    +0.000 C 
ATOM      6  N   UNL     1       3.102   5.795  17.882  0.00  0.00    +0.000 NA
ATOM      7  C   UNL     1       4.375   5.814  17.647  0.00  0.00    +0.000 C 
ENDROOT
BRANCH   1   9
ATOM      8  C   UNL     1       7.828   7.529  17.916  0.00  0.00    +0.000 C 
ATOM      9  C   UNL     1       7.531   6.039  17.900  0.00  0.00    +0.000 C 
ENDBRANCH   1   9
BRANCH   7  10
ATOM     10  S   UNL     1       5.009   6.048  16.064  0.00  0.00    +0.000 S 
BRANCH  10  11
ATOM     11  C   UNL     1       5.381   4.344  15.570  0.00  0.00    +0.000 C 
BRANCH  11  12
ATOM     12  C   UNL     1       6.050   4.331  14.212  0.00  0.00    +0.000 A 
ATOM     13  C   UNL     1       5.569   3.491  13.196  0.00  0.00    +0.000 A 
ATOM     14  C   UNL     1       6.214   3.431  11.958  0.00  0.00    +0.000 A 
ATOM     15  C   UNL     1       7.349   4.206  11.724  0.00  0.00    +0.000 A 
ATOM     16  C   UNL     1       7.840   5.040  12.725  0.00  0.00    +0.000 A 
ATOM     17  C   UNL     1       7.196   5.102  13.965  0.00  0.00    +0.000 A 
ENDBRANCH  11  12
ENDBRANCH  10  11
ENDBRANCH   7  10
TORSDOF 4
ENDMDL
MODEL 7
REMARK VINA RESULT:      -6.5      1.418      1.661
REMARK  Name = 
REMARK  5 active torsions:
REMARK  status: ('A' for Active; 'I' for Inactive)
REMARK    1  A    between atoms: C_1  and  C_2
REMARK    2  A    between atoms: C_2  and  C_3
REMARK    3  A    between atoms: C_9  and  S_10
REMARK    4  A    between atoms: S_10  and  C_11
REMARK    5  A    between atoms: C_11  and  C_12
REMARK                            x       y       z     vdW  Elec       q    Type
REMARK                         _______ _______ _______ _____ _____    ______ ____
ROOT
ATOM      1  C   UNL     1       6.817   5.012  14.693  0.00  0.00    +0.000 C 
ATOM      2  O   UNL     1       7.812   5.433  14.097  0.00  0.00    +0.000 OA
ATOM      3  N   UNL     1       6.506   5.459  15.992  0.00  0.00    +0.000 N 
ATOM      4  C   UNL     1       7.424   6.360  16.626  0.00  0.00    +0.000 C 
ATOM      5  C   UNL     1       6.622   6.926  17.777  0.00  0.00    +0.000 C 
ATOM      6  N   UNL     1       5.527   5.960  18.012  0.00  0.00    +0.000 NA
ATOM      7  C   UNL     1       5.513   5.205  16.961  0.00  0.00    +0.000 C 
ENDROOT
BRANCH   1   9
ATOM      8  C   UNL     1       6.312   3.604  12.644  0.00  0.00    +0.000 C 
ATOM      9  C   UNL     1       5.878   4.018  14.040  0.00  0.00    +0.000 C 
ENDBRANCH   1   9
BRANCH   7  10
ATOM     10  S   UNL     1       4.396   3.908  16.783  0.00  0.00    +0.000 S 
BRANCH  10  11
ATOM     11  C   UNL     1       4.455   3.153  18.430  0.00  0.00    +0.000 C 
BRANCH  11  12
ATOM     12  C   UNL     1       3.147   3.383  19.155  0.00  0.00    +0.000 A 
ATOM     13  C   UNL     1       2.036   2.570  18.884  0.00  0.00    +0.000 A 
ATOM     14  C   UNL     1       0.810   2.810  19.508  0.00  0.00    +0.000 A 
ATOM     15  C   UNL     1       0.679   3.867  20.407  0.00  0.00    +0.000 A 
ATOM     16  C   UNL     1       1.772   4.685  20.683  0.00  0.00    +0.000 A 
ATOM     17  C   UNL     1       3.001   4.447  20.060  0.00  0.00    +0.000 A 
ENDBRANCH  11  12
ENDBRANCH  10  11
ENDBRANCH   7  10
TORSDOF 4
ENDMDL
MODEL 8
REMARK VINA RESULT:      -6.4      3.001      5.545
REMARK  Name = 
REMARK  5 active torsions:
REMARK  status: ('A' for Active; 'I' for Inactive)
REMARK    1  A    between atoms: C_1  and  C_2
REMARK    2  A    between atoms: C_2  and  C_3
REMARK    3  A    between atoms: C_9  and  S_10
REMARK    4  A    between atoms: S_10  and  C_11
REMARK    5  A    between atoms: C_11  and  C_12
REMARK                            x       y       z     vdW  Elec       q    Type
REMARK                         _______ _______ _______ _____ _____    ______ ____
ROOT
ATOM      1  C   UNL     1       2.280   6.171  19.494  0.00  0.00    +0.000 C 
ATOM      2  O   UNL     1       2.347   7.038  20.370  0.00  0.00    +0.000 OA
ATOM      3  N   UNL     1       2.087   4.817  19.827  0.00  0.00    +0.000 N 
ATOM      4  C   UNL     1       2.046   4.469  21.217  0.00  0.00    +0.000 C 
ATOM      5  C   UNL     1       1.448   3.080  21.215  0.00  0.00    +0.000 C 
ATOM      6  N   UNL     1       1.664   2.555  19.850  0.00  0.00    +0.000 NA
ATOM      7  C   UNL     1       1.985   3.589  19.139  0.00  0.00    +0.000 C 
ENDROOT
BRANCH   1   9
ATOM      8  C   UNL     1       2.888   7.946  17.787  0.00  0.00    +0.000 C 
ATOM      9  C   UNL     1       2.378   6.535  18.026  0.00  0.00    +0.000 C 
ENDBRANCH   1   9
BRANCH   7  10
ATOM     10  S   UNL     1       2.346   3.467  17.460  0.00  0.00    +0.000 S 
BRANCH  10  11
ATOM     11  C   UNL     1       4.101   3.019  17.502  0.00  0.00    +0.000 C 
BRANCH  11  12
ATOM     12  C   UNL     1       4.959   4.264  17.428  0.00  0.00    +0.000 A 
ATOM     13  C   UNL     1       5.119   4.941  16.209  0.00  0.00    +0.000 A 
ATOM     14  C   UNL     1       5.952   6.058  16.120  0.00  0.00    +0.000 A 
ATOM     15  C   UNL     1       6.638   6.509  17.247  0.00  0.00    +0.000 A 
ATOM     16  C   UNL     1       6.492   5.844  18.462  0.00  0.00    +0.000 A 
ATOM     17  C   UNL     1       5.658   4.725  18.554  0.00  0.00    +0.000 A 
ENDBRANCH  11  12
ENDBRANCH  10  11
ENDBRANCH   7  10
TORSDOF 4
ENDMDL
MODEL 9
REMARK VINA RESULT:      -6.4      2.968      5.434
REMARK  Name = 
REMARK  5 active torsions:
REMARK  status: ('A' for Active; 'I' for Inactive)
REMARK    1  A    between atoms: C_1  and  C_2
REMARK    2  A    between atoms: C_2  and  C_3
REMARK    3  A    between atoms: C_9  and  S_10
REMARK    4  A    between atoms: S_10  and  C_11
REMARK    5  A    between atoms: C_11  and  C_12
REMARK                            x       y       z     vdW  Elec       q    Type
REMARK                         _______ _______ _______ _____ _____    ______ ____
ROOT
ATOM      1  C   UNL     1       2.376   6.068  19.549  0.00  0.00    +0.000 C 
ATOM      2  O   UNL     1       2.433   6.923  20.437  0.00  0.00    +0.000 OA
ATOM      3  N   UNL     1       2.205   4.705  19.863  0.00  0.00    +0.000 N 
ATOM      4  C   UNL     1       2.174   4.338  21.249  0.00  0.00    +0.000 C 
ATOM      5  C   UNL     1       1.597   2.940  21.230  0.00  0.00    +0.000 C 
ATOM      6  N   UNL     1       1.818   2.437  19.856  0.00  0.00    +0.000 NA
ATOM      7  C   UNL     1       2.120   3.486  19.159  0.00  0.00    +0.000 C 
ENDROOT
BRANCH   1   9
ATOM      8  C   UNL     1       2.964   7.871  17.865  0.00  0.00    +0.000 C 
ATOM      9  C   UNL     1       2.465   6.453  18.087  0.00  0.00    +0.000 C 
ENDBRANCH   1   9
BRANCH   7  10
ATOM     10  S   UNL     1       2.478   3.393  17.478  0.00  0.00    +0.000 S 
BRANCH  10  11
ATOM     11  C   UNL     1       4.231   2.936  17.508  0.00  0.00    +0.000 C 
BRANCH  11  12
ATOM     12  C   UNL     1       5.095   4.175  17.407  0.00  0.00    +0.000 A 
ATOM     13  C   UNL     1       5.850   4.602  18.509  0.00  0.00    +0.000 A 
ATOM     14  C   UNL     1       6.606   5.774  18.442  0.00  0.00    +0.000 A 
ATOM     15  C   UNL     1       6.612   6.535  17.274  0.00  0.00    +0.000 A 
ATOM     16  C   UNL     1       5.863   6.126  16.174  0.00  0.00    +0.000 A 
ATOM     17  C   UNL     1       5.106   4.953  16.238  0.00  0.00    +0.000 A 
ENDBRANCH  11  12
ENDBRANCH  10  11
ENDBRANCH   7  10
TORSDOF 4
ENDMDL
