MODEL 1
REMARK VINA RESULT:      -7.9      0.000      0.000
REMARK  Name = 
REMARK  2 active torsions:
REMARK  status: ('A' for Active; 'I' for Inactive)
REMARK    1  A    between atoms: N_5  and  C_6
REMARK    2  A    between atoms: C_14  and  C_15
REMARK                            x       y       z     vdW  Elec       q    Type
REMARK                         _______ _______ _______ _____ _____    ______ ____
ROOT
ATOM      1  O   UNL     1       3.458   1.527  18.125  0.00  0.00    +0.000 OA
ATOM      2  C   UNL     1       3.204   2.655  18.500  0.00  0.00    +0.000 C 
ATOM      3  C   UNL     1       1.943   3.527  18.492  0.00  0.00    +0.000 C 
ATOM      4 CL   UNL     1       0.764   3.160  19.764  0.00  0.00    +0.000 Cl
ATOM      5  N   UNL     1       2.797   4.628  18.848  0.00  0.00    +0.000 N 
ATOM      6  C   UNL     1       3.959   3.821  19.197  0.00  0.00    +0.000 C 
ENDROOT
BRANCH   6   7
ATOM      7  C   UNL     1       5.249   4.225  18.506  0.00  0.00    +0.000 A 
ATOM      8  C   UNL     1       6.354   4.642  19.220  0.00  0.00    +0.000 A 
ATOM      9  N   UNL     1       7.310   5.012  18.325  0.00  0.00    +0.000 N 
ATOM     10  C   UNL     1       6.854   4.833  17.036  0.00  0.00    +0.000 A 
ATOM     11  C   UNL     1       7.489   5.118  15.822  0.00  0.00    +0.000 A 
ATOM     12  C   UNL     1       6.802   4.812  14.647  0.00  0.00    +0.000 A 
ATOM     13  C   UNL     1       5.545   4.221  14.687  0.00  0.00    +0.000 A 
ATOM     14  C   UNL     1       4.917   3.953  15.913  0.00  0.00    +0.000 A 
ATOM     15  C   UNL     1       5.570   4.283  17.119  0.00  0.00    +0.000 A 
ATOM     16  H   UNL     1       8.227   5.369  18.557  0.00  0.00    +0.000 HD
ENDBRANCH   6   7
BRANCH   5  17
ATOM     17  C   UNL     1       2.583   6.016  18.746  0.00  0.00    +0.000 A 
ATOM     18  C   UNL     1       2.960   6.671  17.554  0.00  0.00    +0.000 A 
ATOM     19  C   UNL     1       2.802   8.049  17.387  0.00  0.00    +0.000 A 
ATOM     20  C   UNL     1       2.242   8.805  18.408  0.00  0.00    +0.000 A 
ATOM     21 CL   UNL     1       2.027  10.498  18.198  0.00  0.00    +0.000 Cl
ATOM     22  C   UNL     1       1.841   8.194  19.590  0.00  0.00    +0.000 A 
ATOM     23  C   UNL     1       2.007   6.811  19.758  0.00  0.00    +0.000 A 
ATOM     24 CL   UNL     1       1.360   6.140  21.215  0.00  0.00    +0.000 Cl
ENDBRANCH   5  17
TORSDOF 2
ENDMDL
MODEL 2
REMARK VINA RESULT:      -7.4      1.197      1.654
REMARK  Name = 
REMARK  2 active torsions:
REMARK  status: ('A' for Active; 'I' for Inactive)
REMARK    1  A    between atoms: N_5  and  C_6
REMARK    2  A    between atoms: C_14  and  C_15
REMARK                            x       y       z     vdW  Elec       q    Type
REMARK                         _______ _______ _______ _____ _____    ______ ____
ROOT
ATOM      1  O   UNL     1       3.692   1.677  17.940  0.00  0.00    +0.000 OA
ATOM      2  C   UNL     1       3.345   2.680  18.530  0.00  0.00    +0.000 C 
ATOM      3  C   UNL     1       2.000   3.388  18.741  0.00  0.00    +0.000 C 
ATOM      4 CL   UNL     1       0.951   2.662  19.972  0.00  0.00    +0.000 Cl
ATOM      5  N   UNL     1       2.755   4.497  19.260  0.00  0.00    +0.000 N 
ATOM      6  C   UNL     1       4.016   3.780  19.401  0.00  0.00    +0.000 C 
ENDROOT
BRANCH   6   7
ATOM      7  C   UNL     1       5.209   4.449  18.742  0.00  0.00    +0.000 A 
ATOM      8  C   UNL     1       6.054   5.281  19.447  0.00  0.00    +0.000 A 
ATOM      9  N   UNL     1       6.964   5.788  18.570  0.00  0.00    +0.000 N 
ATOM     10  C   UNL     1       6.736   5.291  17.304  0.00  0.00    +0.000 A 
ATOM     11  C   UNL     1       7.403   5.573  16.107  0.00  0.00    +0.000 A 
ATOM     12  C   UNL     1       6.979   4.904  14.960  0.00  0.00    +0.000 A 
ATOM     13  C   UNL     1       5.949   3.973  15.013  0.00  0.00    +0.000 A 
ATOM     14  C   UNL     1       5.282   3.710  16.220  0.00  0.00    +0.000 A 
ATOM     15  C   UNL     1       5.663   4.396  17.392  0.00  0.00    +0.000 A 
ATOM     16  H   UNL     1       7.705   6.436  18.801  0.00  0.00    +0.000 HD
ENDBRANCH   6   7
BRANCH   5  17
ATOM     17  C   UNL     1       2.390   5.846  19.430  0.00  0.00    +0.000 A 
ATOM     18  C   UNL     1       1.773   6.231  20.639  0.00  0.00    +0.000 A 
ATOM     19  C   UNL     1       1.360   7.546  20.871  0.00  0.00    +0.000 A 
ATOM     20  C   UNL     1       1.574   8.515  19.901  0.00  0.00    +0.000 A 
ATOM     21 CL   UNL     1       1.086  10.138  20.192  0.00  0.00    +0.000 Cl
ATOM     22  C   UNL     1       2.196   8.179  18.704  0.00  0.00    +0.000 A 
ATOM     23  C   UNL     1       2.603   6.857  18.470  0.00  0.00    +0.000 A 
ATOM     24 CL   UNL     1       3.475   6.580  17.002  0.00  0.00    +0.000 Cl
ENDBRANCH   5  17
TORSDOF 2
ENDMDL
MODEL 3
REMARK VINA RESULT:      -6.7      3.434      5.599
REMARK  Name = 
REMARK  2 active torsions:
REMARK  status: ('A' for Active; 'I' for Inactive)
REMARK    1  A    between atoms: N_5  and  C_6
REMARK    2  A    between atoms: C_14  and  C_15
REMARK                            x       y       z     vdW  Elec       q    Type
REMARK                         _______ _______ _______ _____ _____    ______ ____
ROOT
ATOM      1  O   UNL     1       4.201   3.224  16.794  0.00  0.00    +0.000 OA
ATOM      2  C   UNL     1       4.862   4.244  16.797  0.00  0.00    +0.000 C 
ATOM      3  C   UNL     1       6.352   4.556  16.606  0.00  0.00    +0.000 C 
ATOM      4 CL   UNL     1       6.913   4.552  14.924  0.00  0.00    +0.000 Cl
ATOM      5  N   UNL     1       6.053   5.883  17.073  0.00  0.00    +0.000 N 
ATOM      6  C   UNL     1       4.605   5.768  16.964  0.00  0.00    +0.000 C 
ENDROOT
BRANCH   6   7
ATOM      7  C   UNL     1       3.838   6.133  18.223  0.00  0.00    +0.000 A 
ATOM      8  C   UNL     1       3.870   5.335  19.348  0.00  0.00    +0.000 A 
ATOM      9  N   UNL     1       3.025   5.878  20.266  0.00  0.00    +0.000 N 
ATOM     10  C   UNL     1       2.448   7.026  19.765  0.00  0.00    +0.000 A 
ATOM     11  C   UNL     1       1.500   7.872  20.351  0.00  0.00    +0.000 A 
ATOM     12  C   UNL     1       1.100   8.994  19.625  0.00  0.00    +0.000 A 
ATOM     13  C   UNL     1       1.646   9.271  18.378  0.00  0.00    +0.000 A 
ATOM     14  C   UNL     1       2.588   8.406  17.799  0.00  0.00    +0.000 A 
ATOM     15  C   UNL     1       2.987   7.244  18.491  0.00  0.00    +0.000 A 
ATOM     16  H   UNL     1       2.836   5.504  21.186  0.00  0.00    +0.000 HD
ENDBRANCH   6   7
BRANCH   5  17
ATOM     17  C   UNL     1       6.905   6.880  17.586  0.00  0.00    +0.000 A 
ATOM     18  C   UNL     1       6.856   8.169  17.014  0.00  0.00    +0.000 A 
ATOM     19  C   UNL     1       7.687   9.203  17.452  0.00  0.00    +0.000 A 
ATOM     20  C   UNL     1       8.579   8.975  18.492  0.00  0.00    +0.000 A 
ATOM     21 CL   UNL     1       9.588  10.251  19.047  0.00  0.00    +0.000 Cl
ATOM     22  C   UNL     1       8.644   7.724  19.093  0.00  0.00    +0.000 A 
ATOM     23  C   UNL     1       7.814   6.685  18.647  0.00  0.00    +0.000 A 
ATOM     24 CL   UNL     1       7.892   5.210  19.548  0.00  0.00    +0.000 Cl
ENDBRANCH   5  17
TORSDOF 2
ENDMDL
MODEL 4
REMARK VINA RESULT:      -6.6      2.806      5.317
REMARK  Name = 
REMARK  2 active torsions:
REMARK  status: ('A' for Active; 'I' for Inactive)
REMARK    1  A    between atoms: N_5  and  C_6
REMARK    2  A    between atoms: C_14  and  C_15
REMARK                            x       y       z     vdW  Elec       q    Type
REMARK                         _______ _______ _______ _____ _____    ______ ____
ROOT
ATOM      1  O   UNL     1       3.122   2.138  17.974  0.00  0.00    +0.000 OA
ATOM      2  C   UNL     1       3.793   3.111  17.693  0.00  0.00    +0.000 C 
ATOM      3  C   UNL     1       5.247   3.317  17.248  0.00  0.00    +0.000 C 
ATOM      4 CL   UNL     1       5.568   2.972  15.539  0.00  0.00    +0.000 Cl
ATOM      5  N   UNL     1       5.037   4.720  17.487  0.00  0.00    +0.000 N 
ATOM      6  C   UNL     1       3.586   4.648  17.596  0.00  0.00    +0.000 C 
ENDROOT
BRANCH   6   7
ATOM      7  C   UNL     1       3.008   5.276  18.851  0.00  0.00    +0.000 A 
ATOM      8  C   UNL     1       2.891   4.566  20.029  0.00  0.00    +0.000 A 
ATOM      9  N   UNL     1       2.265   5.366  20.935  0.00  0.00    +0.000 N 
ATOM     10  C   UNL     1       1.980   6.593  20.373  0.00  0.00    +0.000 A 
ATOM     11  C   UNL     1       1.317   7.692  20.931  0.00  0.00    +0.000 A 
ATOM     12  C   UNL     1       1.184   8.833  20.141  0.00  0.00    +0.000 A 
ATOM     13  C   UNL     1       1.717   8.883  18.859  0.00  0.00    +0.000 A 
ATOM     14  C   UNL     1       2.369   7.768  18.310  0.00  0.00    +0.000 A 
ATOM     15  C   UNL     1       2.489   6.585  19.070  0.00  0.00    +0.000 A 
ATOM     16  H   UNL     1       2.035   5.110  21.886  0.00  0.00    +0.000 HD
ENDBRANCH   6   7
BRANCH   5  17
ATOM     17  C   UNL     1       5.968   5.759  17.679  0.00  0.00    +0.000 A 
ATOM     18  C   UNL     1       6.955   5.604  18.675  0.00  0.00    +0.000 A 
ATOM     19  C   UNL     1       7.898   6.601  18.942  0.00  0.00    +0.000 A 
ATOM     20  C   UNL     1       7.886   7.774  18.201  0.00  0.00    +0.000 A 
ATOM     21 CL   UNL     1       9.057   8.993  18.512  0.00  0.00    +0.000 Cl
ATOM     22  C   UNL     1       6.940   7.956  17.198  0.00  0.00    +0.000 A 
ATOM     23  C   UNL     1       5.991   6.958  16.937  0.00  0.00    +0.000 A 
ATOM     24 CL   UNL     1       4.944   7.239  15.589  0.00  0.00    +0.000 Cl
ENDBRANCH   5  17
TORSDOF 2
ENDMDL
MODEL 5
REMARK VINA RESULT:      -6.6      7.512     10.062
REMARK  Name = 
REMARK  2 active torsions:
REMARK  status: ('A' for Active; 'I' for Inactive)
REMARK    1  A    between atoms: N_5  and  C_6
REMARK    2  A    between atoms: C_14  and  C_15
REMARK                            x       y       z     vdW  Elec       q    Type
REMARK                         _______ _______ _______ _____ _____    ______ ____
ROOT
ATOM      1  O   UNL     1       2.208  13.759  21.573  0.00  0.00    +0.000 OA
ATOM      2  C   UNL     1       1.686  13.012  20.768  0.00  0.00    +0.000 C 
ATOM      3  C   UNL     1       1.402  13.089  19.263  0.00  0.00    +0.000 C 
ATOM      4 CL   UNL     1       2.795  12.758  18.216  0.00  0.00    +0.000 Cl
ATOM      5  N   UNL     1       0.572  11.929  19.440  0.00  0.00    +0.000 N 
ATOM      6  C   UNL     1       1.046  11.595  20.776  0.00  0.00    +0.000 C 
ENDROOT
BRANCH   6   7
ATOM      7  C   UNL     1      -0.046  11.415  21.816  0.00  0.00    +0.000 A 
ATOM      8  C   UNL     1      -0.163  10.253  22.551  0.00  0.00    +0.000 A 
ATOM      9  N   UNL     1      -1.276  10.363  23.326  0.00  0.00    +0.000 N 
ATOM     10  C   UNL     1      -1.884  11.583  23.119  0.00  0.00    +0.000 A 
ATOM     11  C   UNL     1      -3.063  12.093  23.676  0.00  0.00    +0.000 A 
ATOM     12  C   UNL     1      -3.444  13.383  23.309  0.00  0.00    +0.000 A 
ATOM     13  C   UNL     1      -2.664  14.140  22.444  0.00  0.00    +0.000 A 
ATOM     14  C   UNL     1      -1.491  13.610  21.885  0.00  0.00    +0.000 A 
ATOM     15  C   UNL     1      -1.097  12.295  22.208  0.00  0.00    +0.000 A 
ATOM     16  H   UNL     1      -1.619   9.659  23.965  0.00  0.00    +0.000 HD
ENDBRANCH   6   7
BRANCH   5  17
ATOM     17  C   UNL     1      -0.447  11.405  18.620  0.00  0.00    +0.000 A 
ATOM     18  C   UNL     1      -1.645  12.138  18.482  0.00  0.00    +0.000 A 
ATOM     19  C   UNL     1      -2.710  11.672  17.707  0.00  0.00    +0.000 A 
ATOM     20  C   UNL     1      -2.592  10.464  17.032  0.00  0.00    +0.000 A 
ATOM     21 CL   UNL     1      -3.893   9.899  16.060  0.00  0.00    +0.000 Cl
ATOM     22  C   UNL     1      -1.421   9.723  17.128  0.00  0.00    +0.000 A 
ATOM     23  C   UNL     1      -0.356  10.188  17.913  0.00  0.00    +0.000 A 
ATOM     24 CL   UNL     1       1.095   9.247  17.861  0.00  0.00    +0.000 Cl
ENDBRANCH   5  17
TORSDOF 2
ENDMDL
MODEL 6
REMARK VINA RESULT:      -6.5      2.628      4.905
REMARK  Name = 
REMARK  2 active torsions:
REMARK  status: ('A' for Active; 'I' for Inactive)
REMARK    1  A    between atoms: N_5  and  C_6
REMARK    2  A    between atoms: C_14  and  C_15
REMARK                            x       y       z     vdW  Elec       q    Type
REMARK                         _______ _______ _______ _____ _____    ______ ____
ROOT
ATOM      1  O   UNL     1       2.786   2.564  21.864  0.00  0.00    +0.000 OA
ATOM      2  C   UNL     1       3.170   2.774  20.730  0.00  0.00    +0.000 C 
ATOM      3  C   UNL     1       4.350   2.272  19.889  0.00  0.00    +0.000 C 
ATOM      4 CL   UNL     1       4.150   0.650  19.201  0.00  0.00    +0.000 Cl
ATOM      5  N   UNL     1       4.014   3.304  18.946  0.00  0.00    +0.000 N 
ATOM      6  C   UNL     1       2.707   3.615  19.508  0.00  0.00    +0.000 C 
ENDROOT
BRANCH   6   7
ATOM      7  C   UNL     1       2.477   5.083  19.818  0.00  0.00    +0.000 A 
ATOM      8  C   UNL     1       2.105   5.509  21.076  0.00  0.00    +0.000 A 
ATOM      9  N   UNL     1       1.894   6.852  21.014  0.00  0.00    +0.000 N 
ATOM     10  C   UNL     1       2.134   7.315  19.738  0.00  0.00    +0.000 A 
ATOM     11  C   UNL     1       2.005   8.611  19.225  0.00  0.00    +0.000 A 
ATOM     12  C   UNL     1       2.341   8.811  17.887  0.00  0.00    +0.000 A 
ATOM     13  C   UNL     1       2.812   7.766  17.103  0.00  0.00    +0.000 A 
ATOM     14  C   UNL     1       2.924   6.469  17.629  0.00  0.00    +0.000 A 
ATOM     15  C   UNL     1       2.559   6.226  18.969  0.00  0.00    +0.000 A 
ATOM     16  H   UNL     1       1.603   7.438  21.785  0.00  0.00    +0.000 HD
ENDBRANCH   6   7
BRANCH   5  17
ATOM     17  C   UNL     1       4.784   3.884  17.918  0.00  0.00    +0.000 A 
ATOM     18  C   UNL     1       4.456   3.585  16.579  0.00  0.00    +0.000 A 
ATOM     19  C   UNL     1       5.188   4.102  15.507  0.00  0.00    +0.000 A 
ATOM     20  C   UNL     1       6.260   4.950  15.751  0.00  0.00    +0.000 A 
ATOM     21 CL   UNL     1       7.149   5.604  14.434  0.00  0.00    +0.000 Cl
ATOM     22  C   UNL     1       6.603   5.282  17.057  0.00  0.00    +0.000 A 
ATOM     23  C   UNL     1       5.871   4.757  18.132  0.00  0.00    +0.000 A 
ATOM     24 CL   UNL     1       6.308   5.334  19.703  0.00  0.00    +0.000 Cl
ENDBRANCH   5  17
TORSDOF 2
ENDMDL
MODEL 7
REMARK VINA RESULT:      -6.5      5.203      7.627
REMARK  Name = 
REMARK  2 active torsions:
REMARK  status: ('A' for Active; 'I' for Inactive)
REMARK    1  A    between atoms: N_5  and  C_6
REMARK    2  A    between atoms: C_14  and  C_15
REMARK                            x       y       z     vdW  Elec       q    Type
REMARK                         _______ _______ _______ _____ _____    ______ ____
ROOT
ATOM      1  O   UNL     1      -0.463  11.086  23.536  0.00  0.00    +0.000 OA
ATOM      2  C   UNL     1      -0.644  11.293  22.353  0.00  0.00    +0.000 C 
ATOM      3  C   UNL     1      -1.802  11.876  21.533  0.00  0.00    +0.000 C 
ATOM      4 CL   UNL     1      -1.926  13.645  21.555  0.00  0.00    +0.000 Cl
ATOM      5  N   UNL     1      -1.112  11.397  20.365  0.00  0.00    +0.000 N 
ATOM      6  C   UNL     1       0.155  11.123  21.030  0.00  0.00    +0.000 C 
ENDROOT
BRANCH   6   7
ATOM      7  C   UNL     1       0.700   9.723  20.813  0.00  0.00    +0.000 A 
ATOM      8  C   UNL     1       0.649   8.763  21.802  0.00  0.00    +0.000 A 
ATOM      9  N   UNL     1       1.288   7.654  21.338  0.00  0.00    +0.000 N 
ATOM     10  C   UNL     1       1.746   7.868  20.055  0.00  0.00    +0.000 A 
ATOM     11  C   UNL     1       2.480   7.017  19.222  0.00  0.00    +0.000 A 
ATOM     12  C   UNL     1       2.796   7.480  17.945  0.00  0.00    +0.000 A 
ATOM     13  C   UNL     1       2.371   8.729  17.511  0.00  0.00    +0.000 A 
ATOM     14  C   UNL     1       1.645   9.576  18.364  0.00  0.00    +0.000 A 
ATOM     15  C   UNL     1       1.340   9.152  19.674  0.00  0.00    +0.000 A 
ATOM     16  H   UNL     1       1.415   6.791  21.850  0.00  0.00    +0.000 HD
ENDBRANCH   6   7
BRANCH   5  17
ATOM     17  C   UNL     1      -1.586  11.161  19.060  0.00  0.00    +0.000 A 
ATOM     18  C   UNL     1      -2.358  10.005  18.823  0.00  0.00    +0.000 A 
ATOM     19  C   UNL     1      -2.843   9.690  17.550  0.00  0.00    +0.000 A 
ATOM     20  C   UNL     1      -2.582  10.540  16.485  0.00  0.00    +0.000 A 
ATOM     21 CL   UNL     1      -3.195  10.167  14.923  0.00  0.00    +0.000 Cl
ATOM     22  C   UNL     1      -1.841  11.700  16.683  0.00  0.00    +0.000 A 
ATOM     23  C   UNL     1      -1.349  12.010  17.959  0.00  0.00    +0.000 A 
ATOM     24 CL   UNL     1      -0.547  13.535  18.114  0.00  0.00    +0.000 Cl
ENDBRANCH   5  17
TORSDOF 2
ENDMDL
MODEL 8
REMARK VINA RESULT:      -6.5      3.073      4.660
REMARK  Name = 
REMARK  2 active torsions:
REMARK  status: ('A' for Active; 'I' for Inactive)
REMARK    1  A    between atoms: N_5  and  C_6
REMARK    2  A    between atoms: C_14  and  C_15
REMARK                            x       y       z     vdW  Elec       q    Type
REMARK                         _______ _______ _______ _____ _____    ______ ____
ROOT
ATOM      1  O   UNL     1       7.788   5.599  14.215  0.00  0.00    +0.000 OA
ATOM      2  C   UNL     1       6.917   5.092  14.893  0.00  0.00    +0.000 C 
ATOM      3  C   UNL     1       5.402   4.913  14.732  0.00  0.00    +0.000 C 
ATOM      4 CL   UNL     1       4.909   3.598  13.649  0.00  0.00    +0.000 Cl
ATOM      5  N   UNL     1       5.382   4.511  16.113  0.00  0.00    +0.000 N 
ATOM      6  C   UNL     1       6.822   4.337  16.249  0.00  0.00    +0.000 C 
ENDROOT
BRANCH   6   7
ATOM      7  C   UNL     1       7.448   5.080  17.416  0.00  0.00    +0.000 A 
ATOM      8  C   UNL     1       7.835   4.427  18.568  0.00  0.00    +0.000 A 
ATOM      9  N   UNL     1       8.276   5.365  19.449  0.00  0.00    +0.000 N 
ATOM     10  C   UNL     1       8.195   6.623  18.889  0.00  0.00    +0.000 A 
ATOM     11  C   UNL     1       8.506   7.866  19.450  0.00  0.00    +0.000 A 
ATOM     12  C   UNL     1       8.355   8.994  18.644  0.00  0.00    +0.000 A 
ATOM     13  C   UNL     1       7.938   8.879  17.324  0.00  0.00    +0.000 A 
ATOM     14  C   UNL     1       7.619   7.625  16.779  0.00  0.00    +0.000 A 
ATOM     15  C   UNL     1       7.726   6.468  17.579  0.00  0.00    +0.000 A 
ATOM     16  H   UNL     1       8.615   5.181  20.384  0.00  0.00    +0.000 HD
ENDBRANCH   6   7
BRANCH   5  17
ATOM     17  C   UNL     1       4.313   4.453  17.028  0.00  0.00    +0.000 A 
ATOM     18  C   UNL     1       3.855   3.187  17.450  0.00  0.00    +0.000 A 
ATOM     19  C   UNL     1       2.784   3.047  18.337  0.00  0.00    +0.000 A 
ATOM     20  C   UNL     1       2.156   4.179  18.840  0.00  0.00    +0.000 A 
ATOM     21 CL   UNL     1       0.852   4.011  19.947  0.00  0.00    +0.000 Cl
ATOM     22  C   UNL     1       2.591   5.444  18.462  0.00  0.00    +0.000 A 
ATOM     23  C   UNL     1       3.661   5.582  17.566  0.00  0.00    +0.000 A 
ATOM     24 CL   UNL     1       4.196   7.199  17.264  0.00  0.00    +0.000 Cl
ENDBRANCH   5  17
TORSDOF 2
ENDMDL
MODEL 9
REMARK VINA RESULT:      -6.3      2.633      5.185
REMARK  Name = 
REMARK  2 active torsions:
REMARK  status: ('A' for Active; 'I' for Inactive)
REMARK    1  A    between atoms: N_5  and  C_6
REMARK    2  A    between atoms: C_14  and  C_15
REMARK                            x       y       z     vdW  Elec       q    Type
REMARK                         _______ _______ _______ _____ _____    ______ ____
ROOT
ATOM      1  O   UNL     1       1.779   2.280  20.443  0.00  0.00    +0.000 OA
ATOM      2  C   UNL     1       2.524   2.860  19.678  0.00  0.00    +0.000 C 
ATOM      3  C   UNL     1       3.940   2.593  19.152  0.00  0.00    +0.000 C 
ATOM      4 CL   UNL     1       4.048   1.378  17.865  0.00  0.00    +0.000 Cl
ATOM      5  N   UNL     1       3.914   3.933  18.630  0.00  0.00    +0.000 N 
ATOM      6  C   UNL     1       2.482   4.142  18.800  0.00  0.00    +0.000 C 
ENDROOT
BRANCH   6   7
ATOM      7  C   UNL     1       2.106   5.402  19.560  0.00  0.00    +0.000 A 
ATOM      8  C   UNL     1       1.705   5.360  20.879  0.00  0.00    +0.000 A 
ATOM      9  N   UNL     1       1.358   6.623  21.247  0.00  0.00    +0.000 N 
ATOM     10  C   UNL     1       1.536   7.495  20.194  0.00  0.00    +0.000 A 
ATOM     11  C   UNL     1       1.271   8.867  20.122  0.00  0.00    +0.000 A 
ATOM     12  C   UNL     1       1.571   9.520  18.927  0.00  0.00    +0.000 A 
ATOM     13  C   UNL     1       2.138   8.835  17.860  0.00  0.00    +0.000 A 
ATOM     14  C   UNL     1       2.388   7.456  17.944  0.00  0.00    +0.000 A 
ATOM     15  C   UNL     1       2.062   6.759  19.126  0.00  0.00    +0.000 A 
ATOM     16  H   UNL     1       1.016   6.897  22.159  0.00  0.00    +0.000 HD
ENDBRANCH   6   7
BRANCH   5  17
ATOM     17  C   UNL     1       4.970   4.773  18.228  0.00  0.00    +0.000 A 
ATOM     18  C   UNL     1       5.763   5.382  19.223  0.00  0.00    +0.000 A 
ATOM     19  C   UNL     1       6.813   6.247  18.902  0.00  0.00    +0.000 A 
ATOM     20  C   UNL     1       7.107   6.509  17.571  0.00  0.00    +0.000 A 
ATOM     21 CL   UNL     1       8.411   7.556  17.173  0.00  0.00    +0.000 Cl
ATOM     22  C   UNL     1       6.359   5.913  16.562  0.00  0.00    +0.000 A 
ATOM     23  C   UNL     1       5.301   5.051  16.885  0.00  0.00    +0.000 A 
ATOM     24 CL   UNL     1       4.522   4.271  15.552  0.00  0.00    +0.000 Cl
ENDBRANCH   5  17
TORSDOF 2
ENDMDL
