MODEL 1
REMARK VINA RESULT:      -6.4      0.000      0.000
REMARK  Name = 
REMARK  11 active torsions:
REMARK  status: ('A' for Active; 'I' for Inactive)
REMARK    1  A    between atoms: C_1  and  C_2
REMARK    2  A    between atoms: C_2  and  O_3
REMARK    3  A    between atoms: O_3  and  P_4
REMARK    4  A    between atoms: P_4  and  C_6
REMARK    5  A    between atoms: P_4  and  O_19
REMARK    6  A    between atoms: C_6  and  C_7
REMARK    7  A    between atoms: C_7  and  C_8
REMARK    8  A    between atoms: C_8  and  C_9
REMARK    9  A    between atoms: N_11  and  C_12
REMARK   10  A    between atoms: O_19  and  C_20
REMARK   11  A    between atoms: C_20  and  C_21
REMARK                            x       y       z     vdW  Elec       q    Type
REMARK                         _______ _______ _______ _____ _____    ______ ____
ROOT
ATOM      1  C   UNL     1       3.726   3.913  19.543  0.00  0.00    +0.000 C 
ENDROOT
BRANCH   1   2
ATOM      2  C   UNL     1       2.676   4.967  19.262  0.00  0.00    +0.000 C 
ATOM      3  O   UNL     1       1.637   4.673  18.664  0.00  0.00    +0.000 OA
ATOM      4  N   UNL     1       3.013   6.216  19.747  0.00  0.00    +0.000 N 
ATOM      5  H   UNL     1       3.975   6.336  20.029  0.00  0.00    +0.000 HD
BRANCH   4   6
ATOM      6  C   UNL     1       2.213   7.367  19.713  0.00  0.00    +0.000 A 
ATOM      7  C   UNL     1       2.100   8.196  18.592  0.00  0.00    +0.000 A 
ATOM      8  C   UNL     1       1.334   9.365  18.645  0.00  0.00    +0.000 A 
ATOM      9  C   UNL     1       0.676   9.717  19.820  0.00  0.00    +0.000 A 
ATOM     10  C   UNL     1       0.753   8.873  20.926  0.00  0.00    +0.000 A 
ATOM     11 BR   UNL     1      -0.124   9.355  22.532  0.00  0.00    +0.000 Br
ATOM     12  C   UNL     1       1.496   7.692  20.875  0.00  0.00    +0.000 A 
ENDBRANCH   4   6
ENDBRANCH   1   2
BRANCH   1  13
ATOM     13  C   UNL     1       5.094   4.423  19.092  0.00  0.00    +0.000 C 
BRANCH  13  14
ATOM     14  C   UNL     1       5.332   4.191  17.593  0.00  0.00    +0.000 C 
BRANCH  14  15
ATOM     15  P   UNL     1       6.764   5.225  16.727  0.00  0.00    +0.000 P 
ATOM     16  O   UNL     1       6.063   6.224  15.792  0.00  0.00    +0.000 OA
BRANCH  15  17
ATOM     17  O   UNL     1       6.715   4.036  15.471  0.00  0.00    +0.000 OA
BRANCH  17  19
ATOM     18  C   UNL     1       6.023   3.660  13.202  0.00  0.00    +0.000 C 
ATOM     19  C   UNL     1       6.640   4.635  14.181  0.00  0.00    +0.000 C 
ENDBRANCH  17  19
ENDBRANCH  15  17
BRANCH  15  20
ATOM     20  O   UNL     1       6.812   6.414  17.982  0.00  0.00    +0.000 OA
BRANCH  20  21
ATOM     21  C   UNL     1       7.980   7.112  18.375  0.00  0.00    +0.000 C 
ATOM     22  C   UNL     1       8.074   8.518  17.816  0.00  0.00    +0.000 C 
ENDBRANCH  20  21
ENDBRANCH  15  20
ENDBRANCH  14  15
ENDBRANCH  13  14
ENDBRANCH   1  13
TORSDOF 9
ENDMDL
MODEL 2
REMARK VINA RESULT:      -6.3      0.643      2.968
REMARK  Name = 
REMARK  11 active torsions:
REMARK  status: ('A' for Active; 'I' for Inactive)
REMARK    1  A    between atoms: C_1  and  C_2
REMARK    2  A    between atoms: C_2  and  O_3
REMARK    3  A    between atoms: O_3  and  P_4
REMARK    4  A    between atoms: P_4  and  C_6
REMARK    5  A    between atoms: P_4  and  O_19
REMARK    6  A    between atoms: C_6  and  C_7
REMARK    7  A    between atoms: C_7  and  C_8
REMARK    8  A    between atoms: C_8  and  C_9
REMARK    9  A    between atoms: N_11  and  C_12
REMARK   10  A    between atoms: O_19  and  C_20
REMARK   11  A    between atoms: C_20  and  C_21
REMARK                            x       y       z     vdW  Elec       q    Type
REMARK                         _______ _______ _______ _____ _____    ______ ____
ROOT
ATOM      1  C   UNL     1       3.805   3.981  19.572  0.00  0.00    +0.000 C 
ENDROOT
BRANCH   1   2
ATOM      2  C   UNL     1       2.803   5.055  19.202  0.00  0.00    +0.000 C 
ATOM      3  O   UNL     1       1.918   4.828  18.372  0.00  0.00    +0.000 OA
ATOM      4  N   UNL     1       2.995   6.240  19.888  0.00  0.00    +0.000 N 
ATOM      5  H   UNL     1       3.875   6.331  20.375  0.00  0.00    +0.000 HD
BRANCH   4   6
ATOM      6  C   UNL     1       2.185   7.381  19.821  0.00  0.00    +0.000 A 
ATOM      7  C   UNL     1       2.099   8.203  18.692  0.00  0.00    +0.000 A 
ATOM      8  C   UNL     1       1.320   9.365  18.713  0.00  0.00    +0.000 A 
ATOM      9  C   UNL     1       0.620   9.715  19.864  0.00  0.00    +0.000 A 
ATOM     10  C   UNL     1       0.670   8.878  20.977  0.00  0.00    +0.000 A 
ATOM     11 BR   UNL     1      -0.264   9.359  22.551  0.00  0.00    +0.000 Br
ATOM     12  C   UNL     1       1.426   7.706  20.957  0.00  0.00    +0.000 A 
ENDBRANCH   4   6
ENDBRANCH   1   2
BRANCH   1  13
ATOM     13  C   UNL     1       5.170   4.333  18.983  0.00  0.00    +0.000 C 
BRANCH  13  14
ATOM     14  C   UNL     1       5.090   4.642  17.482  0.00  0.00    +0.000 C 
BRANCH  14  15
ATOM     15  P   UNL     1       6.750   5.179  16.572  0.00  0.00    +0.000 P 
ATOM     16  O   UNL     1       7.877   4.360  17.221  0.00  0.00    +0.000 OA
BRANCH  15  17
ATOM     17  O   UNL     1       6.917   6.371  17.814  0.00  0.00    +0.000 OA
BRANCH  17  19
ATOM     18  C   UNL     1       8.299   8.284  18.260  0.00  0.00    +0.000 C 
ATOM     19  C   UNL     1       7.346   7.623  17.288  0.00  0.00    +0.000 C 
ENDBRANCH  17  19
ENDBRANCH  15  17
BRANCH  15  20
ATOM     20  O   UNL     1       6.583   3.987  15.330  0.00  0.00    +0.000 OA
BRANCH  20  21
ATOM     21  C   UNL     1       5.802   4.156  14.160  0.00  0.00    +0.000 C 
ATOM     22  C   UNL     1       6.529   3.797  12.879  0.00  0.00    +0.000 C 
ENDBRANCH  20  21
ENDBRANCH  15  20
ENDBRANCH  14  15
ENDBRANCH  13  14
ENDBRANCH   1  13
TORSDOF 9
ENDMDL
MODEL 3
REMARK VINA RESULT:      -6.1      1.855      2.236
REMARK  Name = 
REMARK  11 active torsions:
REMARK  status: ('A' for Active; 'I' for Inactive)
REMARK    1  A    between atoms: C_1  and  C_2
REMARK    2  A    between atoms: C_2  and  O_3
REMARK    3  A    between atoms: O_3  and  P_4
REMARK    4  A    between atoms: P_4  and  C_6
REMARK    5  A    between atoms: P_4  and  O_19
REMARK    6  A    between atoms: C_6  and  C_7
REMARK    7  A    between atoms: C_7  and  C_8
REMARK    8  A    between atoms: C_8  and  C_9
REMARK    9  A    between atoms: N_11  and  C_12
REMARK   10  A    between atoms: O_19  and  C_20
REMARK   11  A    between atoms: C_20  and  C_21
REMARK                            x       y       z     vdW  Elec       q    Type
REMARK                         _______ _______ _______ _____ _____    ______ ____
ROOT
ATOM      1  C   UNL     1       3.025   3.139  16.964  0.00  0.00    +0.000 C 
ENDROOT
BRANCH   1   2
ATOM      2  C   UNL     1       2.180   4.194  17.647  0.00  0.00    +0.000 C 
ATOM      3  O   UNL     1       0.955   4.067  17.717  0.00  0.00    +0.000 OA
ATOM      4  N   UNL     1       2.923   5.240  18.161  0.00  0.00    +0.000 N 
ATOM      5  H   UNL     1       3.881   5.298  17.847  0.00  0.00    +0.000 HD
BRANCH   4   6
ATOM      6  C   UNL     1       2.435   6.317  18.913  0.00  0.00    +0.000 A 
ATOM      7  C   UNL     1       2.001   6.201  20.238  0.00  0.00    +0.000 A 
ATOM      8  C   UNL     1       1.465   7.304  20.911  0.00  0.00    +0.000 A 
ATOM      9  C   UNL     1       1.358   8.532  20.266  0.00  0.00    +0.000 A 
ATOM     10  C   UNL     1       1.827   8.663  18.961  0.00  0.00    +0.000 A 
ATOM     11 BR   UNL     1       1.668  10.326  18.072  0.00  0.00    +0.000 Br
ATOM     12  C   UNL     1       2.384   7.574  18.288  0.00  0.00    +0.000 A 
ENDBRANCH   4   6
ENDBRANCH   1   2
BRANCH   1  13
ATOM     13  C   UNL     1       4.505   3.462  17.168  0.00  0.00    +0.000 C 
BRANCH  13  14
ATOM     14  C   UNL     1       5.205   3.821  15.849  0.00  0.00    +0.000 C 
BRANCH  14  15
ATOM     15  P   UNL     1       6.987   4.649  15.959  0.00  0.00    +0.000 P 
ATOM     16  O   UNL     1       6.747   6.164  16.057  0.00  0.00    +0.000 OA
BRANCH  15  17
ATOM     17  O   UNL     1       6.920   4.763  14.234  0.00  0.00    +0.000 OA
BRANCH  17  19
ATOM     18  C   UNL     1       6.374   3.514  12.256  0.00  0.00    +0.000 C 
ATOM     19  C   UNL     1       5.985   3.843  13.681  0.00  0.00    +0.000 C 
ENDBRANCH  17  19
ENDBRANCH  15  17
BRANCH  15  20
ATOM     20  O   UNL     1       7.052   4.536  17.683  0.00  0.00    +0.000 OA
BRANCH  20  21
ATOM     21  C   UNL     1       6.873   5.631  18.563  0.00  0.00    +0.000 C 
ATOM     22  C   UNL     1       7.962   5.764  19.609  0.00  0.00    +0.000 C 
ENDBRANCH  20  21
ENDBRANCH  15  20
ENDBRANCH  14  15
ENDBRANCH  13  14
ENDBRANCH   1  13
TORSDOF 9
ENDMDL
MODEL 4
REMARK VINA RESULT:      -6.1      3.949      7.448
REMARK  Name = 
REMARK  11 active torsions:
REMARK  status: ('A' for Active; 'I' for Inactive)
REMARK    1  A    between atoms: C_1  and  C_2
REMARK    2  A    between atoms: C_2  and  O_3
REMARK    3  A    between atoms: O_3  and  P_4
REMARK    4  A    between atoms: P_4  and  C_6
REMARK    5  A    between atoms: P_4  and  O_19
REMARK    6  A    between atoms: C_6  and  C_7
REMARK    7  A    between atoms: C_7  and  C_8
REMARK    8  A    between atoms: C_8  and  C_9
REMARK    9  A    between atoms: N_11  and  C_12
REMARK   10  A    between atoms: O_19  and  C_20
REMARK   11  A    between atoms: C_20  and  C_21
REMARK                            x       y       z     vdW  Elec       q    Type
REMARK                         _______ _______ _______ _____ _____    ______ ____
ROOT
ATOM      1  C   UNL     1       6.346   4.507  18.570  0.00  0.00    +0.000 C 
ENDROOT
BRANCH   1   2
ATOM      2  C   UNL     1       7.064   4.445  17.239  0.00  0.00    +0.000 C 
ATOM      3  O   UNL     1       8.276   4.211  17.191  0.00  0.00    +0.000 OA
ATOM      4  N   UNL     1       6.230   4.655  16.158  0.00  0.00    +0.000 N 
ATOM      5  H   UNL     1       5.317   5.029  16.370  0.00  0.00    +0.000 HD
BRANCH   4   6
ATOM      6  C   UNL     1       6.585   4.578  14.804  0.00  0.00    +0.000 A 
ATOM      7  C   UNL     1       7.649   5.292  14.242  0.00  0.00    +0.000 A 
ATOM      8  C   UNL     1       7.910   5.219  12.870  0.00  0.00    +0.000 A 
ATOM      9  C   UNL     1       7.109   4.433  12.047  0.00  0.00    +0.000 A 
ATOM     10  C   UNL     1       6.074   3.689  12.608  0.00  0.00    +0.000 A 
ATOM     11 BR   UNL     1       4.970   2.633  11.492  0.00  0.00    +0.000 Br
ATOM     12  C   UNL     1       5.820   3.737  13.980  0.00  0.00    +0.000 A 
ENDBRANCH   4   6
ENDBRANCH   1   2
BRANCH   1  13
ATOM     13  C   UNL     1       5.463   5.754  18.615  0.00  0.00    +0.000 C 
BRANCH  13  14
ATOM     14  C   UNL     1       4.162   5.514  19.394  0.00  0.00    +0.000 C 
BRANCH  14  15
ATOM     15  P   UNL     1       2.678   4.639  18.443  0.00  0.00    +0.000 P 
ATOM     16  O   UNL     1       3.268   4.112  17.125  0.00  0.00    +0.000 OA
BRANCH  15  17
ATOM     17  O   UNL     1       2.401   6.173  17.690  0.00  0.00    +0.000 OA
BRANCH  17  19
ATOM     18  C   UNL     1       2.364   8.561  17.937  0.00  0.00    +0.000 C 
ATOM     19  C   UNL     1       2.341   7.226  18.647  0.00  0.00    +0.000 C 
ENDBRANCH  17  19
ENDBRANCH  15  17
BRANCH  15  20
ATOM     20  O   UNL     1       2.956   3.107  19.195  0.00  0.00    +0.000 OA
BRANCH  20  21
ATOM     21  C   UNL     1       3.099   2.917  20.590  0.00  0.00    +0.000 C 
ATOM     22  C   UNL     1       1.835   3.191  21.381  0.00  0.00    +0.000 C 
ENDBRANCH  20  21
ENDBRANCH  15  20
ENDBRANCH  14  15
ENDBRANCH  13  14
ENDBRANCH   1  13
TORSDOF 9
ENDMDL
MODEL 5
REMARK VINA RESULT:      -6.0      1.170      1.303
REMARK  Name = 
REMARK  11 active torsions:
REMARK  status: ('A' for Active; 'I' for Inactive)
REMARK    1  A    between atoms: C_1  and  C_2
REMARK    2  A    between atoms: C_2  and  O_3
REMARK    3  A    between atoms: O_3  and  P_4
REMARK    4  A    between atoms: P_4  and  C_6
REMARK    5  A    between atoms: P_4  and  O_19
REMARK    6  A    between atoms: C_6  and  C_7
REMARK    7  A    between atoms: C_7  and  C_8
REMARK    8  A    between atoms: C_8  and  C_9
REMARK    9  A    between atoms: N_11  and  C_12
REMARK   10  A    between atoms: O_19  and  C_20
REMARK   11  A    between atoms: C_20  and  C_21
REMARK                            x       y       z     vdW  Elec       q    Type
REMARK                         _______ _______ _______ _____ _____    ______ ____
ROOT
ATOM      1  C   UNL     1       3.944   3.770  19.022  0.00  0.00    +0.000 C 
ENDROOT
BRANCH   1   2
ATOM      2  C   UNL     1       2.856   4.812  18.874  0.00  0.00    +0.000 C 
ATOM      3  O   UNL     1       1.691   4.474  18.641  0.00  0.00    +0.000 OA
ATOM      4  N   UNL     1       3.312   6.106  19.041  0.00  0.00    +0.000 N 
ATOM      5  H   UNL     1       4.314   6.227  19.025  0.00  0.00    +0.000 HD
BRANCH   4   6
ATOM      6  C   UNL     1       2.532   7.270  19.044  0.00  0.00    +0.000 A 
ATOM      7  C   UNL     1       2.388   8.106  17.931  0.00  0.00    +0.000 A 
ATOM      8  C   UNL     1       1.646   9.289  18.019  0.00  0.00    +0.000 A 
ATOM      9  C   UNL     1       1.043   9.647  19.222  0.00  0.00    +0.000 A 
ATOM     10  C   UNL     1       1.149   8.797  20.320  0.00  0.00    +0.000 A 
ATOM     11 BR   UNL     1       0.346   9.287  21.962  0.00  0.00    +0.000 Br
ATOM     12  C   UNL     1       1.868   7.604  20.235  0.00  0.00    +0.000 A 
ENDBRANCH   4   6
ENDBRANCH   1   2
BRANCH   1  13
ATOM     13  C   UNL     1       4.377   3.287  17.639  0.00  0.00    +0.000 C 
BRANCH  13  14
ATOM     14  C   UNL     1       4.134   4.345  16.554  0.00  0.00    +0.000 C 
BRANCH  14  15
ATOM     15  P   UNL     1       5.699   5.316  15.860  0.00  0.00    +0.000 P 
ATOM     16  O   UNL     1       5.184   6.696  15.421  0.00  0.00    +0.000 OA
BRANCH  15  17
ATOM     17  O   UNL     1       5.271   4.677  14.310  0.00  0.00    +0.000 OA
BRANCH  17  19
ATOM     18  C   UNL     1       6.231   3.578  12.403  0.00  0.00    +0.000 C 
ATOM     19  C   UNL     1       6.146   3.627  13.913  0.00  0.00    +0.000 C 
ENDBRANCH  17  19
ENDBRANCH  15  17
BRANCH  15  20
ATOM     20  O   UNL     1       6.126   5.954  17.410  0.00  0.00    +0.000 OA
BRANCH  20  21
ATOM     21  C   UNL     1       7.367   5.726  18.052  0.00  0.00    +0.000 C 
ATOM     22  C   UNL     1       7.270   5.638  19.563  0.00  0.00    +0.000 C 
ENDBRANCH  20  21
ENDBRANCH  15  20
ENDBRANCH  14  15
ENDBRANCH  13  14
ENDBRANCH   1  13
TORSDOF 9
ENDMDL
MODEL 6
REMARK VINA RESULT:      -5.9      1.251      2.950
REMARK  Name = 
REMARK  11 active torsions:
REMARK  status: ('A' for Active; 'I' for Inactive)
REMARK    1  A    between atoms: C_1  and  C_2
REMARK    2  A    between atoms: C_2  and  O_3
REMARK    3  A    between atoms: O_3  and  P_4
REMARK    4  A    between atoms: P_4  and  C_6
REMARK    5  A    between atoms: P_4  and  O_19
REMARK    6  A    between atoms: C_6  and  C_7
REMARK    7  A    between atoms: C_7  and  C_8
REMARK    8  A    between atoms: C_8  and  C_9
REMARK    9  A    between atoms: N_11  and  C_12
REMARK   10  A    between atoms: O_19  and  C_20
REMARK   11  A    between atoms: C_20  and  C_21
REMARK                            x       y       z     vdW  Elec       q    Type
REMARK                         _______ _______ _______ _____ _____    ______ ____
ROOT
ATOM      1  C   UNL     1       3.560   4.812  19.684  0.00  0.00    +0.000 C 
ENDROOT
BRANCH   1   2
ATOM      2  C   UNL     1       2.370   5.703  19.969  0.00  0.00    +0.000 C 
ATOM      3  O   UNL     1       1.338   5.235  20.457  0.00  0.00    +0.000 OA
ATOM      4  N   UNL     1       2.590   7.029  19.643  0.00  0.00    +0.000 N 
ATOM      5  H   UNL     1       3.401   7.215  19.072  0.00  0.00    +0.000 HD
BRANCH   4   6
ATOM      6  C   UNL     1       1.712   8.098  19.866  0.00  0.00    +0.000 A 
ATOM      7  C   UNL     1       1.327   9.002  18.870  0.00  0.00    +0.000 A 
ATOM      8  C   UNL     1       0.497  10.086  19.174  0.00  0.00    +0.000 A 
ATOM      9  C   UNL     1       0.046  10.277  20.478  0.00  0.00    +0.000 A 
ATOM     10  C   UNL     1       0.394   9.357  21.463  0.00  0.00    +0.000 A 
ATOM     11 BR   UNL     1      -0.201   9.621  23.241  0.00  0.00    +0.000 Br
ATOM     12  C   UNL     1       1.203   8.259  21.165  0.00  0.00    +0.000 A 
ENDBRANCH   4   6
ENDBRANCH   1   2
BRANCH   1  13
ATOM     13  C   UNL     1       4.769   5.676  19.324  0.00  0.00    +0.000 C 
BRANCH  13  14
ATOM     14  C   UNL     1       6.034   4.835  19.100  0.00  0.00    +0.000 C 
BRANCH  14  15
ATOM     15  P   UNL     1       7.008   5.089  17.409  0.00  0.00    +0.000 P 
ATOM     16  O   UNL     1       8.286   4.243  17.522  0.00  0.00    +0.000 OA
BRANCH  15  17
ATOM     17  O   UNL     1       7.820   6.397  18.199  0.00  0.00    +0.000 OA
BRANCH  17  19
ATOM     18  C   UNL     1       8.373   8.734  18.220  0.00  0.00    +0.000 C 
ATOM     19  C   UNL     1       7.572   7.639  17.548  0.00  0.00    +0.000 C 
ENDBRANCH  17  19
ENDBRANCH  15  17
BRANCH  15  20
ATOM     20  O   UNL     1       6.197   3.781  16.620  0.00  0.00    +0.000 OA
BRANCH  20  21
ATOM     21  C   UNL     1       5.582   3.874  15.348  0.00  0.00    +0.000 C 
ATOM     22  C   UNL     1       5.709   5.240  14.702  0.00  0.00    +0.000 C 
ENDBRANCH  20  21
ENDBRANCH  15  20
ENDBRANCH  14  15
ENDBRANCH  13  14
ENDBRANCH   1  13
TORSDOF 9
ENDMDL
MODEL 7
REMARK VINA RESULT:      -5.7      3.869      6.992
REMARK  Name = 
REMARK  11 active torsions:
REMARK  status: ('A' for Active; 'I' for Inactive)
REMARK    1  A    between atoms: C_1  and  C_2
REMARK    2  A    between atoms: C_2  and  O_3
REMARK    3  A    between atoms: O_3  and  P_4
REMARK    4  A    between atoms: P_4  and  C_6
REMARK    5  A    between atoms: P_4  and  O_19
REMARK    6  A    between atoms: C_6  and  C_7
REMARK    7  A    between atoms: C_7  and  C_8
REMARK    8  A    between atoms: C_8  and  C_9
REMARK    9  A    between atoms: N_11  and  C_12
REMARK   10  A    between atoms: O_19  and  C_20
REMARK   11  A    between atoms: C_20  and  C_21
REMARK                            x       y       z     vdW  Elec       q    Type
REMARK                         _______ _______ _______ _____ _____    ______ ____
ROOT
ATOM      1  C   UNL     1       8.216   7.324  18.606  0.00  0.00    +0.000 C 
ENDROOT
BRANCH   1   2
ATOM      2  C   UNL     1       8.378   8.814  18.391  0.00  0.00    +0.000 C 
ATOM      3  O   UNL     1       7.702   9.402  17.542  0.00  0.00    +0.000 OA
ATOM      4  N   UNL     1       9.313   9.388  19.231  0.00  0.00    +0.000 N 
ATOM      5  H   UNL     1       9.919   8.747  19.722  0.00  0.00    +0.000 HD
BRANCH   4   6
ATOM      6  C   UNL     1       9.622  10.752  19.325  0.00  0.00    +0.000 A 
ATOM      7  C   UNL     1      10.306  11.460  18.331  0.00  0.00    +0.000 A 
ATOM      8  C   UNL     1      10.640  12.806  18.515  0.00  0.00    +0.000 A 
ATOM      9  C   UNL     1      10.294  13.455  19.697  0.00  0.00    +0.000 A 
ATOM     10  C   UNL     1       9.577  12.766  20.672  0.00  0.00    +0.000 A 
ATOM     11 BR   UNL     1       9.120  13.639  22.288  0.00  0.00    +0.000 Br
ATOM     12  C   UNL     1       9.219  11.430  20.488  0.00  0.00    +0.000 A 
ENDBRANCH   4   6
ENDBRANCH   1   2
BRANCH   1  13
ATOM     13  C   UNL     1       7.390   6.732  17.465  0.00  0.00    +0.000 C 
BRANCH  13  14
ATOM     14  C   UNL     1       7.112   5.236  17.668  0.00  0.00    +0.000 C 
BRANCH  14  15
ATOM     15  P   UNL     1       5.260   4.613  17.441  0.00  0.00    +0.000 P 
ATOM     16  O   UNL     1       4.555   5.675  16.582  0.00  0.00    +0.000 OA
BRANCH  15  17
ATOM     17  O   UNL     1       4.891   5.534  18.858  0.00  0.00    +0.000 OA
BRANCH  17  19
ATOM     18  C   UNL     1       2.696   6.172  19.593  0.00  0.00    +0.000 C 
ATOM     19  C   UNL     1       3.716   5.058  19.505  0.00  0.00    +0.000 C 
ENDBRANCH  17  19
ENDBRANCH  15  17
BRANCH  15  20
ATOM     20  O   UNL     1       5.628   3.693  16.023  0.00  0.00    +0.000 OA
BRANCH  20  21
ATOM     21  C   UNL     1       6.493   4.130  14.991  0.00  0.00    +0.000 C 
ATOM     22  C   UNL     1       5.968   3.859  13.594  0.00  0.00    +0.000 C 
ENDBRANCH  20  21
ENDBRANCH  15  20
ENDBRANCH  14  15
ENDBRANCH  13  14
ENDBRANCH   1  13
TORSDOF 9
ENDMDL
MODEL 8
REMARK VINA RESULT:      -5.7      3.127      4.972
REMARK  Name = 
REMARK  11 active torsions:
REMARK  status: ('A' for Active; 'I' for Inactive)
REMARK    1  A    between atoms: C_1  and  C_2
REMARK    2  A    between atoms: C_2  and  O_3
REMARK    3  A    between atoms: O_3  and  P_4
REMARK    4  A    between atoms: P_4  and  C_6
REMARK    5  A    between atoms: P_4  and  O_19
REMARK    6  A    between atoms: C_6  and  C_7
REMARK    7  A    between atoms: C_7  and  C_8
REMARK    8  A    between atoms: C_8  and  C_9
REMARK    9  A    between atoms: N_11  and  C_12
REMARK   10  A    between atoms: O_19  and  C_20
REMARK   11  A    between atoms: C_20  and  C_21
REMARK                            x       y       z     vdW  Elec       q    Type
REMARK                         _______ _______ _______ _____ _____    ______ ____
ROOT
ATOM      1  C   UNL     1       3.075   7.410  18.086  0.00  0.00    +0.000 C 
ENDROOT
BRANCH   1   2
ATOM      2  C   UNL     1       2.009   8.270  18.730  0.00  0.00    +0.000 C 
ATOM      3  O   UNL     1       1.763   8.166  19.935  0.00  0.00    +0.000 OA
ATOM      4  N   UNL     1       1.401   9.140  17.845  0.00  0.00    +0.000 N 
ATOM      5  H   UNL     1       1.569   8.963  16.865  0.00  0.00    +0.000 HD
BRANCH   4   6
ATOM      6  C   UNL     1       0.441  10.112  18.159  0.00  0.00    +0.000 A 
ATOM      7  C   UNL     1       0.730  11.284  18.866  0.00  0.00    +0.000 A 
ATOM      8  C   UNL     1      -0.287  12.183  19.202  0.00  0.00    +0.000 A 
ATOM      9  C   UNL     1      -1.603  11.917  18.835  0.00  0.00    +0.000 A 
ATOM     10  C   UNL     1      -1.890  10.773  18.095  0.00  0.00    +0.000 A 
ATOM     11 BR   UNL     1      -3.679  10.397  17.609  0.00  0.00    +0.000 Br
ATOM     12  C   UNL     1      -0.878   9.881  17.735  0.00  0.00    +0.000 A 
ENDBRANCH   4   6
ENDBRANCH   1   2
BRANCH   1  13
ATOM     13  C   UNL     1       3.246   6.122  18.891  0.00  0.00    +0.000 C 
BRANCH  13  14
ATOM     14  C   UNL     1       2.199   5.063  18.517  0.00  0.00    +0.000 C 
BRANCH  14  15
ATOM     15  P   UNL     1       2.771   3.180  18.507  0.00  0.00    +0.000 P 
ATOM     16  O   UNL     1       2.304   2.599  17.163  0.00  0.00    +0.000 OA
BRANCH  15  17
ATOM     17  O   UNL     1       1.221   2.820  19.186  0.00  0.00    +0.000 OA
BRANCH  17  19
ATOM     18  C   UNL     1       1.551   2.734  21.563  0.00  0.00    +0.000 C 
ATOM     19  C   UNL     1       1.000   3.530  20.401  0.00  0.00    +0.000 C 
ENDBRANCH  17  19
ENDBRANCH  15  17
BRANCH  15  20
ATOM     20  O   UNL     1       4.320   3.541  17.828  0.00  0.00    +0.000 OA
BRANCH  20  21
ATOM     21  C   UNL     1       4.536   3.887  16.472  0.00  0.00    +0.000 C 
ATOM     22  C   UNL     1       5.803   4.685  16.236  0.00  0.00    +0.000 C 
ENDBRANCH  20  21
ENDBRANCH  15  20
ENDBRANCH  14  15
ENDBRANCH  13  14
ENDBRANCH   1  13
TORSDOF 9
ENDMDL
MODEL 9
REMARK VINA RESULT:      -5.7      2.997      4.503
REMARK  Name = 
REMARK  11 active torsions:
REMARK  status: ('A' for Active; 'I' for Inactive)
REMARK    1  A    between atoms: C_1  and  C_2
REMARK    2  A    between atoms: C_2  and  O_3
REMARK    3  A    between atoms: O_3  and  P_4
REMARK    4  A    between atoms: P_4  and  C_6
REMARK    5  A    between atoms: P_4  and  O_19
REMARK    6  A    between atoms: C_6  and  C_7
REMARK    7  A    between atoms: C_7  and  C_8
REMARK    8  A    between atoms: C_8  and  C_9
REMARK    9  A    between atoms: N_11  and  C_12
REMARK   10  A    between atoms: O_19  and  C_20
REMARK   11  A    between atoms: C_20  and  C_21
REMARK                            x       y       z     vdW  Elec       q    Type
REMARK                         _______ _______ _______ _____ _____    ______ ____
ROOT
ATOM      1  C   UNL     1       2.238   7.327  18.833  0.00  0.00    +0.000 C 
ENDROOT
BRANCH   1   2
ATOM      2  C   UNL     1       1.887   8.699  18.298  0.00  0.00    +0.000 C 
ATOM      3  O   UNL     1       2.304   9.068  17.197  0.00  0.00    +0.000 OA
ATOM      4  N   UNL     1       1.076   9.425  19.149  0.00  0.00    +0.000 N 
ATOM      5  H   UNL     1       0.990   9.069  20.090  0.00  0.00    +0.000 HD
BRANCH   4   6
ATOM      6  C   UNL     1       0.522  10.687  18.896  0.00  0.00    +0.000 A 
ATOM      7  C   UNL     1      -0.817  10.886  18.542  0.00  0.00    +0.000 A 
ATOM      8  C   UNL     1      -1.292  12.167  18.240  0.00  0.00    +0.000 A 
ATOM      9  C   UNL     1      -0.432  13.260  18.289  0.00  0.00    +0.000 A 
ATOM     10  C   UNL     1       0.892  13.073  18.680  0.00  0.00    +0.000 A 
ATOM     11 BR   UNL     1       2.071  14.552  18.730  0.00  0.00    +0.000 Br
ATOM     12  C   UNL     1       1.369  11.802  19.006  0.00  0.00    +0.000 A 
ENDBRANCH   4   6
ENDBRANCH   1   2
BRANCH   1  13
ATOM     13  C   UNL     1       3.404   6.750  18.030  0.00  0.00    +0.000 C 
BRANCH  13  14
ATOM     14  C   UNL     1       4.295   5.834  18.881  0.00  0.00    +0.000 C 
BRANCH  14  15
ATOM     15  P   UNL     1       4.474   3.957  18.318  0.00  0.00    +0.000 P 
ATOM     16  O   UNL     1       5.259   3.250  19.433  0.00  0.00    +0.000 OA
BRANCH  15  17
ATOM     17  O   UNL     1       5.967   4.433  17.586  0.00  0.00    +0.000 OA
BRANCH  17  19
ATOM     18  C   UNL     1       5.609   5.327  15.386  0.00  0.00    +0.000 C 
ATOM     19  C   UNL     1       6.000   4.112  16.199  0.00  0.00    +0.000 C 
ENDBRANCH  17  19
ENDBRANCH  15  17
BRANCH  15  20
ATOM     20  O   UNL     1       2.980   3.482  19.050  0.00  0.00    +0.000 OA
BRANCH  20  21
ATOM     21  C   UNL     1       2.594   3.824  20.369  0.00  0.00    +0.000 C 
ATOM     22  C   UNL     1       1.103   4.045  20.534  0.00  0.00    +0.000 C 
ENDBRANCH  20  21
ENDBRANCH  15  20
ENDBRANCH  14  15
ENDBRANCH  13  14
ENDBRANCH   1  13
TORSDOF 9
ENDMDL
