MODEL 1
REMARK VINA RESULT:      -7.1      0.000      0.000
REMARK  Name = 
REMARK  5 active torsions:
REMARK  status: ('A' for Active; 'I' for Inactive)
REMARK    1  A    between atoms: C_1  and  C_2
REMARK    2  A    between atoms: C_5  and  C_6
REMARK    3  A    between atoms: C_6  and  O_7
REMARK    4  A    between atoms: C_6  and  C_8
REMARK    5  A    between atoms: N_16  and  C_17
REMARK                            x       y       z     vdW  Elec       q    Type
REMARK                         _______ _______ _______ _____ _____    ______ ____
ROOT
ATOM      1  C   UNL     1       5.481   4.756  16.962  0.00  0.00    +0.000 C 
ENDROOT
BRANCH   1   2
ATOM      2  C   UNL     1       4.554   4.311  18.065  0.00  0.00    +0.000 A 
ATOM      3  N   UNL     1       4.720   3.224  18.801  0.00  0.00    +0.000 NA
ATOM      4  C   UNL     1       3.711   3.248  19.729  0.00  0.00    +0.000 A 
ATOM      5  C   UNL     1       3.445   2.352  20.777  0.00  0.00    +0.000 A 
ATOM      6  C   UNL     1       2.356   2.601  21.621  0.00  0.00    +0.000 A 
ATOM      7  C   UNL     1       1.545   3.719  21.424  0.00  0.00    +0.000 A 
ATOM      8  C   UNL     1       1.790   4.619  20.379  0.00  0.00    +0.000 A 
ATOM      9  C   UNL     1       2.886   4.354  19.547  0.00  0.00    +0.000 A 
ATOM     10  N   UNL     1       3.424   4.997  18.456  0.00  0.00    +0.000 N 
ATOM     11  C   UNL     1       2.903   6.192  17.837  0.00  0.00    +0.000 C 
ENDBRANCH   1   2
BRANCH   1  16
ATOM     12  C   UNL     1       8.904   9.105  18.809  0.00  0.00    +0.000 C 
ATOM     13  C   UNL     1       8.068   7.979  18.279  0.00  0.00    +0.000 A 
ATOM     14  C   UNL     1       7.137   8.189  17.257  0.00  0.00    +0.000 A 
ATOM     15  C   UNL     1       6.321   7.145  16.812  0.00  0.00    +0.000 A 
ATOM     16  C   UNL     1       6.413   5.871  17.390  0.00  0.00    +0.000 A 
ATOM     17  C   UNL     1       7.374   5.659  18.394  0.00  0.00    +0.000 A 
ATOM     18  C   UNL     1       8.189   6.702  18.836  0.00  0.00    +0.000 A 
ENDBRANCH   1  16
BRANCH   1  19
ATOM     19  O   UNL     1       6.266   3.626  16.576  0.00  0.00    +0.000 OA
ATOM     20  H   UNL     1       6.185   3.584  15.602  0.00  0.00    +0.000 HD
ENDBRANCH   1  19
TORSDOF 3
ENDMDL
MODEL 2
REMARK VINA RESULT:      -7.0      2.075      3.332
REMARK  Name = 
REMARK  5 active torsions:
REMARK  status: ('A' for Active; 'I' for Inactive)
REMARK    1  A    between atoms: C_1  and  C_2
REMARK    2  A    between atoms: C_5  and  C_6
REMARK    3  A    between atoms: C_6  and  O_7
REMARK    4  A    between atoms: C_6  and  C_8
REMARK    5  A    between atoms: N_16  and  C_17
REMARK                            x       y       z     vdW  Elec       q    Type
REMARK                         _______ _______ _______ _____ _____    ______ ____
ROOT
ATOM      1  C   UNL     1       6.432   4.800  18.012  0.00  0.00    +0.000 C 
ENDROOT
BRANCH   1   2
ATOM      2  C   UNL     1       5.143   4.428  18.700  0.00  0.00    +0.000 A 
ATOM      3  N   UNL     1       4.969   3.352  19.451  0.00  0.00    +0.000 NA
ATOM      4  C   UNL     1       3.694   3.447  19.945  0.00  0.00    +0.000 A 
ATOM      5  C   UNL     1       3.013   2.591  20.826  0.00  0.00    +0.000 A 
ATOM      6  C   UNL     1       1.708   2.915  21.212  0.00  0.00    +0.000 A 
ATOM      7  C   UNL     1       1.087   4.066  20.728  0.00  0.00    +0.000 A 
ATOM      8  C   UNL     1       1.747   4.929  19.842  0.00  0.00    +0.000 A 
ATOM      9  C   UNL     1       3.054   4.589  19.470  0.00  0.00    +0.000 A 
ATOM     10  N   UNL     1       3.988   5.179  18.649  0.00  0.00    +0.000 N 
ATOM     11  C   UNL     1       3.796   6.384  17.878  0.00  0.00    +0.000 C 
ENDBRANCH   1   2
BRANCH   1  16
ATOM     12  C   UNL     1       6.395   3.726  12.277  0.00  0.00    +0.000 C 
ATOM     13  C   UNL     1       6.371   4.064  13.738  0.00  0.00    +0.000 A 
ATOM     14  C   UNL     1       7.316   4.931  14.295  0.00  0.00    +0.000 A 
ATOM     15  C   UNL     1       7.321   5.190  15.669  0.00  0.00    +0.000 A 
ATOM     16  C   UNL     1       6.385   4.578  16.515  0.00  0.00    +0.000 A 
ATOM     17  C   UNL     1       5.418   3.734  15.943  0.00  0.00    +0.000 A 
ATOM     18  C   UNL     1       5.413   3.476  14.571  0.00  0.00    +0.000 A 
ENDBRANCH   1  16
BRANCH   1  19
ATOM     19  O   UNL     1       6.671   6.186  18.263  0.00  0.00    +0.000 OA
ATOM     20  H   UNL     1       7.112   6.515  17.455  0.00  0.00    +0.000 HD
ENDBRANCH   1  19
TORSDOF 3
ENDMDL
MODEL 3
REMARK VINA RESULT:      -7.0      0.527      1.223
REMARK  Name = 
REMARK  5 active torsions:
REMARK  status: ('A' for Active; 'I' for Inactive)
REMARK    1  A    between atoms: C_1  and  C_2
REMARK    2  A    between atoms: C_5  and  C_6
REMARK    3  A    between atoms: C_6  and  O_7
REMARK    4  A    between atoms: C_6  and  C_8
REMARK    5  A    between atoms: N_16  and  C_17
REMARK                            x       y       z     vdW  Elec       q    Type
REMARK                         _______ _______ _______ _____ _____    ______ ____
ROOT
ATOM      1  C   UNL     1       6.127   4.864  17.220  0.00  0.00    +0.000 C 
ENDROOT
BRANCH   1   2
ATOM      2  C   UNL     1       5.045   4.426  18.175  0.00  0.00    +0.000 A 
ATOM      3  N   UNL     1       5.124   3.379  18.979  0.00  0.00    +0.000 NA
ATOM      4  C   UNL     1       3.975   3.398  19.726  0.00  0.00    +0.000 A 
ATOM      5  C   UNL     1       3.568   2.536  20.758  0.00  0.00    +0.000 A 
ATOM      6  C   UNL     1       2.347   2.774  21.398  0.00  0.00    +0.000 A 
ATOM      7  C   UNL     1       1.542   3.848  21.017  0.00  0.00    +0.000 A 
ATOM      8  C   UNL     1       1.927   4.714  19.985  0.00  0.00    +0.000 A 
ATOM      9  C   UNL     1       3.154   4.461  19.359  0.00  0.00    +0.000 A 
ATOM     10  N   UNL     1       3.843   5.080  18.342  0.00  0.00    +0.000 N 
ATOM     11  C   UNL     1       3.392   6.226  17.589  0.00  0.00    +0.000 C 
ENDBRANCH   1   2
BRANCH   1  16
ATOM     12  C   UNL     1       9.109   9.615  18.823  0.00  0.00    +0.000 C 
ATOM     13  C   UNL     1       8.298   8.406  18.465  0.00  0.00    +0.000 A 
ATOM     14  C   UNL     1       8.473   7.194  19.140  0.00  0.00    +0.000 A 
ATOM     15  C   UNL     1       7.755   6.057  18.757  0.00  0.00    +0.000 A 
ATOM     16  C   UNL     1       6.854   6.109  17.684  0.00  0.00    +0.000 A 
ATOM     17  C   UNL     1       6.659   7.339  17.033  0.00  0.00    +0.000 A 
ATOM     18  C   UNL     1       7.376   8.474  17.416  0.00  0.00    +0.000 A 
ENDBRANCH   1  16
BRANCH   1  19
ATOM     19  O   UNL     1       7.070   3.795  17.117  0.00  0.00    +0.000 OA
ATOM     20  H   UNL     1       7.580   3.827  17.950  0.00  0.00    +0.000 HD
ENDBRANCH   1  19
TORSDOF 3
ENDMDL
MODEL 4
REMARK VINA RESULT:      -7.0      2.932      6.809
REMARK  Name = 
REMARK  5 active torsions:
REMARK  status: ('A' for Active; 'I' for Inactive)
REMARK    1  A    between atoms: C_1  and  C_2
REMARK    2  A    between atoms: C_5  and  C_6
REMARK    3  A    between atoms: C_6  and  O_7
REMARK    4  A    between atoms: C_6  and  C_8
REMARK    5  A    between atoms: N_16  and  C_17
REMARK                            x       y       z     vdW  Elec       q    Type
REMARK                         _______ _______ _______ _____ _____    ______ ____
ROOT
ATOM      1  C   UNL     1       5.490   4.630  17.910  0.00  0.00    +0.000 C 
ENDROOT
BRANCH   1   2
ATOM      2  C   UNL     1       5.979   4.530  16.487  0.00  0.00    +0.000 A 
ATOM      3  N   UNL     1       5.588   3.615  15.614  0.00  0.00    +0.000 NA
ATOM      4  C   UNL     1       6.205   3.941  14.434  0.00  0.00    +0.000 A 
ATOM      5  C   UNL     1       6.105   3.324  13.177  0.00  0.00    +0.000 A 
ATOM      6  C   UNL     1       6.821   3.859  12.101  0.00  0.00    +0.000 A 
ATOM      7  C   UNL     1       7.626   4.986  12.272  0.00  0.00    +0.000 A 
ATOM      8  C   UNL     1       7.744   5.612  13.520  0.00  0.00    +0.000 A 
ATOM      9  C   UNL     1       7.017   5.062  14.584  0.00  0.00    +0.000 A 
ATOM     10  N   UNL     1       6.884   5.398  15.912  0.00  0.00    +0.000 N 
ATOM     11  C   UNL     1       7.563   6.479  16.584  0.00  0.00    +0.000 C 
ENDBRANCH   1   2
BRANCH   1  16
ATOM     12  C   UNL     1       0.256   2.260  18.925  0.00  0.00    +0.000 C 
ATOM     13  C   UNL     1       1.606   2.828  18.605  0.00  0.00    +0.000 A 
ATOM     14  C   UNL     1       2.777   2.143  18.944  0.00  0.00    +0.000 A 
ATOM     15  C   UNL     1       4.030   2.710  18.697  0.00  0.00    +0.000 A 
ATOM     16  C   UNL     1       4.136   3.981  18.114  0.00  0.00    +0.000 A 
ATOM     17  C   UNL     1       2.956   4.649  17.745  0.00  0.00    +0.000 A 
ATOM     18  C   UNL     1       1.705   4.081  17.992  0.00  0.00    +0.000 A 
ENDBRANCH   1  16
BRANCH   1  19
ATOM     19  O   UNL     1       6.445   3.969  18.743  0.00  0.00    +0.000 OA
ATOM     20  H   UNL     1       6.189   4.207  19.656  0.00  0.00    +0.000 HD
ENDBRANCH   1  19
TORSDOF 3
ENDMDL
MODEL 5
REMARK VINA RESULT:      -6.9      0.970      1.080
REMARK  Name = 
REMARK  5 active torsions:
REMARK  status: ('A' for Active; 'I' for Inactive)
REMARK    1  A    between atoms: C_1  and  C_2
REMARK    2  A    between atoms: C_5  and  C_6
REMARK    3  A    between atoms: C_6  and  O_7
REMARK    4  A    between atoms: C_6  and  C_8
REMARK    5  A    between atoms: N_16  and  C_17
REMARK                            x       y       z     vdW  Elec       q    Type
REMARK                         _______ _______ _______ _____ _____    ______ ____
ROOT
ATOM      1  C   UNL     1       4.701   4.062  16.774  0.00  0.00    +0.000 C 
ENDROOT
BRANCH   1   2
ATOM      2  C   UNL     1       3.918   3.647  17.994  0.00  0.00    +0.000 A 
ATOM      3  N   UNL     1       4.405   2.942  19.002  0.00  0.00    +0.000 NA
ATOM      4  C   UNL     1       3.393   2.868  19.924  0.00  0.00    +0.000 A 
ATOM      5  C   UNL     1       3.388   2.267  21.194  0.00  0.00    +0.000 A 
ATOM      6  C   UNL     1       2.229   2.344  21.974  0.00  0.00    +0.000 A 
ATOM      7  C   UNL     1       1.094   3.001  21.500  0.00  0.00    +0.000 A 
ATOM      8  C   UNL     1       1.077   3.600  20.233  0.00  0.00    +0.000 A 
ATOM      9  C   UNL     1       2.248   3.515  19.469  0.00  0.00    +0.000 A 
ATOM     10  N   UNL     1       2.597   3.973  18.219  0.00  0.00    +0.000 N 
ATOM     11  C   UNL     1       1.734   4.684  17.307  0.00  0.00    +0.000 C 
ENDBRANCH   1   2
BRANCH   1  16
ATOM     12  C   UNL     1       8.223   8.535  18.054  0.00  0.00    +0.000 C 
ATOM     13  C   UNL     1       7.345   7.385  17.659  0.00  0.00    +0.000 A 
ATOM     14  C   UNL     1       6.152   7.595  16.960  0.00  0.00    +0.000 A 
ATOM     15  C   UNL     1       5.311   6.522  16.651  0.00  0.00    +0.000 A 
ATOM     16  C   UNL     1       5.643   5.217  17.044  0.00  0.00    +0.000 A 
ATOM     17  C   UNL     1       6.860   5.011  17.716  0.00  0.00    +0.000 A 
ATOM     18  C   UNL     1       7.699   6.083  18.024  0.00  0.00    +0.000 A 
ENDBRANCH   1  16
BRANCH   1  19
ATOM     19  O   UNL     1       5.470   2.935  16.350  0.00  0.00    +0.000 OA
ATOM     20  H   UNL     1       4.943   2.526  15.635  0.00  0.00    +0.000 HD
ENDBRANCH   1  19
TORSDOF 3
ENDMDL
MODEL 6
REMARK VINA RESULT:      -6.9      2.060      3.358
REMARK  Name = 
REMARK  5 active torsions:
REMARK  status: ('A' for Active; 'I' for Inactive)
REMARK    1  A    between atoms: C_1  and  C_2
REMARK    2  A    between atoms: C_5  and  C_6
REMARK    3  A    between atoms: C_6  and  O_7
REMARK    4  A    between atoms: C_6  and  C_8
REMARK    5  A    between atoms: N_16  and  C_17
REMARK                            x       y       z     vdW  Elec       q    Type
REMARK                         _______ _______ _______ _____ _____    ______ ____
ROOT
ATOM      1  C   UNL     1       6.415   4.889  18.004  0.00  0.00    +0.000 C 
ENDROOT
BRANCH   1   2
ATOM      2  C   UNL     1       5.136   4.483  18.691  0.00  0.00    +0.000 A 
ATOM      3  N   UNL     1       4.997   3.418  19.464  0.00  0.00    +0.000 NA
ATOM      4  C   UNL     1       3.715   3.475  19.947  0.00  0.00    +0.000 A 
ATOM      5  C   UNL     1       3.061   2.613  20.842  0.00  0.00    +0.000 A 
ATOM      6  C   UNL     1       1.741   2.895  21.211  0.00  0.00    +0.000 A 
ATOM      7  C   UNL     1       1.081   4.011  20.697  0.00  0.00    +0.000 A 
ATOM      8  C   UNL     1       1.714   4.878  19.797  0.00  0.00    +0.000 A 
ATOM      9  C   UNL     1       3.036   4.581  19.442  0.00  0.00    +0.000 A 
ATOM     10  N   UNL     1       3.954   5.188  18.615  0.00  0.00    +0.000 N 
ATOM     11  C   UNL     1       3.722   6.367  17.815  0.00  0.00    +0.000 C 
ENDBRANCH   1   2
BRANCH   1  16
ATOM     12  C   UNL     1       6.293   3.810  12.271  0.00  0.00    +0.000 C 
ATOM     13  C   UNL     1       6.361   4.026  13.753  0.00  0.00    +0.000 A 
ATOM     14  C   UNL     1       5.462   3.391  14.618  0.00  0.00    +0.000 A 
ATOM     15  C   UNL     1       5.496   3.648  15.991  0.00  0.00    +0.000 A 
ATOM     16  C   UNL     1       6.423   4.554  16.527  0.00  0.00    +0.000 A 
ATOM     17  C   UNL     1       7.343   5.161  15.657  0.00  0.00    +0.000 A 
ATOM     18  C   UNL     1       7.310   4.904  14.285  0.00  0.00    +0.000 A 
ENDBRANCH   1  16
BRANCH   1  19
ATOM     19  O   UNL     1       6.556   6.303  18.153  0.00  0.00    +0.000 OA
ATOM     20  H   UNL     1       7.399   6.520  17.710  0.00  0.00    +0.000 HD
ENDBRANCH   1  19
TORSDOF 3
ENDMDL
MODEL 7
REMARK VINA RESULT:      -6.9      2.866      6.652
REMARK  Name = 
REMARK  5 active torsions:
REMARK  status: ('A' for Active; 'I' for Inactive)
REMARK    1  A    between atoms: C_1  and  C_2
REMARK    2  A    between atoms: C_5  and  C_6
REMARK    3  A    between atoms: C_6  and  O_7
REMARK    4  A    between atoms: C_6  and  C_8
REMARK    5  A    between atoms: N_16  and  C_17
REMARK                            x       y       z     vdW  Elec       q    Type
REMARK                         _______ _______ _______ _____ _____    ______ ____
ROOT
ATOM      1  C   UNL     1       5.496   4.768  18.035  0.00  0.00    +0.000 C 
ENDROOT
BRANCH   1   2
ATOM      2  C   UNL     1       5.962   4.615  16.609  0.00  0.00    +0.000 A 
ATOM      3  N   UNL     1       5.542   3.680  15.773  0.00  0.00    +0.000 NA
ATOM      4  C   UNL     1       6.145   3.959  14.573  0.00  0.00    +0.000 A 
ATOM      5  C   UNL     1       6.016   3.303  13.338  0.00  0.00    +0.000 A 
ATOM      6  C   UNL     1       6.723   3.793  12.234  0.00  0.00    +0.000 A 
ATOM      7  C   UNL     1       7.547   4.912  12.357  0.00  0.00    +0.000 A 
ATOM      8  C   UNL     1       7.695   5.574  13.582  0.00  0.00    +0.000 A 
ATOM      9  C   UNL     1       6.977   5.071  14.675  0.00  0.00    +0.000 A 
ATOM     10  N   UNL     1       6.870   5.450  15.993  0.00  0.00    +0.000 N 
ATOM     11  C   UNL     1       7.577   6.541  16.620  0.00  0.00    +0.000 C 
ENDBRANCH   1   2
BRANCH   1  16
ATOM     12  C   UNL     1       0.352   2.122  18.792  0.00  0.00    +0.000 C 
ATOM     13  C   UNL     1       1.660   2.842  18.655  0.00  0.00    +0.000 A 
ATOM     14  C   UNL     1       1.732   4.097  18.042  0.00  0.00    +0.000 A 
ATOM     15  C   UNL     1       2.966   4.731  17.865  0.00  0.00    +0.000 A 
ATOM     16  C   UNL     1       4.152   4.117  18.289  0.00  0.00    +0.000 A 
ATOM     17  C   UNL     1       4.067   2.871  18.934  0.00  0.00    +0.000 A 
ATOM     18  C   UNL     1       2.836   2.239  19.111  0.00  0.00    +0.000 A 
ENDBRANCH   1  16
BRANCH   1  19
ATOM     19  O   UNL     1       6.471   4.148  18.877  0.00  0.00    +0.000 OA
ATOM     20  H   UNL     1       6.059   4.122  19.763  0.00  0.00    +0.000 HD
ENDBRANCH   1  19
TORSDOF 3
ENDMDL
MODEL 8
REMARK VINA RESULT:      -6.8      0.964      1.482
REMARK  Name = 
REMARK  5 active torsions:
REMARK  status: ('A' for Active; 'I' for Inactive)
REMARK    1  A    between atoms: C_1  and  C_2
REMARK    2  A    between atoms: C_5  and  C_6
REMARK    3  A    between atoms: C_6  and  O_7
REMARK    4  A    between atoms: C_6  and  C_8
REMARK    5  A    between atoms: N_16  and  C_17
REMARK                            x       y       z     vdW  Elec       q    Type
REMARK                         _______ _______ _______ _____ _____    ______ ____
ROOT
ATOM      1  C   UNL     1       4.765   4.202  16.898  0.00  0.00    +0.000 C 
ENDROOT
BRANCH   1   2
ATOM      2  C   UNL     1       3.956   3.731  18.080  0.00  0.00    +0.000 A 
ATOM      3  N   UNL     1       4.433   3.018  19.087  0.00  0.00    +0.000 NA
ATOM      4  C   UNL     1       3.394   2.887  19.972  0.00  0.00    +0.000 A 
ATOM      5  C   UNL     1       3.367   2.256  21.227  0.00  0.00    +0.000 A 
ATOM      6  C   UNL     1       2.180   2.274  21.968  0.00  0.00    +0.000 A 
ATOM      7  C   UNL     1       1.039   2.904  21.470  0.00  0.00    +0.000 A 
ATOM      8  C   UNL     1       1.045   3.531  20.218  0.00  0.00    +0.000 A 
ATOM      9  C   UNL     1       2.243   3.505  19.492  0.00  0.00    +0.000 A 
ATOM     10  N   UNL     1       2.618   4.006  18.266  0.00  0.00    +0.000 N 
ATOM     11  C   UNL     1       1.761   4.709  17.341  0.00  0.00    +0.000 C 
ENDBRANCH   1   2
BRANCH   1  16
ATOM     12  C   UNL     1       8.296   8.733  17.920  0.00  0.00    +0.000 C 
ATOM     13  C   UNL     1       7.367   7.572  17.725  0.00  0.00    +0.000 A 
ATOM     14  C   UNL     1       7.730   6.281  18.123  0.00  0.00    +0.000 A 
ATOM     15  C   UNL     1       6.881   5.198  17.881  0.00  0.00    +0.000 A 
ATOM     16  C   UNL     1       5.655   5.383  17.226  0.00  0.00    +0.000 A 
ATOM     17  C   UNL     1       5.283   6.687  16.860  0.00  0.00    +0.000 A 
ATOM     18  C   UNL     1       6.131   7.769  17.102  0.00  0.00    +0.000 A 
ENDBRANCH   1  16
BRANCH   1  19
ATOM     19  O   UNL     1       5.587   3.112  16.475  0.00  0.00    +0.000 OA
ATOM     20  H   UNL     1       5.347   2.963  15.540  0.00  0.00    +0.000 HD
ENDBRANCH   1  19
TORSDOF 3
ENDMDL
MODEL 9
REMARK VINA RESULT:      -6.6      1.428      2.187
REMARK  Name = 
REMARK  5 active torsions:
REMARK  status: ('A' for Active; 'I' for Inactive)
REMARK    1  A    between atoms: C_1  and  C_2
REMARK    2  A    between atoms: C_5  and  C_6
REMARK    3  A    between atoms: C_6  and  O_7
REMARK    4  A    between atoms: C_6  and  C_8
REMARK    5  A    between atoms: N_16  and  C_17
REMARK                            x       y       z     vdW  Elec       q    Type
REMARK                         _______ _______ _______ _____ _____    ______ ____
ROOT
ATOM      1  C   UNL     1       7.006   4.960  17.427  0.00  0.00    +0.000 C 
ENDROOT
BRANCH   1   2
ATOM      2  C   UNL     1       5.621   4.643  17.930  0.00  0.00    +0.000 A 
ATOM      3  N   UNL     1       5.222   4.775  19.185  0.00  0.00    +0.000 NA
ATOM      4  C   UNL     1       3.887   4.466  19.183  0.00  0.00    +0.000 A 
ATOM      5  C   UNL     1       2.967   4.484  20.245  0.00  0.00    +0.000 A 
ATOM      6  C   UNL     1       1.633   4.148  19.991  0.00  0.00    +0.000 A 
ATOM      7  C   UNL     1       1.220   3.797  18.706  0.00  0.00    +0.000 A 
ATOM      8  C   UNL     1       2.123   3.766  17.636  0.00  0.00    +0.000 A 
ATOM      9  C   UNL     1       3.454   4.108  17.910  0.00  0.00    +0.000 A 
ATOM     10  N   UNL     1       4.588   4.194  17.134  0.00  0.00    +0.000 N 
ATOM     11  C   UNL     1       4.677   3.881  15.728  0.00  0.00    +0.000 C 
ENDBRANCH   1   2
BRANCH   1  16
ATOM     12  C   UNL     1       8.978  10.298  18.715  0.00  0.00    +0.000 C 
ATOM     13  C   UNL     1       8.419   8.936  18.433  0.00  0.00    +0.000 A 
ATOM     14  C   UNL     1       8.718   7.847  19.258  0.00  0.00    +0.000 A 
ATOM     15  C   UNL     1       8.241   6.570  18.950  0.00  0.00    +0.000 A 
ATOM     16  C   UNL     1       7.464   6.354  17.803  0.00  0.00    +0.000 A 
ATOM     17  C   UNL     1       7.141   7.459  16.997  0.00  0.00    +0.000 A 
ATOM     18  C   UNL     1       7.616   8.735  17.306  0.00  0.00    +0.000 A 
ENDBRANCH   1  16
BRANCH   1  19
ATOM     19  O   UNL     1       7.904   4.011  18.006  0.00  0.00    +0.000 OA
ATOM     20  H   UNL     1       7.334   3.277  18.308  0.00  0.00    +0.000 HD
ENDBRANCH   1  19
TORSDOF 3
ENDMDL
