MODEL 1
REMARK VINA RESULT:      -7.8      0.000      0.000
REMARK  Name = 
REMARK  7 active torsions:
REMARK  status: ('A' for Active; 'I' for Inactive)
REMARK    1  A    between atoms: C_1  and  O_2
REMARK    2  A    between atoms: O_2  and  C_3
REMARK    3  A    between atoms: C_3  and  C_5
REMARK    4  A    between atoms: C_9  and  N_10
REMARK    5  A    between atoms: C_11  and  C_13
REMARK    6  A    between atoms: C_17  and  C_18
REMARK    7  A    between atoms: C_23  and  N_24
REMARK                            x       y       z     vdW  Elec       q    Type
REMARK                         _______ _______ _______ _____ _____    ______ ____
ROOT
ATOM      1  N   UNL     1       4.531   7.151  17.982  0.00  0.00    +0.000 N 
ATOM      2  C   UNL     1       3.248   6.763  18.331  0.00  0.00    +0.000 C 
ATOM      3  O   UNL     1       2.845   5.602  18.398  0.00  0.00    +0.000 OA
ATOM      4  H   UNL     1       4.810   8.113  18.118  0.00  0.00    +0.000 HD
ENDROOT
BRANCH   1   9
ATOM      5  C   UNL     1       6.797   5.137  15.796  0.00  0.00    +0.000 A 
ATOM      6  C   UNL     1       7.572   4.464  16.757  0.00  0.00    +0.000 A 
ATOM      7  C   UNL     1       7.343   4.679  18.109  0.00  0.00    +0.000 A 
ATOM      8  C   UNL     1       6.347   5.566  18.510  0.00  0.00    +0.000 A 
ATOM      9  C   UNL     1       5.571   6.266  17.576  0.00  0.00    +0.000 A 
ATOM     10  C   UNL     1       5.811   6.077  16.192  0.00  0.00    +0.000 A 
BRANCH  10  11
ATOM     11  N   UNL     1       4.959   6.704  15.237  0.00  0.00    +0.000 N 
ATOM     12  H   UNL     1       5.470   7.317  14.612  0.00  0.00    +0.000 HD
ATOM     13  H   UNL     1       4.460   5.997  14.680  0.00  0.00    +0.000 HD
ENDBRANCH  10  11
BRANCH   5  14
ATOM     14  C   UNL     1       7.100   4.923  14.356  0.00  0.00    +0.000 C 
ATOM     15  O   UNL     1       7.996   5.504  13.761  0.00  0.00    +0.000 OA
BRANCH  14  17
ATOM     16  C   UNL     1       6.519   3.676  12.462  0.00  0.00    +0.000 C 
ATOM     17  O   UNL     1       6.236   4.026  13.818  0.00  0.00    +0.000 OA
ENDBRANCH  14  17
ENDBRANCH   5  14
ENDBRANCH   1   9
BRANCH   2  18
ATOM     18  C   UNL     1       2.282   7.827  18.720  0.00  0.00    +0.000 A 
ATOM     19  C   UNL     1       2.035   8.838  17.777  0.00  0.00    +0.000 A 
ATOM     20  C   UNL     1       1.231   9.929  18.094  0.00  0.00    +0.000 A 
ATOM     21  C   UNL     1       0.672  10.026  19.364  0.00  0.00    +0.000 A 
ATOM     22  C   UNL     1       0.903   9.028  20.327  0.00  0.00    +0.000 A 
ATOM     23  C   UNL     1       1.705   7.917  19.993  0.00  0.00    +0.000 A 
BRANCH  22  24
ATOM     24  C   UNL     1       0.326   9.164  21.717  0.00  0.00    +0.000 C 
ATOM     25  F   UNL     1      -0.235  10.382  21.958  0.00  0.00    +0.000 F 
ATOM     26  F   UNL     1      -0.650   8.248  21.964  0.00  0.00    +0.000 F 
ATOM     27  F   UNL     1       1.263   8.987  22.687  0.00  0.00    +0.000 F 
ENDBRANCH  22  24
ENDBRANCH   2  18
TORSDOF 6
ENDMDL
MODEL 2
REMARK VINA RESULT:      -7.6      1.700      2.229
REMARK  Name = 
REMARK  7 active torsions:
REMARK  status: ('A' for Active; 'I' for Inactive)
REMARK    1  A    between atoms: C_1  and  O_2
REMARK    2  A    between atoms: O_2  and  C_3
REMARK    3  A    between atoms: C_3  and  C_5
REMARK    4  A    between atoms: C_9  and  N_10
REMARK    5  A    between atoms: C_11  and  C_13
REMARK    6  A    between atoms: C_17  and  C_18
REMARK    7  A    between atoms: C_23  and  N_24
REMARK                            x       y       z     vdW  Elec       q    Type
REMARK                         _______ _______ _______ _____ _____    ______ ____
ROOT
ATOM      1  N   UNL     1       2.873   6.691  18.179  0.00  0.00    +0.000 N 
ATOM      2  C   UNL     1       2.414   6.832  19.478  0.00  0.00    +0.000 C 
ATOM      3  O   UNL     1       2.621   6.044  20.400  0.00  0.00    +0.000 OA
ATOM      4  H   UNL     1       2.793   7.470  17.539  0.00  0.00    +0.000 HD
ENDROOT
BRANCH   1   9
ATOM      5  C   UNL     1       5.662   4.636  16.778  0.00  0.00    +0.000 A 
ATOM      6  C   UNL     1       5.034   3.385  16.641  0.00  0.00    +0.000 A 
ATOM      7  C   UNL     1       3.705   3.231  17.011  0.00  0.00    +0.000 A 
ATOM      8  C   UNL     1       2.998   4.316  17.521  0.00  0.00    +0.000 A 
ATOM      9  C   UNL     1       3.602   5.571  17.687  0.00  0.00    +0.000 A 
ATOM     10  C   UNL     1       4.966   5.736  17.339  0.00  0.00    +0.000 A 
BRANCH  10  11
ATOM     11  N   UNL     1       5.557   7.031  17.406  0.00  0.00    +0.000 N 
ATOM     12  H   UNL     1       6.516   6.998  17.733  0.00  0.00    +0.000 HD
ATOM     13  H   UNL     1       5.534   7.487  16.483  0.00  0.00    +0.000 HD
ENDBRANCH  10  11
BRANCH   5  14
ATOM     14  C   UNL     1       7.101   4.756  16.419  0.00  0.00    +0.000 C 
ATOM     15  O   UNL     1       8.000   4.225  17.054  0.00  0.00    +0.000 OA
BRANCH  14  17
ATOM     16  C   UNL     1       7.126   4.850  14.080  0.00  0.00    +0.000 C 
ATOM     17  O   UNL     1       7.252   5.542  15.324  0.00  0.00    +0.000 OA
ENDBRANCH  14  17
ENDBRANCH   5  14
ENDBRANCH   1   9
BRANCH   2  18
ATOM     18  C   UNL     1       1.656   8.068  19.817  0.00  0.00    +0.000 A 
ATOM     19  C   UNL     1       1.611   9.075  18.839  0.00  0.00    +0.000 A 
ATOM     20  C   UNL     1       1.018  10.305  19.107  0.00  0.00    +0.000 A 
ATOM     21  C   UNL     1       0.471  10.547  20.363  0.00  0.00    +0.000 A 
ATOM     22  C   UNL     1       0.502   9.556  21.360  0.00  0.00    +0.000 A 
ATOM     23  C   UNL     1       1.090   8.306  21.075  0.00  0.00    +0.000 A 
BRANCH  22  24
ATOM     24  C   UNL     1      -0.057   9.843  22.735  0.00  0.00    +0.000 C 
ATOM     25  F   UNL     1       0.783   9.497  23.749  0.00  0.00    +0.000 F 
ATOM     26  F   UNL     1      -0.337  11.163  22.915  0.00  0.00    +0.000 F 
ATOM     27  F   UNL     1      -1.219   9.175  22.970  0.00  0.00    +0.000 F 
ENDBRANCH  22  24
ENDBRANCH   2  18
TORSDOF 6
ENDMDL
MODEL 3
REMARK VINA RESULT:      -7.5      5.634      8.723
REMARK  Name = 
REMARK  7 active torsions:
REMARK  status: ('A' for Active; 'I' for Inactive)
REMARK    1  A    between atoms: C_1  and  O_2
REMARK    2  A    between atoms: O_2  and  C_3
REMARK    3  A    between atoms: C_3  and  C_5
REMARK    4  A    between atoms: C_9  and  N_10
REMARK    5  A    between atoms: C_11  and  C_13
REMARK    6  A    between atoms: C_17  and  C_18
REMARK    7  A    between atoms: C_23  and  N_24
REMARK                            x       y       z     vdW  Elec       q    Type
REMARK                         _______ _______ _______ _____ _____    ______ ____
ROOT
ATOM      1  N   UNL     1       4.745   4.584  16.174  0.00  0.00    +0.000 N 
ATOM      2  C   UNL     1       6.106   4.574  15.914  0.00  0.00    +0.000 C 
ATOM      3  O   UNL     1       6.995   4.682  16.758  0.00  0.00    +0.000 OA
ATOM      4  H   UNL     1       4.100   4.320  15.440  0.00  0.00    +0.000 HD
ENDROOT
BRANCH   1   9
ATOM      5  C   UNL     1       3.151   3.887  19.482  0.00  0.00    +0.000 A 
ATOM      6  C   UNL     1       2.928   5.193  19.954  0.00  0.00    +0.000 A 
ATOM      7  C   UNL     1       3.303   6.284  19.184  0.00  0.00    +0.000 A 
ATOM      8  C   UNL     1       3.905   6.082  17.944  0.00  0.00    +0.000 A 
ATOM      9  C   UNL     1       4.158   4.794  17.454  0.00  0.00    +0.000 A 
ATOM     10  C   UNL     1       3.805   3.670  18.242  0.00  0.00    +0.000 A 
BRANCH  10  11
ATOM     11  N   UNL     1       3.963   2.358  17.708  0.00  0.00    +0.000 N 
ATOM     12  H   UNL     1       4.874   1.967  17.914  0.00  0.00    +0.000 HD
ATOM     13  H   UNL     1       3.237   1.728  18.077  0.00  0.00    +0.000 HD
ENDBRANCH  10  11
BRANCH   5  14
ATOM     14  C   UNL     1       2.783   2.739  20.353  0.00  0.00    +0.000 C 
ATOM     15  O   UNL     1       3.219   2.584  21.484  0.00  0.00    +0.000 OA
BRANCH  14  17
ATOM     16  C   UNL     1       0.678   2.498  19.357  0.00  0.00    +0.000 C 
ATOM     17  O   UNL     1       1.931   1.906  19.704  0.00  0.00    +0.000 OA
ENDBRANCH  14  17
ENDBRANCH   5  14
ENDBRANCH   1   9
BRANCH   2  18
ATOM     18  C   UNL     1       6.543   4.351  14.509  0.00  0.00    +0.000 A 
ATOM     19  C   UNL     1       7.435   5.289  13.964  0.00  0.00    +0.000 A 
ATOM     20  C   UNL     1       7.813   5.221  12.626  0.00  0.00    +0.000 A 
ATOM     21  C   UNL     1       7.295   4.218  11.814  0.00  0.00    +0.000 A 
ATOM     22  C   UNL     1       6.400   3.266  12.334  0.00  0.00    +0.000 A 
ATOM     23  C   UNL     1       6.035   3.331  13.695  0.00  0.00    +0.000 A 
BRANCH  22  24
ATOM     24  C   UNL     1       5.810   2.205  11.434  0.00  0.00    +0.000 C 
ATOM     25  F   UNL     1       4.579   2.527  10.947  0.00  0.00    +0.000 F 
ATOM     26  F   UNL     1       6.590   1.957  10.346  0.00  0.00    +0.000 F 
ATOM     27  F   UNL     1       5.659   1.012  12.070  0.00  0.00    +0.000 F 
ENDBRANCH  22  24
ENDBRANCH   2  18
TORSDOF 6
ENDMDL
MODEL 4
REMARK VINA RESULT:      -7.5      2.863      3.826
REMARK  Name = 
REMARK  7 active torsions:
REMARK  status: ('A' for Active; 'I' for Inactive)
REMARK    1  A    between atoms: C_1  and  O_2
REMARK    2  A    between atoms: O_2  and  C_3
REMARK    3  A    between atoms: C_3  and  C_5
REMARK    4  A    between atoms: C_9  and  N_10
REMARK    5  A    between atoms: C_11  and  C_13
REMARK    6  A    between atoms: C_17  and  C_18
REMARK    7  A    between atoms: C_23  and  N_24
REMARK                            x       y       z     vdW  Elec       q    Type
REMARK                         _______ _______ _______ _____ _____    ______ ____
ROOT
ATOM      1  N   UNL     1       2.390   7.472  18.940  0.00  0.00    +0.000 N 
ATOM      2  C   UNL     1       1.934   8.677  18.430  0.00  0.00    +0.000 C 
ATOM      3  O   UNL     1       2.025   9.038  17.257  0.00  0.00    +0.000 OA
ATOM      4  H   UNL     1       2.120   7.198  19.875  0.00  0.00    +0.000 HD
ENDROOT
BRANCH   1   9
ATOM      5  C   UNL     1       3.484   4.144  17.637  0.00  0.00    +0.000 A 
ATOM      6  C   UNL     1       4.546   4.520  16.796  0.00  0.00    +0.000 A 
ATOM      7  C   UNL     1       4.889   5.858  16.664  0.00  0.00    +0.000 A 
ATOM      8  C   UNL     1       4.176   6.827  17.365  0.00  0.00    +0.000 A 
ATOM      9  C   UNL     1       3.101   6.487  18.197  0.00  0.00    +0.000 A 
ATOM     10  C   UNL     1       2.722   5.127  18.320  0.00  0.00    +0.000 A 
BRANCH  10  11
ATOM     11  N   UNL     1       1.699   4.762  19.243  0.00  0.00    +0.000 N 
ATOM     12  H   UNL     1       0.772   4.974  18.892  0.00  0.00    +0.000 HD
ATOM     13  H   UNL     1       1.752   3.757  19.462  0.00  0.00    +0.000 HD
ENDBRANCH  10  11
BRANCH   5  14
ATOM     14  C   UNL     1       3.109   2.708  17.718  0.00  0.00    +0.000 C 
ATOM     15  O   UNL     1       2.046   2.264  17.310  0.00  0.00    +0.000 OA
BRANCH  14  17
ATOM     16  C   UNL     1       4.163   2.160  19.735  0.00  0.00    +0.000 C 
ATOM     17  O   UNL     1       4.095   1.993  18.318  0.00  0.00    +0.000 OA
ENDBRANCH  14  17
ENDBRANCH   5  14
ENDBRANCH   1   9
BRANCH   2  18
ATOM     18  C   UNL     1       1.218   9.597  19.356  0.00  0.00    +0.000 A 
ATOM     19  C   UNL     1       1.156  10.950  18.987  0.00  0.00    +0.000 A 
ATOM     20  C   UNL     1       0.602  11.899  19.841  0.00  0.00    +0.000 A 
ATOM     21  C   UNL     1       0.110  11.505  21.082  0.00  0.00    +0.000 A 
ATOM     22  C   UNL     1       0.160  10.157  21.476  0.00  0.00    +0.000 A 
ATOM     23  C   UNL     1       0.708   9.198  20.598  0.00  0.00    +0.000 A 
BRANCH  22  24
ATOM     24  C   UNL     1      -0.338   9.745  22.842  0.00  0.00    +0.000 C 
ATOM     25  F   UNL     1      -1.077   8.601  22.832  0.00  0.00    +0.000 F 
ATOM     26  F   UNL     1       0.679   9.525  23.719  0.00  0.00    +0.000 F 
ATOM     27  F   UNL     1      -1.130  10.694  23.413  0.00  0.00    +0.000 F 
ENDBRANCH  22  24
ENDBRANCH   2  18
TORSDOF 6
ENDMDL
MODEL 5
REMARK VINA RESULT:      -7.5      5.404      8.527
REMARK  Name = 
REMARK  7 active torsions:
REMARK  status: ('A' for Active; 'I' for Inactive)
REMARK    1  A    between atoms: C_1  and  O_2
REMARK    2  A    between atoms: O_2  and  C_3
REMARK    3  A    between atoms: C_3  and  C_5
REMARK    4  A    between atoms: C_9  and  N_10
REMARK    5  A    between atoms: C_11  and  C_13
REMARK    6  A    between atoms: C_17  and  C_18
REMARK    7  A    between atoms: C_23  and  N_24
REMARK                            x       y       z     vdW  Elec       q    Type
REMARK                         _______ _______ _______ _____ _____    ______ ____
ROOT
ATOM      1  N   UNL     1       4.351   4.561  16.507  0.00  0.00    +0.000 N 
ATOM      2  C   UNL     1       5.610   4.945  16.076  0.00  0.00    +0.000 C 
ATOM      3  O   UNL     1       6.456   5.520  16.761  0.00  0.00    +0.000 OA
ATOM      4  H   UNL     1       3.795   3.949  15.925  0.00  0.00    +0.000 HD
ENDROOT
BRANCH   1   9
ATOM      5  C   UNL     1       3.239   4.079  20.043  0.00  0.00    +0.000 A 
ATOM      6  C   UNL     1       2.672   5.336  20.320  0.00  0.00    +0.000 A 
ATOM      7  C   UNL     1       2.662   6.325  19.348  0.00  0.00    +0.000 A 
ATOM      8  C   UNL     1       3.219   6.070  18.097  0.00  0.00    +0.000 A 
ATOM      9  C   UNL     1       3.808   4.835  17.795  0.00  0.00    +0.000 A 
ATOM     10  C   UNL     1       3.850   3.825  18.788  0.00  0.00    +0.000 A 
BRANCH  10  11
ATOM     11  N   UNL     1       4.352   2.533  18.457  0.00  0.00    +0.000 N 
ATOM     12  H   UNL     1       4.304   1.891  19.240  0.00  0.00    +0.000 HD
ATOM     13  H   UNL     1       3.830   2.134  17.665  0.00  0.00    +0.000 HD
ENDBRANCH  10  11
BRANCH   5  14
ATOM     14  C   UNL     1       3.278   3.058  21.123  0.00  0.00    +0.000 C 
ATOM     15  O   UNL     1       4.102   2.156  21.169  0.00  0.00    +0.000 OA
BRANCH  14  17
ATOM     16  C   UNL     1       1.121   2.445  21.794  0.00  0.00    +0.000 C 
ATOM     17  O   UNL     1       2.271   3.265  22.008  0.00  0.00    +0.000 OA
ENDBRANCH  14  17
ENDBRANCH   5  14
ENDBRANCH   1   9
BRANCH   2  18
ATOM     18  C   UNL     1       6.010   4.583  14.689  0.00  0.00    +0.000 A 
ATOM     19  C   UNL     1       7.272   5.021  14.256  0.00  0.00    +0.000 A 
ATOM     20  C   UNL     1       7.685   4.823  12.942  0.00  0.00    +0.000 A 
ATOM     21  C   UNL     1       6.833   4.192  12.040  0.00  0.00    +0.000 A 
ATOM     22  C   UNL     1       5.565   3.744  12.447  0.00  0.00    +0.000 A 
ATOM     23  C   UNL     1       5.160   3.934  13.786  0.00  0.00    +0.000 A 
BRANCH  22  24
ATOM     24  C   UNL     1       4.631   3.098  11.451  0.00  0.00    +0.000 C 
ATOM     25  F   UNL     1       3.386   2.855  11.947  0.00  0.00    +0.000 F 
ATOM     26  F   UNL     1       4.448   3.863  10.340  0.00  0.00    +0.000 F 
ATOM     27  F   UNL     1       5.095   1.897  11.009  0.00  0.00    +0.000 F 
ENDBRANCH  22  24
ENDBRANCH   2  18
TORSDOF 6
ENDMDL
MODEL 6
REMARK VINA RESULT:      -7.4      5.643      8.844
REMARK  Name = 
REMARK  7 active torsions:
REMARK  status: ('A' for Active; 'I' for Inactive)
REMARK    1  A    between atoms: C_1  and  O_2
REMARK    2  A    between atoms: O_2  and  C_3
REMARK    3  A    between atoms: C_3  and  C_5
REMARK    4  A    between atoms: C_9  and  N_10
REMARK    5  A    between atoms: C_11  and  C_13
REMARK    6  A    between atoms: C_17  and  C_18
REMARK    7  A    between atoms: C_23  and  N_24
REMARK                            x       y       z     vdW  Elec       q    Type
REMARK                         _______ _______ _______ _____ _____    ______ ____
ROOT
ATOM      1  N   UNL     1       4.740   4.704  16.005  0.00  0.00    +0.000 N 
ATOM      2  C   UNL     1       6.102   4.674  15.755  0.00  0.00    +0.000 C 
ATOM      3  O   UNL     1       6.988   4.804  16.600  0.00  0.00    +0.000 OA
ATOM      4  H   UNL     1       4.098   4.422  15.276  0.00  0.00    +0.000 HD
ENDROOT
BRANCH   1   9
ATOM      5  C   UNL     1       3.250   4.132  19.384  0.00  0.00    +0.000 A 
ATOM      6  C   UNL     1       2.907   5.445  19.753  0.00  0.00    +0.000 A 
ATOM      7  C   UNL     1       3.168   6.500  18.892  0.00  0.00    +0.000 A 
ATOM      8  C   UNL     1       3.776   6.256  17.663  0.00  0.00    +0.000 A 
ATOM      9  C   UNL     1       4.147   4.962  17.274  0.00  0.00    +0.000 A 
ATOM     10  C   UNL     1       3.910   3.877  18.155  0.00  0.00    +0.000 A 
BRANCH  10  11
ATOM     11  N   UNL     1       4.188   2.547  17.725  0.00  0.00    +0.000 N 
ATOM     12  H   UNL     1       4.344   1.918  18.504  0.00  0.00    +0.000 HD
ATOM     13  H   UNL     1       3.414   2.184  17.152  0.00  0.00    +0.000 HD
ENDBRANCH  10  11
BRANCH   5  14
ATOM     14  C   UNL     1       3.001   3.029  20.350  0.00  0.00    +0.000 C 
ATOM     15  O   UNL     1       3.883   2.309  20.794  0.00  0.00    +0.000 OA
BRANCH  14  17
ATOM     16  C   UNL     1       1.390   2.507  21.966  0.00  0.00    +0.000 C 
ATOM     17  O   UNL     1       1.677   2.937  20.635  0.00  0.00    +0.000 OA
ENDBRANCH  14  17
ENDBRANCH   5  14
ENDBRANCH   1   9
BRANCH   2  18
ATOM     18  C   UNL     1       6.547   4.402  14.360  0.00  0.00    +0.000 A 
ATOM     19  C   UNL     1       7.416   5.336  13.775  0.00  0.00    +0.000 A 
ATOM     20  C   UNL     1       7.798   5.220  12.442  0.00  0.00    +0.000 A 
ATOM     21  C   UNL     1       7.304   4.170  11.673  0.00  0.00    +0.000 A 
ATOM     22  C   UNL     1       6.431   3.221  12.234  0.00  0.00    +0.000 A 
ATOM     23  C   UNL     1       6.063   3.336  13.591  0.00  0.00    +0.000 A 
BRANCH  22  24
ATOM     24  C   UNL     1       5.867   2.109  11.380  0.00  0.00    +0.000 C 
ATOM     25  F   UNL     1       5.684   0.941  12.057  0.00  0.00    +0.000 F 
ATOM     26  F   UNL     1       4.655   2.428  10.850  0.00  0.00    +0.000 F 
ATOM     27  F   UNL     1       6.673   1.806  10.326  0.00  0.00    +0.000 F 
ENDBRANCH  22  24
ENDBRANCH   2  18
TORSDOF 6
ENDMDL
MODEL 7
REMARK VINA RESULT:      -7.4      5.573      8.801
REMARK  Name = 
REMARK  7 active torsions:
REMARK  status: ('A' for Active; 'I' for Inactive)
REMARK    1  A    between atoms: C_1  and  O_2
REMARK    2  A    between atoms: O_2  and  C_3
REMARK    3  A    between atoms: C_3  and  C_5
REMARK    4  A    between atoms: C_9  and  N_10
REMARK    5  A    between atoms: C_11  and  C_13
REMARK    6  A    between atoms: C_17  and  C_18
REMARK    7  A    between atoms: C_23  and  N_24
REMARK                            x       y       z     vdW  Elec       q    Type
REMARK                         _______ _______ _______ _____ _____    ______ ____
ROOT
ATOM      1  N   UNL     1       4.371   4.806  16.120  0.00  0.00    +0.000 N 
ATOM      2  C   UNL     1       5.729   4.556  16.016  0.00  0.00    +0.000 C 
ATOM      3  O   UNL     1       6.512   4.453  16.960  0.00  0.00    +0.000 OA
ATOM      4  H   UNL     1       3.786   4.706  15.301  0.00  0.00    +0.000 HD
ENDROOT
BRANCH   1   9
ATOM      5  C   UNL     1       2.075   4.337  19.032  0.00  0.00    +0.000 A 
ATOM      6  C   UNL     1       2.238   5.562  19.704  0.00  0.00    +0.000 A 
ATOM      7  C   UNL     1       3.098   6.525  19.196  0.00  0.00    +0.000 A 
ATOM      8  C   UNL     1       3.802   6.273  18.021  0.00  0.00    +0.000 A 
ATOM      9  C   UNL     1       3.676   5.055  17.338  0.00  0.00    +0.000 A 
ATOM     10  C   UNL     1       2.821   4.052  17.860  0.00  0.00    +0.000 A 
BRANCH  10  11
ATOM     11  N   UNL     1       2.607   2.854  17.119  0.00  0.00    +0.000 N 
ATOM     12  H   UNL     1       3.457   2.515  16.684  0.00  0.00    +0.000 HD
ATOM     13  H   UNL     1       2.225   2.116  17.727  0.00  0.00    +0.000 HD
ENDBRANCH  10  11
BRANCH   5  14
ATOM     14  C   UNL     1       1.184   3.307  19.629  0.00  0.00    +0.000 C 
ATOM     15  O   UNL     1       0.545   2.503  18.967  0.00  0.00    +0.000 OA
BRANCH  14  17
ATOM     16  C   UNL     1       2.093   2.545  21.647  0.00  0.00    +0.000 C 
ATOM     17  O   UNL     1       1.174   3.414  20.982  0.00  0.00    +0.000 OA
ENDBRANCH  14  17
ENDBRANCH   5  14
ENDBRANCH   1   9
BRANCH   2  18
ATOM     18  C   UNL     1       6.292   4.329  14.657  0.00  0.00    +0.000 A 
ATOM     19  C   UNL     1       7.271   5.232  14.214  0.00  0.00    +0.000 A 
ATOM     20  C   UNL     1       7.775   5.162  12.919  0.00  0.00    +0.000 A 
ATOM     21  C   UNL     1       7.295   4.191  12.045  0.00  0.00    +0.000 A 
ATOM     22  C   UNL     1       6.314   3.275  12.462  0.00  0.00    +0.000 A 
ATOM     23  C   UNL     1       5.821   3.342  13.782  0.00  0.00    +0.000 A 
BRANCH  22  24
ATOM     24  C   UNL     1       5.769   2.251  11.493  0.00  0.00    +0.000 C 
ATOM     25  F   UNL     1       6.548   2.075  10.390  0.00  0.00    +0.000 F 
ATOM     26  F   UNL     1       5.640   1.020  12.059  0.00  0.00    +0.000 F 
ATOM     27  F   UNL     1       4.535   2.584  11.028  0.00  0.00    +0.000 F 
ENDBRANCH  22  24
ENDBRANCH   2  18
TORSDOF 6
ENDMDL
MODEL 8
REMARK VINA RESULT:      -7.4      1.636      2.296
REMARK  Name = 
REMARK  7 active torsions:
REMARK  status: ('A' for Active; 'I' for Inactive)
REMARK    1  A    between atoms: C_1  and  O_2
REMARK    2  A    between atoms: O_2  and  C_3
REMARK    3  A    between atoms: C_3  and  C_5
REMARK    4  A    between atoms: C_9  and  N_10
REMARK    5  A    between atoms: C_11  and  C_13
REMARK    6  A    between atoms: C_17  and  C_18
REMARK    7  A    between atoms: C_23  and  N_24
REMARK                            x       y       z     vdW  Elec       q    Type
REMARK                         _______ _______ _______ _____ _____    ______ ____
ROOT
ATOM      1  N   UNL     1       2.834   6.726  18.043  0.00  0.00    +0.000 N 
ATOM      2  C   UNL     1       2.484   6.879  19.375  0.00  0.00    +0.000 C 
ATOM      3  O   UNL     1       2.822   6.133  20.294  0.00  0.00    +0.000 OA
ATOM      4  H   UNL     1       2.648   7.479  17.394  0.00  0.00    +0.000 HD
ENDROOT
BRANCH   1   9
ATOM      5  C   UNL     1       5.638   4.788  16.509  0.00  0.00    +0.000 A 
ATOM      6  C   UNL     1       5.056   3.513  16.399  0.00  0.00    +0.000 A 
ATOM      7  C   UNL     1       3.753   3.303  16.829  0.00  0.00    +0.000 A 
ATOM      8  C   UNL     1       3.027   4.359  17.374  0.00  0.00    +0.000 A 
ATOM      9  C   UNL     1       3.585   5.637  17.515  0.00  0.00    +0.000 A 
ATOM     10  C   UNL     1       4.923   5.859  17.105  0.00  0.00    +0.000 A 
BRANCH  10  11
ATOM     11  N   UNL     1       5.463   7.177  17.147  0.00  0.00    +0.000 N 
ATOM     12  H   UNL     1       4.832   7.836  17.589  0.00  0.00    +0.000 HD
ATOM     13  H   UNL     1       6.360   7.184  17.653  0.00  0.00    +0.000 HD
ENDBRANCH  10  11
BRANCH   5  14
ATOM     14  C   UNL     1       7.052   4.968  16.085  0.00  0.00    +0.000 C 
ATOM     15  O   UNL     1       7.387   5.653  15.130  0.00  0.00    +0.000 OA
BRANCH  14  17
ATOM     16  C   UNL     1       7.934   4.713  18.238  0.00  0.00    +0.000 C 
ATOM     17  O   UNL     1       7.882   4.254  16.886  0.00  0.00    +0.000 OA
ENDBRANCH  14  17
ENDBRANCH   5  14
ENDBRANCH   1   9
BRANCH   2  18
ATOM     18  C   UNL     1       1.683   8.077  19.749  0.00  0.00    +0.000 A 
ATOM     19  C   UNL     1       1.570   9.093  18.788  0.00  0.00    +0.000 A 
ATOM     20  C   UNL     1       0.933  10.293  19.087  0.00  0.00    +0.000 A 
ATOM     21  C   UNL     1       0.408  10.495  20.361  0.00  0.00    +0.000 A 
ATOM     22  C   UNL     1       0.508   9.494  21.343  0.00  0.00    +0.000 A 
ATOM     23  C   UNL     1       1.141   8.273  21.025  0.00  0.00    +0.000 A 
BRANCH  22  24
ATOM     24  C   UNL     1      -0.028   9.738  22.734  0.00  0.00    +0.000 C 
ATOM     25  F   UNL     1      -0.400  11.029  22.957  0.00  0.00    +0.000 F 
ATOM     26  F   UNL     1      -1.125   8.981  23.007  0.00  0.00    +0.000 F 
ATOM     27  F   UNL     1       0.884   9.442  23.700  0.00  0.00    +0.000 F 
ENDBRANCH  22  24
ENDBRANCH   2  18
TORSDOF 6
ENDMDL
MODEL 9
REMARK VINA RESULT:      -7.4      4.471      8.682
REMARK  Name = 
REMARK  7 active torsions:
REMARK  status: ('A' for Active; 'I' for Inactive)
REMARK    1  A    between atoms: C_1  and  O_2
REMARK    2  A    between atoms: O_2  and  C_3
REMARK    3  A    between atoms: C_3  and  C_5
REMARK    4  A    between atoms: C_9  and  N_10
REMARK    5  A    between atoms: C_11  and  C_13
REMARK    6  A    between atoms: C_17  and  C_18
REMARK    7  A    between atoms: C_23  and  N_24
REMARK                            x       y       z     vdW  Elec       q    Type
REMARK                         _______ _______ _______ _____ _____    ______ ____
ROOT
ATOM      1  N   UNL     1       2.919   7.786  18.476  0.00  0.00    +0.000 N 
ATOM      2  C   UNL     1       2.911   6.401  18.432  0.00  0.00    +0.000 C 
ATOM      3  O   UNL     1       1.930   5.685  18.633  0.00  0.00    +0.000 OA
ATOM      4  H   UNL     1       3.728   8.286  18.133  0.00  0.00    +0.000 HD
ENDROOT
BRANCH   1   9
ATOM      5  C   UNL     1       0.207   9.363  20.508  0.00  0.00    +0.000 A 
ATOM      6  C   UNL     1      -0.441  10.143  19.533  0.00  0.00    +0.000 A 
ATOM      7  C   UNL     1       0.018  10.143  18.224  0.00  0.00    +0.000 A 
ATOM      8  C   UNL     1       1.125   9.372  17.879  0.00  0.00    +0.000 A 
ATOM      9  C   UNL     1       1.805   8.599  18.831  0.00  0.00    +0.000 A 
ATOM     10  C   UNL     1       1.363   8.610  20.178  0.00  0.00    +0.000 A 
BRANCH  10  11
ATOM     11  N   UNL     1       1.982   7.748  21.129  0.00  0.00    +0.000 N 
ATOM     12  H   UNL     1       2.966   7.958  21.253  0.00  0.00    +0.000 HD
ATOM     13  H   UNL     1       1.508   7.817  22.040  0.00  0.00    +0.000 HD
ENDBRANCH  10  11
BRANCH   5  14
ATOM     14  C   UNL     1      -0.280   9.423  21.912  0.00  0.00    +0.000 C 
ATOM     15  O   UNL     1      -0.825   8.487  22.477  0.00  0.00    +0.000 OA
BRANCH  14  17
ATOM     16  C   UNL     1      -1.207  11.274  23.006  0.00  0.00    +0.000 C 
ATOM     17  O   UNL     1      -0.051  10.652  22.441  0.00  0.00    +0.000 OA
ENDBRANCH  14  17
ENDBRANCH   5  14
ENDBRANCH   1   9
BRANCH   2  18
ATOM     18  C   UNL     1       4.173   5.711  18.050  0.00  0.00    +0.000 A 
ATOM     19  C   UNL     1       5.107   5.481  19.073  0.00  0.00    +0.000 A 
ATOM     20  C   UNL     1       6.358   4.941  18.791  0.00  0.00    +0.000 A 
ATOM     21  C   UNL     1       6.693   4.632  17.476  0.00  0.00    +0.000 A 
ATOM     22  C   UNL     1       5.777   4.852  16.433  0.00  0.00    +0.000 A 
ATOM     23  C   UNL     1       4.505   5.385  16.730  0.00  0.00    +0.000 A 
BRANCH  22  24
ATOM     24  C   UNL     1       6.166   4.553  15.003  0.00  0.00    +0.000 C 
ATOM     25  F   UNL     1       6.288   3.223  14.738  0.00  0.00    +0.000 F 
ATOM     26  F   UNL     1       5.258   5.031  14.109  0.00  0.00    +0.000 F 
ATOM     27  F   UNL     1       7.359   5.112  14.663  0.00  0.00    +0.000 F 
ENDBRANCH  22  24
ENDBRANCH   2  18
TORSDOF 6
ENDMDL
