MODEL 1
REMARK VINA RESULT:      -6.6      0.000      0.000
REMARK  Name = 
REMARK  4 active torsions:
REMARK  status: ('A' for Active; 'I' for Inactive)
REMARK    1  A    between atoms: C_1  and  C_2
REMARK    2  A    between atoms: C_14  and  N_15
REMARK    3  A    between atoms: C_16  and  C_17
REMARK    4  A    between atoms: C_19  and  C_20
REMARK                            x       y       z     vdW  Elec       q    Type
REMARK                         _______ _______ _______ _____ _____    ______ ____
ROOT
ATOM      1  C   UNL     1      -2.971  11.649  18.592  0.00  0.00    +0.000 C 
ATOM      2  C   UNL     1      -4.227  12.193  19.169  0.00  0.00    +0.000 C 
ATOM      3  O   UNL     1      -5.250  12.305  18.500  0.00  0.00    +0.000 OA
ATOM      4  N   UNL     1      -4.251  12.532  20.545  0.00  0.00    +0.000 N 
ATOM      5  C   UNL     1      -3.231  12.963  21.412  0.00  0.00    +0.000 A 
ATOM      6  C   UNL     1      -3.809  13.273  22.625  0.00  0.00    +0.000 A 
ATOM      7  C   UNL     1      -5.170  12.932  22.602  0.00  0.00    +0.000 A 
ATOM      8  C   UNL     1      -6.208  12.972  23.557  0.00  0.00    +0.000 A 
ATOM      9  C   UNL     1      -7.487  12.529  23.208  0.00  0.00    +0.000 A 
ATOM     10  C   UNL     1      -7.743  12.066  21.925  0.00  0.00    +0.000 A 
ATOM     11  C   UNL     1      -6.733  12.035  20.962  0.00  0.00    +0.000 A 
ATOM     12  C   UNL     1      -5.439  12.479  21.310  0.00  0.00    +0.000 A 
ATOM     13  O   UNL     1      -3.130  13.821  23.660  0.00  0.00    +0.000 OA
ATOM     14  C   UNL     1      -1.797  14.212  23.498  0.00  0.00    +0.000 C 
ATOM     15  C   UNL     1      -1.132  13.968  22.351  0.00  0.00    +0.000 C 
ATOM     16  C   UNL     1      -1.767  13.234  21.153  0.00  0.00    +0.000 C 
ENDROOT
BRANCH  16  17
ATOM     17  C   UNL     1      -0.942  11.970  20.868  0.00  0.00    +0.000 A 
ATOM     18  C   UNL     1      -1.029  10.875  21.755  0.00  0.00    +0.000 A 
ATOM     19  C   UNL     1      -0.284   9.717  21.541  0.00  0.00    +0.000 A 
ATOM     20  C   UNL     1       0.595   9.643  20.466  0.00  0.00    +0.000 A 
ATOM     21  C   UNL     1       0.726  10.720  19.587  0.00  0.00    +0.000 A 
ATOM     22 CL   UNL     1       1.850  10.543  18.284  0.00  0.00    +0.000 Cl
ATOM     23  C   UNL     1      -0.044  11.880  19.772  0.00  0.00    +0.000 A 
ATOM     24 CL   UNL     1       0.083  13.182  18.624  0.00  0.00    +0.000 Cl
ENDBRANCH  16  17
BRANCH  14  25
ATOM     25  N   UNL     1      -1.268  14.827  24.608  0.00  0.00    +0.000 N 
ATOM     26  H   UNL     1      -1.962  14.985  25.334  0.00  0.00    +0.000 HD
ATOM     27  H   UNL     1      -0.395  14.445  24.961  0.00  0.00    +0.000 HD
ENDBRANCH  14  25
BRANCH  15  28
ATOM     28  C   UNL     1       0.334  14.326  22.174  0.00  0.00    +0.000 C 
ATOM     29  N   UNL     1       1.551  14.623  22.027  0.00  0.00    +0.000 NA
ENDBRANCH  15  28
TORSDOF 3
ENDMDL
MODEL 2
REMARK VINA RESULT:      -6.4      3.399      6.669
REMARK  Name = 
REMARK  4 active torsions:
REMARK  status: ('A' for Active; 'I' for Inactive)
REMARK    1  A    between atoms: C_1  and  C_2
REMARK    2  A    between atoms: C_14  and  N_15
REMARK    3  A    between atoms: C_16  and  C_17
REMARK    4  A    between atoms: C_19  and  C_20
REMARK                            x       y       z     vdW  Elec       q    Type
REMARK                         _______ _______ _______ _____ _____    ______ ____
ROOT
ATOM      1  C   UNL     1      -1.166  10.896  23.018  0.00  0.00    +0.000 C 
ATOM      2  C   UNL     1      -0.082   9.929  22.710  0.00  0.00    +0.000 C 
ATOM      3  O   UNL     1       0.288   9.092  23.527  0.00  0.00    +0.000 OA
ATOM      4  N   UNL     1       0.490   9.941  21.412  0.00  0.00    +0.000 N 
ATOM      5  C   UNL     1       0.647  10.981  20.478  0.00  0.00    +0.000 A 
ATOM      6  C   UNL     1       1.376  10.489  19.417  0.00  0.00    +0.000 A 
ATOM      7  C   UNL     1       1.590   9.113  19.585  0.00  0.00    +0.000 A 
ATOM      8  C   UNL     1       2.204   8.111  18.804  0.00  0.00    +0.000 A 
ATOM      9  C   UNL     1       2.232   6.792  19.266  0.00  0.00    +0.000 A 
ATOM     10  C   UNL     1       1.674   6.467  20.494  0.00  0.00    +0.000 A 
ATOM     11  C   UNL     1       1.076   7.447  21.289  0.00  0.00    +0.000 A 
ATOM     12  C   UNL     1       1.043   8.780  20.825  0.00  0.00    +0.000 A 
ATOM     13  O   UNL     1       1.803  11.252  18.383  0.00  0.00    +0.000 OA
ATOM     14  C   UNL     1       1.611  12.638  18.406  0.00  0.00    +0.000 C 
ATOM     15  C   UNL     1       0.920  13.230  19.400  0.00  0.00    +0.000 C 
ATOM     16  C   UNL     1       0.279  12.445  20.561  0.00  0.00    +0.000 C 
ENDROOT
BRANCH  16  17
ATOM     17  C   UNL     1      -1.235  12.705  20.543  0.00  0.00    +0.000 A 
ATOM     18  C   UNL     1      -2.036  12.056  19.580  0.00  0.00    +0.000 A 
ATOM     19  C   UNL     1      -3.410  12.279  19.520  0.00  0.00    +0.000 A 
ATOM     20  C   UNL     1      -4.007  13.187  20.389  0.00  0.00    +0.000 A 
ATOM     21  C   UNL     1      -3.237  13.868  21.334  0.00  0.00    +0.000 A 
ATOM     22 CL   UNL     1      -4.061  14.985  22.366  0.00  0.00    +0.000 Cl
ATOM     23  C   UNL     1      -1.857  13.627  21.427  0.00  0.00    +0.000 A 
ATOM     24 CL   UNL     1      -0.930  14.433  22.660  0.00  0.00    +0.000 Cl
ENDBRANCH  16  17
BRANCH  14  25
ATOM     25  N   UNL     1       2.170  13.286  17.330  0.00  0.00    +0.000 N 
ATOM     26  H   UNL     1       1.813  14.232  17.216  0.00  0.00    +0.000 HD
ATOM     27  H   UNL     1       3.181  13.224  17.244  0.00  0.00    +0.000 HD
ENDBRANCH  14  25
BRANCH  15  28
ATOM     28  C   UNL     1       0.645  14.725  19.415  0.00  0.00    +0.000 C 
ATOM     29  N   UNL     1       0.416  15.965  19.428  0.00  0.00    +0.000 NA
ENDBRANCH  15  28
TORSDOF 3
ENDMDL
MODEL 3
REMARK VINA RESULT:      -6.3      2.596      4.692
REMARK  Name = 
REMARK  4 active torsions:
REMARK  status: ('A' for Active; 'I' for Inactive)
REMARK    1  A    between atoms: C_1  and  C_2
REMARK    2  A    between atoms: C_14  and  N_15
REMARK    3  A    between atoms: C_16  and  C_17
REMARK    4  A    between atoms: C_19  and  C_20
REMARK                            x       y       z     vdW  Elec       q    Type
REMARK                         _______ _______ _______ _____ _____    ______ ____
ROOT
ATOM      1  C   UNL     1      -2.138  13.218  22.024  0.00  0.00    +0.000 C 
ATOM      2  C   UNL     1      -3.541  12.846  21.714  0.00  0.00    +0.000 C 
ATOM      3  O   UNL     1      -4.424  12.889  22.565  0.00  0.00    +0.000 OA
ATOM      4  N   UNL     1      -3.871  12.491  20.381  0.00  0.00    +0.000 N 
ATOM      5  C   UNL     1      -3.100  11.909  19.360  0.00  0.00    +0.000 A 
ATOM      6  C   UNL     1      -3.933  11.663  18.289  0.00  0.00    +0.000 A 
ATOM      7  C   UNL     1      -5.207  12.190  18.549  0.00  0.00    +0.000 A 
ATOM      8  C   UNL     1      -6.404  12.281  17.806  0.00  0.00    +0.000 A 
ATOM      9  C   UNL     1      -7.521  12.904  18.367  0.00  0.00    +0.000 A 
ATOM     10  C   UNL     1      -7.466  13.419  19.654  0.00  0.00    +0.000 A 
ATOM     11  C   UNL     1      -6.297  13.324  20.411  0.00  0.00    +0.000 A 
ATOM     12  C   UNL     1      -5.163  12.698  19.848  0.00  0.00    +0.000 A 
ATOM     13  O   UNL     1      -3.543  11.008  17.171  0.00  0.00    +0.000 OA
ATOM     14  C   UNL     1      -2.268  10.438  17.099  0.00  0.00    +0.000 C 
ATOM     15  C   UNL     1      -1.371  10.605  18.091  0.00  0.00    +0.000 C 
ATOM     16  C   UNL     1      -1.663  11.439  19.354  0.00  0.00    +0.000 C 
ENDROOT
BRANCH  16  17
ATOM     17  C   UNL     1      -0.638  12.580  19.428  0.00  0.00    +0.000 A 
ATOM     18  C   UNL     1      -0.839  13.741  18.649  0.00  0.00    +0.000 A 
ATOM     19  C   UNL     1       0.077  14.790  18.675  0.00  0.00    +0.000 A 
ATOM     20  C   UNL     1       1.234  14.687  19.441  0.00  0.00    +0.000 A 
ATOM     21  C   UNL     1       1.477  13.540  20.199  0.00  0.00    +0.000 A 
ATOM     22 CL   UNL     1       2.945  13.495  21.112  0.00  0.00    +0.000 Cl
ATOM     23  C   UNL     1       0.545  12.489  20.208  0.00  0.00    +0.000 A 
ATOM     24 CL   UNL     1       0.835  11.100  21.216  0.00  0.00    +0.000 Cl
ENDBRANCH  16  17
BRANCH  14  25
ATOM     25  N   UNL     1      -2.046   9.736  15.937  0.00  0.00    +0.000 N 
ATOM     26  H   UNL     1      -2.125   8.730  16.068  0.00  0.00    +0.000 HD
ATOM     27  H   UNL     1      -2.529  10.075  15.109  0.00  0.00    +0.000 HD
ENDBRANCH  14  25
BRANCH  15  28
ATOM     28  C   UNL     1       0.040  10.049  18.009  0.00  0.00    +0.000 C 
ATOM     29  N   UNL     1       1.212   9.588  17.941  0.00  0.00    +0.000 NA
ENDBRANCH  15  28
TORSDOF 3
ENDMDL
MODEL 4
REMARK VINA RESULT:      -6.2      3.197      6.475
REMARK  Name = 
REMARK  4 active torsions:
REMARK  status: ('A' for Active; 'I' for Inactive)
REMARK    1  A    between atoms: C_1  and  C_2
REMARK    2  A    between atoms: C_14  and  N_15
REMARK    3  A    between atoms: C_16  and  C_17
REMARK    4  A    between atoms: C_19  and  C_20
REMARK                            x       y       z     vdW  Elec       q    Type
REMARK                         _______ _______ _______ _____ _____    ______ ____
ROOT
ATOM      1  C   UNL     1      -1.160  10.693  23.089  0.00  0.00    +0.000 C 
ATOM      2  C   UNL     1       0.000  10.106  22.372  0.00  0.00    +0.000 C 
ATOM      3  O   UNL     1       0.587   9.115  22.794  0.00  0.00    +0.000 OA
ATOM      4  N   UNL     1       0.395  10.679  21.136  0.00  0.00    +0.000 N 
ATOM      5  C   UNL     1       0.283  11.992  20.645  0.00  0.00    +0.000 A 
ATOM      6  C   UNL     1       0.933  12.046  19.431  0.00  0.00    +0.000 A 
ATOM      7  C   UNL     1       1.358  10.761  19.063  0.00  0.00    +0.000 A 
ATOM      8  C   UNL     1       2.003  10.227  17.927  0.00  0.00    +0.000 A 
ATOM      9  C   UNL     1       2.275   8.858  17.865  0.00  0.00    +0.000 A 
ATOM     10  C   UNL     1       1.930   8.026  18.919  0.00  0.00    +0.000 A 
ATOM     11  C   UNL     1       1.306   8.537  20.058  0.00  0.00    +0.000 A 
ATOM     12  C   UNL     1       1.026   9.919  20.125  0.00  0.00    +0.000 A 
ATOM     13  O   UNL     1       1.112  13.189  18.727  0.00  0.00    +0.000 OA
ATOM     14  C   UNL     1       0.731  14.419  19.274  0.00  0.00    +0.000 C 
ATOM     15  C   UNL     1       0.096  14.488  20.461  0.00  0.00    +0.000 C 
ATOM     16  C   UNL     1      -0.274  13.241  21.289  0.00  0.00    +0.000 C 
ENDROOT
BRANCH  16  17
ATOM     17  C   UNL     1      -1.799  13.217  21.471  0.00  0.00    +0.000 A 
ATOM     18  C   UNL     1      -2.615  12.769  20.410  0.00  0.00    +0.000 A 
ATOM     19  C   UNL     1      -4.003  12.748  20.529  0.00  0.00    +0.000 A 
ATOM     20  C   UNL     1      -4.609  13.216  21.691  0.00  0.00    +0.000 A 
ATOM     21  C   UNL     1      -3.832  13.694  22.748  0.00  0.00    +0.000 A 
ATOM     22 CL   UNL     1      -4.670  14.266  24.149  0.00  0.00    +0.000 Cl
ATOM     23  C   UNL     1      -2.430  13.689  22.653  0.00  0.00    +0.000 A 
ATOM     24 CL   UNL     1      -1.480  14.223  24.010  0.00  0.00    +0.000 Cl
ENDBRANCH  16  17
BRANCH  14  25
ATOM     25  N   UNL     1       1.051  15.494  18.480  0.00  0.00    +0.000 N 
ATOM     26  H   UNL     1       1.589  16.200  18.977  0.00  0.00    +0.000 HD
ATOM     27  H   UNL     1       1.423  15.278  17.559  0.00  0.00    +0.000 HD
ENDBRANCH  14  25
BRANCH  15  28
ATOM     28  C   UNL     1      -0.383  15.806  21.047  0.00  0.00    +0.000 C 
ATOM     29  N   UNL     1      -0.782  16.899  21.533  0.00  0.00    +0.000 NA
ENDBRANCH  15  28
TORSDOF 3
ENDMDL
MODEL 5
REMARK VINA RESULT:      -6.2      1.700      2.135
REMARK  Name = 
REMARK  4 active torsions:
REMARK  status: ('A' for Active; 'I' for Inactive)
REMARK    1  A    between atoms: C_1  and  C_2
REMARK    2  A    between atoms: C_14  and  N_15
REMARK    3  A    between atoms: C_16  and  C_17
REMARK    4  A    between atoms: C_19  and  C_20
REMARK                            x       y       z     vdW  Elec       q    Type
REMARK                         _______ _______ _______ _____ _____    ______ ____
ROOT
ATOM      1  C   UNL     1      -1.879  10.017  17.903  0.00  0.00    +0.000 C 
ATOM      2  C   UNL     1      -3.010  10.980  17.918  0.00  0.00    +0.000 C 
ATOM      3  O   UNL     1      -3.849  11.005  17.023  0.00  0.00    +0.000 OA
ATOM      4  N   UNL     1      -3.147  11.849  19.031  0.00  0.00    +0.000 N 
ATOM      5  C   UNL     1      -2.190  12.389  19.909  0.00  0.00    +0.000 A 
ATOM      6  C   UNL     1      -2.837  13.272  20.747  0.00  0.00    +0.000 A 
ATOM      7  C   UNL     1      -4.219  13.222  20.513  0.00  0.00    +0.000 A 
ATOM      8  C   UNL     1      -5.339  13.847  21.103  0.00  0.00    +0.000 A 
ATOM      9  C   UNL     1      -6.622  13.557  20.632  0.00  0.00    +0.000 A 
ATOM     10  C   UNL     1      -6.799  12.671  19.579  0.00  0.00    +0.000 A 
ATOM     11  C   UNL     1      -5.703  12.055  18.972  0.00  0.00    +0.000 A 
ATOM     12  C   UNL     1      -4.404  12.343  19.445  0.00  0.00    +0.000 A 
ATOM     13  O   UNL     1      -2.198  14.052  21.650  0.00  0.00    +0.000 OA
ATOM     14  C   UNL     1      -0.800  14.077  21.694  0.00  0.00    +0.000 C 
ATOM     15  C   UNL     1      -0.063  13.263  20.912  0.00  0.00    +0.000 C 
ATOM     16  C   UNL     1      -0.686  12.243  19.939  0.00  0.00    +0.000 C 
ENDROOT
BRANCH  16  17
ATOM     17  C   UNL     1      -0.208  10.839  20.339  0.00  0.00    +0.000 A 
ATOM     18  C   UNL     1      -0.709  10.248  21.519  0.00  0.00    +0.000 A 
ATOM     19  C   UNL     1      -0.287   8.984  21.925  0.00  0.00    +0.000 A 
ATOM     20  C   UNL     1       0.676   8.301  21.188  0.00  0.00    +0.000 A 
ATOM     21  C   UNL     1       1.213   8.870  20.032  0.00  0.00    +0.000 A 
ATOM     22 CL   UNL     1       2.412   7.955  19.185  0.00  0.00    +0.000 Cl
ATOM     23  C   UNL     1       0.772  10.130  19.594  0.00  0.00    +0.000 A 
ATOM     24 CL   UNL     1       1.403  10.788  18.111  0.00  0.00    +0.000 Cl
ENDBRANCH  16  17
BRANCH  14  25
ATOM     25  N   UNL     1      -0.296  14.976  22.604  0.00  0.00    +0.000 N 
ATOM     26  H   UNL     1      -1.017  15.366  23.207  0.00  0.00    +0.000 HD
ATOM     27  H   UNL     1       0.538  14.687  23.107  0.00  0.00    +0.000 HD
ENDBRANCH  14  25
BRANCH  15  28
ATOM     28  C   UNL     1       1.455  13.226  20.986  0.00  0.00    +0.000 C 
ATOM     29  N   UNL     1       2.714  13.197  21.047  0.00  0.00    +0.000 NA
ENDBRANCH  15  28
TORSDOF 3
ENDMDL
MODEL 6
REMARK VINA RESULT:      -6.2      3.103      6.330
REMARK  Name = 
REMARK  4 active torsions:
REMARK  status: ('A' for Active; 'I' for Inactive)
REMARK    1  A    between atoms: C_1  and  C_2
REMARK    2  A    between atoms: C_14  and  N_15
REMARK    3  A    between atoms: C_16  and  C_17
REMARK    4  A    between atoms: C_19  and  C_20
REMARK                            x       y       z     vdW  Elec       q    Type
REMARK                         _______ _______ _______ _____ _____    ______ ____
ROOT
ATOM      1  C   UNL     1      -2.074  11.415  23.439  0.00  0.00    +0.000 C 
ATOM      2  C   UNL     1      -0.819  10.892  22.842  0.00  0.00    +0.000 C 
ATOM      3  O   UNL     1      -0.125  10.062  23.421  0.00  0.00    +0.000 OA
ATOM      4  N   UNL     1      -0.453  11.326  21.543  0.00  0.00    +0.000 N 
ATOM      5  C   UNL     1      -0.715  12.526  20.858  0.00  0.00    +0.000 A 
ATOM      6  C   UNL     1      -0.029  12.489  19.663  0.00  0.00    +0.000 A 
ATOM      7  C   UNL     1       0.575  11.233  19.501  0.00  0.00    +0.000 A 
ATOM      8  C   UNL     1       1.330  10.631  18.472  0.00  0.00    +0.000 A 
ATOM      9  C   UNL     1       1.781   9.317  18.622  0.00  0.00    +0.000 A 
ATOM     10  C   UNL     1       1.504   8.609  19.782  0.00  0.00    +0.000 A 
ATOM     11  C   UNL     1       0.774   9.193  20.819  0.00  0.00    +0.000 A 
ATOM     12  C   UNL     1       0.313  10.519  20.671  0.00  0.00    +0.000 A 
ATOM     13  O   UNL     1       0.028  13.530  18.799  0.00  0.00    +0.000 OA
ATOM     14  C   UNL     1      -0.532  14.764  19.147  0.00  0.00    +0.000 C 
ATOM     15  C   UNL     1      -1.218  14.920  20.297  0.00  0.00    +0.000 C 
ATOM     16  C   UNL     1      -1.456  13.769  21.295  0.00  0.00    +0.000 C 
ENDROOT
BRANCH  16  17
ATOM     17  C   UNL     1      -2.971  13.566  21.447  0.00  0.00    +0.000 A 
ATOM     18  C   UNL     1      -3.676  12.856  20.451  0.00  0.00    +0.000 A 
ATOM     19  C   UNL     1      -5.053  12.665  20.544  0.00  0.00    +0.000 A 
ATOM     20  C   UNL     1      -5.763  13.217  21.606  0.00  0.00    +0.000 A 
ATOM     21  C   UNL     1      -5.099  13.950  22.592  0.00  0.00    +0.000 A 
ATOM     22 CL   UNL     1      -6.063  14.608  23.869  0.00  0.00    +0.000 Cl
ATOM     23  C   UNL     1      -3.707  14.121  22.528  0.00  0.00    +0.000 A 
ATOM     24 CL   UNL     1      -2.891  14.978  23.805  0.00  0.00    +0.000 Cl
ENDBRANCH  16  17
BRANCH  14  25
ATOM     25  N   UNL     1      -0.323  15.745  18.207  0.00  0.00    +0.000 N 
ATOM     26  H   UNL     1       0.567  16.222  18.332  0.00  0.00    +0.000 HD
ATOM     27  H   UNL     1      -0.512  15.490  17.242  0.00  0.00    +0.000 HD
ENDBRANCH  14  25
BRANCH  15  28
ATOM     28  C   UNL     1      -1.889  16.232  20.668  0.00  0.00    +0.000 C 
ATOM     29  N   UNL     1      -2.445  17.321  20.975  0.00  0.00    +0.000 NA
ENDBRANCH  15  28
TORSDOF 3
ENDMDL
MODEL 7
REMARK VINA RESULT:      -6.1      1.115      1.205
REMARK  Name = 
REMARK  4 active torsions:
REMARK  status: ('A' for Active; 'I' for Inactive)
REMARK    1  A    between atoms: C_1  and  C_2
REMARK    2  A    between atoms: C_14  and  N_15
REMARK    3  A    between atoms: C_16  and  C_17
REMARK    4  A    between atoms: C_19  and  C_20
REMARK                            x       y       z     vdW  Elec       q    Type
REMARK                         _______ _______ _______ _____ _____    ______ ____
ROOT
ATOM      1  C   UNL     1      -2.820  11.463  17.835  0.00  0.00    +0.000 C 
ATOM      2  C   UNL     1      -4.220  11.757  18.234  0.00  0.00    +0.000 C 
ATOM      3  O   UNL     1      -5.161  11.586  17.465  0.00  0.00    +0.000 OA
ATOM      4  N   UNL     1      -4.471  12.189  19.561  0.00  0.00    +0.000 N 
ATOM      5  C   UNL     1      -3.671  12.902  20.471  0.00  0.00    +0.000 A 
ATOM      6  C   UNL     1      -4.435  13.169  21.587  0.00  0.00    +0.000 A 
ATOM      7  C   UNL     1      -5.680  12.534  21.473  0.00  0.00    +0.000 A 
ATOM      8  C   UNL     1      -6.805  12.415  22.317  0.00  0.00    +0.000 A 
ATOM      9  C   UNL     1      -7.911  11.673  21.898  0.00  0.00    +0.000 A 
ATOM     10  C   UNL     1      -7.916  11.067  20.650  0.00  0.00    +0.000 A 
ATOM     11  C   UNL     1      -6.821  11.186  19.793  0.00  0.00    +0.000 A 
ATOM     12  C   UNL     1      -5.699  11.932  20.213  0.00  0.00    +0.000 A 
ATOM     13  O   UNL     1      -4.010  13.934  22.620  0.00  0.00    +0.000 OA
ATOM     14  C   UNL     1      -2.781  14.598  22.545  0.00  0.00    +0.000 C 
ATOM     15  C   UNL     1      -1.954  14.419  21.495  0.00  0.00    +0.000 C 
ATOM     16  C   UNL     1      -2.278  13.472  20.323  0.00  0.00    +0.000 C 
ENDROOT
BRANCH  16  17
ATOM     17  C   UNL     1      -1.177  12.404  20.246  0.00  0.00    +0.000 A 
ATOM     18  C   UNL     1      -1.176  11.344  21.178  0.00  0.00    +0.000 A 
ATOM     19  C   UNL     1      -0.184  10.365  21.151  0.00  0.00    +0.000 A 
ATOM     20  C   UNL     1       0.851  10.447  20.226  0.00  0.00    +0.000 A 
ATOM     21  C   UNL     1       0.896  11.500  19.310  0.00  0.00    +0.000 A 
ATOM     22 CL   UNL     1       2.225  11.528  18.203  0.00  0.00    +0.000 Cl
ATOM     23  C   UNL     1      -0.116  12.475  19.304  0.00  0.00    +0.000 A 
ATOM     24 CL   UNL     1      -0.079  13.738  18.107  0.00  0.00    +0.000 Cl
ENDBRANCH  16  17
BRANCH  14  25
ATOM     25  N   UNL     1      -2.524  15.400  23.631  0.00  0.00    +0.000 N 
ATOM     26  H   UNL     1      -1.656  15.154  24.102  0.00  0.00    +0.000 HD
ATOM     27  H   UNL     1      -2.636  16.400  23.488  0.00  0.00    +0.000 HD
ENDBRANCH  14  25
BRANCH  15  28
ATOM     28  C   UNL     1      -0.588  15.079  21.420  0.00  0.00    +0.000 C 
ATOM     29  N   UNL     1       0.546  15.628  21.357  0.00  0.00    +0.000 NA
ENDBRANCH  15  28
TORSDOF 3
ENDMDL
MODEL 8
REMARK VINA RESULT:      -6.0      3.066      3.906
REMARK  Name = 
REMARK  4 active torsions:
REMARK  status: ('A' for Active; 'I' for Inactive)
REMARK    1  A    between atoms: C_1  and  C_2
REMARK    2  A    between atoms: C_14  and  N_15
REMARK    3  A    between atoms: C_16  and  C_17
REMARK    4  A    between atoms: C_19  and  C_20
REMARK                            x       y       z     vdW  Elec       q    Type
REMARK                         _______ _______ _______ _____ _____    ______ ____
ROOT
ATOM      1  C   UNL     1      -0.024  14.709  18.943  0.00  0.00    +0.000 C 
ATOM      2  C   UNL     1      -0.762  15.841  19.559  0.00  0.00    +0.000 C 
ATOM      3  O   UNL     1      -0.453  17.008  19.339  0.00  0.00    +0.000 OA
ATOM      4  N   UNL     1      -1.888  15.555  20.371  0.00  0.00    +0.000 N 
ATOM      5  C   UNL     1      -2.199  14.437  21.166  0.00  0.00    +0.000 A 
ATOM      6  C   UNL     1      -3.364  14.714  21.848  0.00  0.00    +0.000 A 
ATOM      7  C   UNL     1      -3.885  15.944  21.417  0.00  0.00    +0.000 A 
ATOM      8  C   UNL     1      -5.054  16.675  21.719  0.00  0.00    +0.000 A 
ATOM      9  C   UNL     1      -5.291  17.895  21.080  0.00  0.00    +0.000 A 
ATOM     10  C   UNL     1      -4.377  18.397  20.165  0.00  0.00    +0.000 A 
ATOM     11  C   UNL     1      -3.207  17.696  19.866  0.00  0.00    +0.000 A 
ATOM     12  C   UNL     1      -2.964  16.462  20.506  0.00  0.00    +0.000 A 
ATOM     13  O   UNL     1      -3.895  13.895  22.786  0.00  0.00    +0.000 OA
ATOM     14  C   UNL     1      -3.203  12.751  23.195  0.00  0.00    +0.000 C 
ATOM     15  C   UNL     1      -2.047  12.387  22.604  0.00  0.00    +0.000 C 
ATOM     16  C   UNL     1      -1.415  13.174  21.439  0.00  0.00    +0.000 C 
ENDROOT
BRANCH  16  17
ATOM     17  C   UNL     1      -1.307  12.237  20.226  0.00  0.00    +0.000 A 
ATOM     18  C   UNL     1      -2.461  11.962  19.460  0.00  0.00    +0.000 A 
ATOM     19  C   UNL     1      -2.407  11.104  18.364  0.00  0.00    +0.000 A 
ATOM     20  C   UNL     1      -1.215  10.468  18.034  0.00  0.00    +0.000 A 
ATOM     21  C   UNL     1      -0.062  10.697  18.789  0.00  0.00    +0.000 A 
ATOM     22 CL   UNL     1       1.372   9.856  18.313  0.00  0.00    +0.000 Cl
ATOM     23  C   UNL     1      -0.095  11.585  19.877  0.00  0.00    +0.000 A 
ATOM     24 CL   UNL     1       1.370  11.908  20.759  0.00  0.00    +0.000 Cl
ENDBRANCH  16  17
BRANCH  14  25
ATOM     25  N   UNL     1      -3.827  12.066  24.211  0.00  0.00    +0.000 N 
ATOM     26  H   UNL     1      -4.840  12.079  24.124  0.00  0.00    +0.000 HD
ATOM     27  H   UNL     1      -3.452  11.148  24.430  0.00  0.00    +0.000 HD
ENDBRANCH  14  25
BRANCH  15  28
ATOM     28  C   UNL     1      -1.308  11.115  22.987  0.00  0.00    +0.000 C 
ATOM     29  N   UNL     1      -0.695  10.060  23.304  0.00  0.00    +0.000 NA
ENDBRANCH  15  28
TORSDOF 3
ENDMDL
MODEL 9
REMARK VINA RESULT:      -6.0      3.172      6.532
REMARK  Name = 
REMARK  4 active torsions:
REMARK  status: ('A' for Active; 'I' for Inactive)
REMARK    1  A    between atoms: C_1  and  C_2
REMARK    2  A    between atoms: C_14  and  N_15
REMARK    3  A    between atoms: C_16  and  C_17
REMARK    4  A    between atoms: C_19  and  C_20
REMARK                            x       y       z     vdW  Elec       q    Type
REMARK                         _______ _______ _______ _____ _____    ______ ____
ROOT
ATOM      1  C   UNL     1      -1.231  10.984  22.944  0.00  0.00    +0.000 C 
ATOM      2  C   UNL     1      -0.150   9.999  22.684  0.00  0.00    +0.000 C 
ATOM      3  O   UNL     1       0.192   9.178  23.529  0.00  0.00    +0.000 OA
ATOM      4  N   UNL     1       0.455   9.978  21.402  0.00  0.00    +0.000 N 
ATOM      5  C   UNL     1       0.645  10.994  20.449  0.00  0.00    +0.000 A 
ATOM      6  C   UNL     1       1.396  10.472  19.418  0.00  0.00    +0.000 A 
ATOM      7  C   UNL     1       1.592   9.098  19.622  0.00  0.00    +0.000 A 
ATOM      8  C   UNL     1       2.215   8.073  18.879  0.00  0.00    +0.000 A 
ATOM      9  C   UNL     1       2.219   6.765  19.371  0.00  0.00    +0.000 A 
ATOM     10  C   UNL     1       1.627   6.473  20.591  0.00  0.00    +0.000 A 
ATOM     11  C   UNL     1       1.019   7.476  21.349  0.00  0.00    +0.000 A 
ATOM     12  C   UNL     1       1.010   8.799  20.855  0.00  0.00    +0.000 A 
ATOM     13  O   UNL     1       1.856  11.208  18.378  0.00  0.00    +0.000 OA
ATOM     14  C   UNL     1       1.677  12.595  18.365  0.00  0.00    +0.000 C 
ATOM     15  C   UNL     1       0.967  13.216  19.329  0.00  0.00    +0.000 C 
ATOM     16  C   UNL     1       0.290  12.463  20.490  0.00  0.00    +0.000 C 
ENDROOT
BRANCH  16  17
ATOM     17  C   UNL     1      -1.220  12.737  20.429  0.00  0.00    +0.000 A 
ATOM     18  C   UNL     1      -1.790  13.669  21.323  0.00  0.00    +0.000 A 
ATOM     19  C   UNL     1      -3.158  13.933  21.309  0.00  0.00    +0.000 A 
ATOM     20  C   UNL     1      -3.993  13.242  20.437  0.00  0.00    +0.000 A 
ATOM     21  C   UNL     1      -3.465  12.292  19.561  0.00  0.00    +0.000 A 
ATOM     22 CL   UNL     1      -4.578  11.474  18.520  0.00  0.00    +0.000 Cl
ATOM     23  C   UNL     1      -2.083  12.041  19.541  0.00  0.00    +0.000 A 
ATOM     24 CL   UNL     1      -1.438  10.905  18.391  0.00  0.00    +0.000 Cl
ENDBRANCH  16  17
BRANCH  14  25
ATOM     25  N   UNL     1       2.269  13.214  17.290  0.00  0.00    +0.000 N 
ATOM     26  H   UNL     1       1.631  13.326  16.505  0.00  0.00    +0.000 HD
ATOM     27  H   UNL     1       2.809  14.050  17.494  0.00  0.00    +0.000 HD
ENDBRANCH  14  25
BRANCH  15  28
ATOM     28  C   UNL     1       0.706  14.713  19.303  0.00  0.00    +0.000 C 
ATOM     29  N   UNL     1       0.488  15.955  19.282  0.00  0.00    +0.000 NA
ENDBRANCH  15  28
TORSDOF 3
ENDMDL
