MODEL 1
REMARK VINA RESULT:      -8.2      0.000      0.000
REMARK  Name = 
REMARK  5 active torsions:
REMARK  status: ('A' for Active; 'I' for Inactive)
REMARK    1  A    between atoms: C_5  and  C_6
REMARK    2  A    between atoms: C_15  and  C_16
REMARK    3  A    between atoms: C_19  and  O_20
REMARK    4  A    between atoms: O_20  and  C_21
REMARK    5  A    between atoms: C_21  and  C_22
REMARK                            x       y       z     vdW  Elec       q    Type
REMARK                         _______ _______ _______ _____ _____    ______ ____
ROOT
ATOM      1  O   UNL     1       1.662   9.894  18.361  0.00  0.00    +0.000 OA
ATOM      2  C   UNL     1       1.740   8.811  18.929  0.00  0.00    +0.000 A 
ATOM      3  N   UNL     1       2.241   7.727  18.259  0.00  0.00    +0.000 N 
ATOM      4  CA  UNL     1       2.440   6.466  18.777  0.00  0.00    +0.000 A 
ATOM      5  C   UNL     1       2.901   5.508  17.954  0.00  0.00    +0.000 C 
ATOM      6  C   UNL     1       2.123   6.243  20.236  0.00  0.00    +0.000 A 
ATOM      7  O   UNL     1       2.307   5.197  20.846  0.00  0.00    +0.000 OA
ATOM      8  N   UNL     1       1.599   7.320  20.899  0.00  0.00    +0.000 N 
ATOM      9  CA  UNL     1       1.351   8.560  20.361  0.00  0.00    +0.000 A 
ATOM     10  C   UNL     1       0.757   9.486  21.129  0.00  0.00    +0.000 C 
ATOM     11  H   UNL     1       2.462   7.916  17.289  0.00  0.00    +0.000 HD
ATOM     12  H   UNL     1       1.350   7.129  21.861  0.00  0.00    +0.000 HD
ENDROOT
BRANCH  10  13
ATOM     13  C   UNL     1       0.318  10.806  20.700  0.00  0.00    +0.000 A 
ATOM     14  C   UNL     1      -0.890  11.003  20.043  0.00  0.00    +0.000 A 
ATOM     15  C   UNL     1      -1.169  12.275  19.548  0.00  0.00    +0.000 A 
ATOM     16  C   UNL     1      -0.240  13.295  19.722  0.00  0.00    +0.000 A 
ATOM     17  C   UNL     1       0.904  13.010  20.458  0.00  0.00    +0.000 A 
ATOM     18  N   UNL     1       1.223  11.783  20.919  0.00  0.00    +0.000 NA
BRANCH  16  19
ATOM     19  O   UNL     1      -0.523  14.493  19.133  0.00  0.00    +0.000 OA
BRANCH  19  20
ATOM     20  C   UNL     1       0.207  15.596  19.679  0.00  0.00    +0.000 C 
BRANCH  20  21
ATOM     21  C   UNL     1       0.446  16.605  18.590  0.00  0.00    +0.000 A 
ATOM     22  C   UNL     1      -0.618  17.341  18.053  0.00  0.00    +0.000 A 
ATOM     23  C   UNL     1      -0.385  18.273  17.043  0.00  0.00    +0.000 A 
ATOM     24  C   UNL     1       0.907  18.472  16.557  0.00  0.00    +0.000 A 
ATOM     25  C   UNL     1       1.970  17.737  17.079  0.00  0.00    +0.000 A 
ATOM     26  C   UNL     1       1.740  16.804  18.089  0.00  0.00    +0.000 A 
ENDBRANCH  20  21
ENDBRANCH  19  20
ENDBRANCH  16  19
ENDBRANCH  10  13
BRANCH   5  27
ATOM     27  C   UNL     1       3.130   4.157  18.323  0.00  0.00    +0.000 A 
ATOM     28  C   UNL     1       2.274   3.074  18.244  0.00  0.00    +0.000 A 
ATOM     29  C   UNL     1       2.847   1.882  18.776  0.00  0.00    +0.000 A 
ATOM     30  C   UNL     1       4.126   2.089  19.241  0.00  0.00    +0.000 A 
ATOM     31  S   UNL     1       4.623   3.712  19.051  0.00  0.00    +0.000 S 
ENDBRANCH   5  27
TORSDOF 5
ENDMDL
MODEL 2
REMARK VINA RESULT:      -8.0      0.870      1.520
REMARK  Name = 
REMARK  5 active torsions:
REMARK  status: ('A' for Active; 'I' for Inactive)
REMARK    1  A    between atoms: C_5  and  C_6
REMARK    2  A    between atoms: C_15  and  C_16
REMARK    3  A    between atoms: C_19  and  O_20
REMARK    4  A    between atoms: O_20  and  C_21
REMARK    5  A    between atoms: C_21  and  C_22
REMARK                            x       y       z     vdW  Elec       q    Type
REMARK                         _______ _______ _______ _____ _____    ______ ____
ROOT
ATOM      1  O   UNL     1       1.823   9.978  18.026  0.00  0.00    +0.000 OA
ATOM      2  C   UNL     1       1.836   8.934  18.668  0.00  0.00    +0.000 A 
ATOM      3  N   UNL     1       2.283   7.781  18.080  0.00  0.00    +0.000 N 
ATOM      4  CA  UNL     1       2.408   6.550  18.687  0.00  0.00    +0.000 A 
ATOM      5  C   UNL     1       2.824   5.513  17.938  0.00  0.00    +0.000 C 
ATOM      6  C   UNL     1       2.062   6.445  20.153  0.00  0.00    +0.000 A 
ATOM      7  O   UNL     1       2.181   5.435  20.835  0.00  0.00    +0.000 OA
ATOM      8  N   UNL     1       1.590   7.592  20.733  0.00  0.00    +0.000 N 
ATOM      9  CA  UNL     1       1.417   8.804  20.107  0.00  0.00    +0.000 A 
ATOM     10  C   UNL     1       0.866   9.811  20.801  0.00  0.00    +0.000 C 
ATOM     11  H   UNL     1       2.526   7.890  17.104  0.00  0.00    +0.000 HD
ATOM     12  H   UNL     1       1.320   7.482  21.701  0.00  0.00    +0.000 HD
ENDROOT
BRANCH  10  13
ATOM     13  C   UNL     1       0.505  11.120  20.276  0.00  0.00    +0.000 A 
ATOM     14  C   UNL     1       1.352  12.216  20.385  0.00  0.00    +0.000 A 
ATOM     15  C   UNL     1       0.873  13.459  19.978  0.00  0.00    +0.000 A 
ATOM     16  C   UNL     1      -0.423  13.565  19.486  0.00  0.00    +0.000 A 
ATOM     17  C   UNL     1      -1.161  12.395  19.349  0.00  0.00    +0.000 A 
ATOM     18  N   UNL     1      -0.743  11.182  19.766  0.00  0.00    +0.000 NA
BRANCH  16  19
ATOM     19  O   UNL     1      -0.871  14.820  19.193  0.00  0.00    +0.000 OA
BRANCH  19  20
ATOM     20  C   UNL     1      -0.025  15.868  19.676  0.00  0.00    +0.000 C 
BRANCH  20  21
ATOM     21  C   UNL     1       0.244  16.830  18.552  0.00  0.00    +0.000 A 
ATOM     22  C   UNL     1       1.535  16.971  18.029  0.00  0.00    +0.000 A 
ATOM     23  C   UNL     1       1.774  17.866  16.987  0.00  0.00    +0.000 A 
ATOM     24  C   UNL     1       0.731  18.630  16.466  0.00  0.00    +0.000 A 
ATOM     25  C   UNL     1      -0.555  18.503  16.988  0.00  0.00    +0.000 A 
ATOM     26  C   UNL     1      -0.798  17.609  18.030  0.00  0.00    +0.000 A 
ENDBRANCH  20  21
ENDBRANCH  19  20
ENDBRANCH  16  19
ENDBRANCH  10  13
BRANCH   5  27
ATOM     27  C   UNL     1       2.975   4.181  18.402  0.00  0.00    +0.000 A 
ATOM     28  C   UNL     1       4.100   3.555  18.904  0.00  0.00    +0.000 A 
ATOM     29  C   UNL     1       3.875   2.180  19.208  0.00  0.00    +0.000 A 
ATOM     30  C   UNL     1       2.582   1.799  18.934  0.00  0.00    +0.000 A 
ATOM     31  S   UNL     1       1.654   3.085  18.299  0.00  0.00    +0.000 S 
ENDBRANCH   5  27
TORSDOF 5
ENDMDL
MODEL 3
REMARK VINA RESULT:      -7.9      4.097     10.125
REMARK  Name = 
REMARK  5 active torsions:
REMARK  status: ('A' for Active; 'I' for Inactive)
REMARK    1  A    between atoms: C_5  and  C_6
REMARK    2  A    between atoms: C_15  and  C_16
REMARK    3  A    between atoms: C_19  and  O_20
REMARK    4  A    between atoms: O_20  and  C_21
REMARK    5  A    between atoms: C_21  and  C_22
REMARK                            x       y       z     vdW  Elec       q    Type
REMARK                         _______ _______ _______ _____ _____    ______ ____
ROOT
ATOM      1  O   UNL     1       2.578   7.797  17.694  0.00  0.00    +0.000 OA
ATOM      2  C   UNL     1       2.038   8.265  18.689  0.00  0.00    +0.000 A 
ATOM      3  N   UNL     1       1.576   9.554  18.670  0.00  0.00    +0.000 N 
ATOM      4  CA  UNL     1       0.902  10.196  19.685  0.00  0.00    +0.000 A 
ATOM      5  C   UNL     1       0.563  11.485  19.505  0.00  0.00    +0.000 C 
ATOM      6  C   UNL     1       0.595   9.410  20.938  0.00  0.00    +0.000 A 
ATOM      7  O   UNL     1      -0.046   9.829  21.893  0.00  0.00    +0.000 OA
ATOM      8  N   UNL     1       1.079   8.130  20.967  0.00  0.00    +0.000 N 
ATOM      9  CA  UNL     1       1.798   7.514  19.971  0.00  0.00    +0.000 A 
ATOM     10  C   UNL     1       2.271   6.277  20.191  0.00  0.00    +0.000 C 
ATOM     11  H   UNL     1       1.781  10.045  17.808  0.00  0.00    +0.000 HD
ATOM     12  H   UNL     1       0.902   7.644  21.836  0.00  0.00    +0.000 HD
ENDROOT
BRANCH  10  13
ATOM     13  C   UNL     1       3.140   5.519  19.305  0.00  0.00    +0.000 A 
ATOM     14  C   UNL     1       4.525   5.619  19.367  0.00  0.00    +0.000 A 
ATOM     15  C   UNL     1       5.276   4.962  18.394  0.00  0.00    +0.000 A 
ATOM     16  C   UNL     1       4.624   4.240  17.401  0.00  0.00    +0.000 A 
ATOM     17  C   UNL     1       3.240   4.142  17.472  0.00  0.00    +0.000 A 
ATOM     18  N   UNL     1       2.480   4.793  18.378  0.00  0.00    +0.000 NA
BRANCH  16  19
ATOM     19  O   UNL     1       5.404   3.699  16.420  0.00  0.00    +0.000 OA
BRANCH  19  20
ATOM     20  C   UNL     1       6.520   4.513  16.048  0.00  0.00    +0.000 C 
BRANCH  20  21
ATOM     21  C   UNL     1       6.704   4.430  14.557  0.00  0.00    +0.000 A 
ATOM     22  C   UNL     1       7.626   5.258  13.906  0.00  0.00    +0.000 A 
ATOM     23  C   UNL     1       7.787   5.174  12.524  0.00  0.00    +0.000 A 
ATOM     24  C   UNL     1       7.026   4.271  11.783  0.00  0.00    +0.000 A 
ATOM     25  C   UNL     1       6.099   3.450  12.422  0.00  0.00    +0.000 A 
ATOM     26  C   UNL     1       5.935   3.532  13.804  0.00  0.00    +0.000 A 
ENDBRANCH  20  21
ENDBRANCH  19  20
ENDBRANCH  16  19
ENDBRANCH  10  13
BRANCH   5  27
ATOM     27  C   UNL     1      -0.104  12.294  20.462  0.00  0.00    +0.000 A 
ATOM     28  C   UNL     1       0.430  13.040  21.496  0.00  0.00    +0.000 A 
ATOM     29  C   UNL     1      -0.571  13.672  22.291  0.00  0.00    +0.000 A 
ATOM     30  C   UNL     1      -1.840  13.393  21.836  0.00  0.00    +0.000 A 
ATOM     31  S   UNL     1      -1.821  12.364  20.472  0.00  0.00    +0.000 S 
ENDBRANCH   5  27
TORSDOF 5
ENDMDL
MODEL 4
REMARK VINA RESULT:      -7.8      4.054     10.116
REMARK  Name = 
REMARK  5 active torsions:
REMARK  status: ('A' for Active; 'I' for Inactive)
REMARK    1  A    between atoms: C_5  and  C_6
REMARK    2  A    between atoms: C_15  and  C_16
REMARK    3  A    between atoms: C_19  and  O_20
REMARK    4  A    between atoms: O_20  and  C_21
REMARK    5  A    between atoms: C_21  and  C_22
REMARK                            x       y       z     vdW  Elec       q    Type
REMARK                         _______ _______ _______ _____ _____    ______ ____
ROOT
ATOM      1  O   UNL     1       2.621   7.894  17.505  0.00  0.00    +0.000 OA
ATOM      2  C   UNL     1       2.089   8.414  18.478  0.00  0.00    +0.000 A 
ATOM      3  N   UNL     1       1.654   9.711  18.402  0.00  0.00    +0.000 N 
ATOM      4  CA  UNL     1       0.992  10.410  19.388  0.00  0.00    +0.000 A 
ATOM      5  C   UNL     1       0.680  11.697  19.152  0.00  0.00    +0.000 C 
ATOM      6  C   UNL     1       0.666   9.685  20.671  0.00  0.00    +0.000 A 
ATOM      7  O   UNL     1       0.032  10.158  21.606  0.00  0.00    +0.000 OA
ATOM      8  N   UNL     1       1.123   8.398  20.757  0.00  0.00    +0.000 N 
ATOM      9  CA  UNL     1       1.831   7.724  19.790  0.00  0.00    +0.000 A 
ATOM     10  C   UNL     1       2.277   6.489  20.064  0.00  0.00    +0.000 C 
ATOM     11  H   UNL     1       1.870  10.160  17.521  0.00  0.00    +0.000 HD
ATOM     12  H   UNL     1       0.934   7.952  21.645  0.00  0.00    +0.000 HD
ENDROOT
BRANCH  10  13
ATOM     13  C   UNL     1       3.132   5.675  19.214  0.00  0.00    +0.000 A 
ATOM     14  C   UNL     1       4.518   5.751  19.273  0.00  0.00    +0.000 A 
ATOM     15  C   UNL     1       5.256   5.037  18.332  0.00  0.00    +0.000 A 
ATOM     16  C   UNL     1       4.591   4.284  17.370  0.00  0.00    +0.000 A 
ATOM     17  C   UNL     1       3.205   4.217  17.444  0.00  0.00    +0.000 A 
ATOM     18  N   UNL     1       2.457   4.922  18.319  0.00  0.00    +0.000 NA
BRANCH  16  19
ATOM     19  O   UNL     1       5.361   3.685  16.415  0.00  0.00    +0.000 OA
BRANCH  19  20
ATOM     20  C   UNL     1       6.527   4.431  16.055  0.00  0.00    +0.000 C 
BRANCH  20  21
ATOM     21  C   UNL     1       6.692   4.381  14.561  0.00  0.00    +0.000 A 
ATOM     22  C   UNL     1       5.935   3.491  13.789  0.00  0.00    +0.000 A 
ATOM     23  C   UNL     1       6.097   3.452  12.405  0.00  0.00    +0.000 A 
ATOM     24  C   UNL     1       7.017   4.296  11.783  0.00  0.00    +0.000 A 
ATOM     25  C   UNL     1       7.780   5.178  12.545  0.00  0.00    +0.000 A 
ATOM     26  C   UNL     1       7.622   5.218  13.929  0.00  0.00    +0.000 A 
ENDBRANCH  20  21
ENDBRANCH  19  20
ENDBRANCH  16  19
ENDBRANCH  10  13
BRANCH   5  27
ATOM     27  C   UNL     1       0.029  12.559  20.071  0.00  0.00    +0.000 A 
ATOM     28  C   UNL     1      -1.323  12.806  20.227  0.00  0.00    +0.000 A 
ATOM     29  C   UNL     1      -1.589  13.793  21.221  0.00  0.00    +0.000 A 
ATOM     30  C   UNL     1      -0.434  14.265  21.799  0.00  0.00    +0.000 A 
ATOM     31  S   UNL     1       0.961  13.537  21.134  0.00  0.00    +0.000 S 
ENDBRANCH   5  27
TORSDOF 5
ENDMDL
MODEL 5
REMARK VINA RESULT:      -7.8      4.101     10.106
REMARK  Name = 
REMARK  5 active torsions:
REMARK  status: ('A' for Active; 'I' for Inactive)
REMARK    1  A    between atoms: C_5  and  C_6
REMARK    2  A    between atoms: C_15  and  C_16
REMARK    3  A    between atoms: C_19  and  O_20
REMARK    4  A    between atoms: O_20  and  C_21
REMARK    5  A    between atoms: C_21  and  C_22
REMARK                            x       y       z     vdW  Elec       q    Type
REMARK                         _______ _______ _______ _____ _____    ______ ____
ROOT
ATOM      1  O   UNL     1       1.590   8.391  17.578  0.00  0.00    +0.000 OA
ATOM      2  C   UNL     1       1.382   8.884  18.680  0.00  0.00    +0.000 A 
ATOM      3  N   UNL     1       0.845  10.141  18.772  0.00  0.00    +0.000 N 
ATOM      4  CA  UNL     1       0.506  10.801  19.932  0.00  0.00    +0.000 A 
ATOM      5  C   UNL     1       0.030  12.055  19.832  0.00  0.00    +0.000 C 
ATOM      6  C   UNL     1       0.698  10.075  21.242  0.00  0.00    +0.000 A 
ATOM      7  O   UNL     1       0.385  10.511  22.343  0.00  0.00    +0.000 OA
ATOM      8  N   UNL     1       1.258   8.829  21.151  0.00  0.00    +0.000 N 
ATOM      9  CA  UNL     1       1.645   8.198  19.993  0.00  0.00    +0.000 A 
ATOM     10  C   UNL     1       2.256   7.007  20.084  0.00  0.00    +0.000 C 
ATOM     11  H   UNL     1       0.711  10.591  17.875  0.00  0.00    +0.000 HD
ATOM     12  H   UNL     1       1.421   8.385  22.045  0.00  0.00    +0.000 HD
ENDROOT
BRANCH  10  13
ATOM     13  C   UNL     1       2.831   6.249  18.983  0.00  0.00    +0.000 A 
ATOM     14  C   UNL     1       2.199   5.132  18.449  0.00  0.00    +0.000 A 
ATOM     15  C   UNL     1       2.882   4.387  17.490  0.00  0.00    +0.000 A 
ATOM     16  C   UNL     1       4.160   4.776  17.105  0.00  0.00    +0.000 A 
ATOM     17  C   UNL     1       4.671   5.950  17.647  0.00  0.00    +0.000 A 
ATOM     18  N   UNL     1       4.054   6.675  18.603  0.00  0.00    +0.000 NA
BRANCH  16  19
ATOM     19  O   UNL     1       4.819   3.956  16.235  0.00  0.00    +0.000 OA
BRANCH  19  20
ATOM     20  C   UNL     1       6.195   4.296  16.042  0.00  0.00    +0.000 C 
BRANCH  20  21
ATOM     21  C   UNL     1       6.493   4.294  14.568  0.00  0.00    +0.000 A 
ATOM     22  C   UNL     1       5.784   3.456  13.699  0.00  0.00    +0.000 A 
ATOM     23  C   UNL     1       6.070   3.461  12.335  0.00  0.00    +0.000 A 
ATOM     24  C   UNL     1       7.066   4.296  11.830  0.00  0.00    +0.000 A 
ATOM     25  C   UNL     1       7.782   5.127  12.690  0.00  0.00    +0.000 A 
ATOM     26  C   UNL     1       7.500   5.123  14.055  0.00  0.00    +0.000 A 
ENDBRANCH  20  21
ENDBRANCH  19  20
ENDBRANCH  16  19
ENDBRANCH  10  13
BRANCH   5  27
ATOM     27  C   UNL     1      -0.335  12.879  20.928  0.00  0.00    +0.000 A 
ATOM     28  C   UNL     1      -1.548  12.968  21.585  0.00  0.00    +0.000 A 
ATOM     29  C   UNL     1      -1.549  13.964  22.605  0.00  0.00    +0.000 A 
ATOM     30  C   UNL     1      -0.334  14.603  22.699  0.00  0.00    +0.000 A 
ATOM     31  S   UNL     1       0.791  14.016  21.555  0.00  0.00    +0.000 S 
ENDBRANCH   5  27
TORSDOF 5
ENDMDL
MODEL 6
REMARK VINA RESULT:      -7.8      4.101     10.149
REMARK  Name = 
REMARK  5 active torsions:
REMARK  status: ('A' for Active; 'I' for Inactive)
REMARK    1  A    between atoms: C_5  and  C_6
REMARK    2  A    between atoms: C_15  and  C_16
REMARK    3  A    between atoms: C_19  and  O_20
REMARK    4  A    between atoms: O_20  and  C_21
REMARK    5  A    between atoms: C_21  and  C_22
REMARK                            x       y       z     vdW  Elec       q    Type
REMARK                         _______ _______ _______ _____ _____    ______ ____
ROOT
ATOM      1  O   UNL     1       1.811   8.429  17.522  0.00  0.00    +0.000 OA
ATOM      2  C   UNL     1       1.530   8.910  18.614  0.00  0.00    +0.000 A 
ATOM      3  N   UNL     1       1.025  10.181  18.686  0.00  0.00    +0.000 N 
ATOM      4  CA  UNL     1       0.613  10.832  19.828  0.00  0.00    +0.000 A 
ATOM      5  C   UNL     1       0.184  12.102  19.713  0.00  0.00    +0.000 C 
ATOM      6  C   UNL     1       0.678  10.079  21.135  0.00  0.00    +0.000 A 
ATOM      7  O   UNL     1       0.291  10.507  22.215  0.00  0.00    +0.000 OA
ATOM      8  N   UNL     1       1.207   8.818  21.066  0.00  0.00    +0.000 N 
ATOM      9  CA  UNL     1       1.666   8.194  19.930  0.00  0.00    +0.000 A 
ATOM     10  C   UNL     1       2.233   6.984  20.048  0.00  0.00    +0.000 C 
ATOM     11  H   UNL     1       0.976  10.650  17.790  0.00  0.00    +0.000 HD
ATOM     12  H   UNL     1       1.284   8.355  21.962  0.00  0.00    +0.000 HD
ENDROOT
BRANCH  10  13
ATOM     13  C   UNL     1       2.871   6.226  18.982  0.00  0.00    +0.000 A 
ATOM     14  C   UNL     1       2.247   5.146  18.370  0.00  0.00    +0.000 A 
ATOM     15  C   UNL     1       2.981   4.395  17.455  0.00  0.00    +0.000 A 
ATOM     16  C   UNL     1       4.302   4.742  17.189  0.00  0.00    +0.000 A 
ATOM     17  C   UNL     1       4.807   5.883  17.800  0.00  0.00    +0.000 A 
ATOM     18  N   UNL     1       4.137   6.613  18.717  0.00  0.00    +0.000 NA
BRANCH  16  19
ATOM     19  O   UNL     1       5.002   3.914  16.360  0.00  0.00    +0.000 OA
BRANCH  19  20
ATOM     20  C   UNL     1       6.338   4.351  16.094  0.00  0.00    +0.000 C 
BRANCH  20  21
ATOM     21  C   UNL     1       6.573   4.313  14.609  0.00  0.00    +0.000 A 
ATOM     22  C   UNL     1       7.547   5.129  14.021  0.00  0.00    +0.000 A 
ATOM     23  C   UNL     1       7.756   5.086  12.643  0.00  0.00    +0.000 A 
ATOM     24  C   UNL     1       6.992   4.237  11.844  0.00  0.00    +0.000 A 
ATOM     25  C   UNL     1       6.015   3.428  12.420  0.00  0.00    +0.000 A 
ATOM     26  C   UNL     1       5.802   3.469  13.798  0.00  0.00    +0.000 A 
ENDBRANCH  20  21
ENDBRANCH  19  20
ENDBRANCH  16  19
ENDBRANCH  10  13
BRANCH   5  27
ATOM     27  C   UNL     1      -0.244  12.918  20.793  0.00  0.00    +0.000 A 
ATOM     28  C   UNL     1       0.506  13.738  21.616  0.00  0.00    +0.000 A 
ATOM     29  C   UNL     1      -0.275  14.353  22.637  0.00  0.00    +0.000 A 
ATOM     30  C   UNL     1      -1.600  13.989  22.560  0.00  0.00    +0.000 A 
ATOM     31  S   UNL     1      -1.893  12.901  21.276  0.00  0.00    +0.000 S 
ENDBRANCH   5  27
TORSDOF 5
ENDMDL
MODEL 7
REMARK VINA RESULT:      -7.8      0.804      1.039
REMARK  Name = 
REMARK  5 active torsions:
REMARK  status: ('A' for Active; 'I' for Inactive)
REMARK    1  A    between atoms: C_5  and  C_6
REMARK    2  A    between atoms: C_15  and  C_16
REMARK    3  A    between atoms: C_19  and  O_20
REMARK    4  A    between atoms: O_20  and  C_21
REMARK    5  A    between atoms: C_21  and  C_22
REMARK                            x       y       z     vdW  Elec       q    Type
REMARK                         _______ _______ _______ _____ _____    ______ ____
ROOT
ATOM      1  O   UNL     1       1.648  10.011  18.528  0.00  0.00    +0.000 OA
ATOM      2  C   UNL     1       1.707   8.919  19.080  0.00  0.00    +0.000 A 
ATOM      3  N   UNL     1       2.204   7.839  18.399  0.00  0.00    +0.000 N 
ATOM      4  CA  UNL     1       2.383   6.569  18.900  0.00  0.00    +0.000 A 
ATOM      5  C   UNL     1       2.843   5.618  18.068  0.00  0.00    +0.000 C 
ATOM      6  C   UNL     1       2.044   6.327  20.352  0.00  0.00    +0.000 A 
ATOM      7  O   UNL     1       2.209   5.269  20.947  0.00  0.00    +0.000 OA
ATOM      8  N   UNL     1       1.523   7.399  21.024  0.00  0.00    +0.000 N 
ATOM      9  CA  UNL     1       1.297   8.650  20.502  0.00  0.00    +0.000 A 
ATOM     10  C   UNL     1       0.702   9.571  21.277  0.00  0.00    +0.000 C 
ATOM     11  H   UNL     1       2.440   8.041  17.435  0.00  0.00    +0.000 HD
ATOM     12  H   UNL     1       1.259   7.196  21.980  0.00  0.00    +0.000 HD
ENDROOT
BRANCH  10  13
ATOM     13  C   UNL     1       0.284  10.901  20.863  0.00  0.00    +0.000 A 
ATOM     14  C   UNL     1      -0.923  11.125  20.212  0.00  0.00    +0.000 A 
ATOM     15  C   UNL     1      -1.183  12.407  19.732  0.00  0.00    +0.000 A 
ATOM     16  C   UNL     1      -0.237  13.409  19.912  0.00  0.00    +0.000 A 
ATOM     17  C   UNL     1       0.905  13.099  20.641  0.00  0.00    +0.000 A 
ATOM     18  N   UNL     1       1.205  11.862  21.089  0.00  0.00    +0.000 NA
BRANCH  16  19
ATOM     19  O   UNL     1      -0.501  14.618  19.337  0.00  0.00    +0.000 OA
BRANCH  19  20
ATOM     20  C   UNL     1       0.261  15.701  19.879  0.00  0.00    +0.000 C 
BRANCH  20  21
ATOM     21  C   UNL     1       1.065  16.329  18.774  0.00  0.00    +0.000 A 
ATOM     22  C   UNL     1       0.560  17.420  18.057  0.00  0.00    +0.000 A 
ATOM     23  C   UNL     1       1.313  17.993  17.033  0.00  0.00    +0.000 A 
ATOM     24  C   UNL     1       2.569  17.479  16.715  0.00  0.00    +0.000 A 
ATOM     25  C   UNL     1       3.075  16.387  17.417  0.00  0.00    +0.000 A 
ATOM     26  C   UNL     1       2.324  15.811  18.441  0.00  0.00    +0.000 A 
ENDBRANCH  20  21
ENDBRANCH  19  20
ENDBRANCH  16  19
ENDBRANCH  10  13
BRANCH   5  27
ATOM     27  C   UNL     1       3.053   4.259  18.419  0.00  0.00    +0.000 A 
ATOM     28  C   UNL     1       4.205   3.644  18.874  0.00  0.00    +0.000 A 
ATOM     29  C   UNL     1       4.041   2.240  19.060  0.00  0.00    +0.000 A 
ATOM     30  C   UNL     1       2.767   1.825  18.745  0.00  0.00    +0.000 A 
ATOM     31  S   UNL     1       1.784   3.118  18.215  0.00  0.00    +0.000 S 
ENDBRANCH   5  27
TORSDOF 5
ENDMDL
MODEL 8
REMARK VINA RESULT:      -7.7      4.212     10.109
REMARK  Name = 
REMARK  5 active torsions:
REMARK  status: ('A' for Active; 'I' for Inactive)
REMARK    1  A    between atoms: C_5  and  C_6
REMARK    2  A    between atoms: C_15  and  C_16
REMARK    3  A    between atoms: C_19  and  O_20
REMARK    4  A    between atoms: O_20  and  C_21
REMARK    5  A    between atoms: C_21  and  C_22
REMARK                            x       y       z     vdW  Elec       q    Type
REMARK                         _______ _______ _______ _____ _____    ______ ____
ROOT
ATOM      1  O   UNL     1       3.021   7.734  17.706  0.00  0.00    +0.000 OA
ATOM      2  C   UNL     1       2.334   8.066  18.664  0.00  0.00    +0.000 A 
ATOM      3  N   UNL     1       1.763   9.310  18.691  0.00  0.00    +0.000 N 
ATOM      4  CA  UNL     1       0.925   9.803  19.668  0.00  0.00    +0.000 A 
ATOM      5  C   UNL     1       0.493  11.072  19.551  0.00  0.00    +0.000 C 
ATOM      6  C   UNL     1       0.553   8.888  20.809  0.00  0.00    +0.000 A 
ATOM      7  O   UNL     1      -0.226   9.167  21.712  0.00  0.00    +0.000 OA
ATOM      8  N   UNL     1       1.144   7.653  20.794  0.00  0.00    +0.000 N 
ATOM      9  CA  UNL     1       2.022   7.187  19.845  0.00  0.00    +0.000 A 
ATOM     10  C   UNL     1       2.577   5.979  20.022  0.00  0.00    +0.000 C 
ATOM     11  H   UNL     1       2.017   9.891  17.902  0.00  0.00    +0.000 HD
ATOM     12  H   UNL     1       0.916   7.079  21.595  0.00  0.00    +0.000 HD
ENDROOT
BRANCH  10  13
ATOM     13  C   UNL     1       3.604   5.374  19.188  0.00  0.00    +0.000 A 
ATOM     14  C   UNL     1       4.958   5.533  19.454  0.00  0.00    +0.000 A 
ATOM     15  C   UNL     1       5.873   5.035  18.529  0.00  0.00    +0.000 A 
ATOM     16  C   UNL     1       5.409   4.404  17.380  0.00  0.00    +0.000 A 
ATOM     17  C   UNL     1       4.036   4.232  17.245  0.00  0.00    +0.000 A 
ATOM     18  N   UNL     1       3.122   4.732  18.102  0.00  0.00    +0.000 NA
BRANCH  16  19
ATOM     19  O   UNL     1       6.346   4.022  16.465  0.00  0.00    +0.000 OA
BRANCH  19  20
ATOM     20  C   UNL     1       6.770   5.073  15.592  0.00  0.00    +0.000 C 
BRANCH  20  21
ATOM     21  C   UNL     1       6.676   4.591  14.170  0.00  0.00    +0.000 A 
ATOM     22  C   UNL     1       5.631   3.748  13.772  0.00  0.00    +0.000 A 
ATOM     23  C   UNL     1       5.554   3.306  12.452  0.00  0.00    +0.000 A 
ATOM     24  C   UNL     1       6.520   3.695  11.525  0.00  0.00    +0.000 A 
ATOM     25  C   UNL     1       7.568   4.525  11.916  0.00  0.00    +0.000 A 
ATOM     26  C   UNL     1       7.649   4.969  13.235  0.00  0.00    +0.000 A 
ENDBRANCH  20  21
ENDBRANCH  19  20
ENDBRANCH  16  19
ENDBRANCH  10  13
BRANCH   5  27
ATOM     27  C   UNL     1      -0.346  11.736  20.483  0.00  0.00    +0.000 A 
ATOM     28  C   UNL     1      -0.029  12.263  21.721  0.00  0.00    +0.000 A 
ATOM     29  C   UNL     1      -1.163  12.799  22.397  0.00  0.00    +0.000 A 
ATOM     30  C   UNL     1      -2.314  12.670  21.653  0.00  0.00    +0.000 A 
ATOM     31  S   UNL     1      -2.027  11.894  20.158  0.00  0.00    +0.000 S 
ENDBRANCH   5  27
TORSDOF 5
ENDMDL
MODEL 9
REMARK VINA RESULT:      -7.7      4.364     10.423
REMARK  Name = 
REMARK  5 active torsions:
REMARK  status: ('A' for Active; 'I' for Inactive)
REMARK    1  A    between atoms: C_5  and  C_6
REMARK    2  A    between atoms: C_15  and  C_16
REMARK    3  A    between atoms: C_19  and  O_20
REMARK    4  A    between atoms: O_20  and  C_21
REMARK    5  A    between atoms: C_21  and  C_22
REMARK                            x       y       z     vdW  Elec       q    Type
REMARK                         _______ _______ _______ _____ _____    ______ ____
ROOT
ATOM      1  O   UNL     1       3.376   7.479  17.021  0.00  0.00    +0.000 OA
ATOM      2  C   UNL     1       2.782   7.832  18.032  0.00  0.00    +0.000 A 
ATOM      3  N   UNL     1       2.118   9.029  18.048  0.00  0.00    +0.000 N 
ATOM      4  CA  UNL     1       1.364   9.532  19.085  0.00  0.00    +0.000 A 
ATOM      5  C   UNL     1       0.818  10.753  18.939  0.00  0.00    +0.000 C 
ATOM      6  C   UNL     1       1.205   8.681  20.322  0.00  0.00    +0.000 A 
ATOM      7  O   UNL     1       0.517   8.970  21.294  0.00  0.00    +0.000 OA
ATOM      8  N   UNL     1       1.889   7.495  20.316  0.00  0.00    +0.000 N 
ATOM      9  CA  UNL     1       2.684   7.024  19.299  0.00  0.00    +0.000 A 
ATOM     10  C   UNL     1       3.354   5.876  19.485  0.00  0.00    +0.000 C 
ATOM     11  H   UNL     1       2.228   9.565  17.196  0.00  0.00    +0.000 HD
ATOM     12  H   UNL     1       1.805   6.968  21.176  0.00  0.00    +0.000 HD
ENDROOT
BRANCH  10  13
ATOM     13  C   UNL     1       4.321   5.287  18.573  0.00  0.00    +0.000 A 
ATOM     14  C   UNL     1       5.673   5.601  18.630  0.00  0.00    +0.000 A 
ATOM     15  C   UNL     1       6.507   5.096  17.634  0.00  0.00    +0.000 A 
ATOM     16  C   UNL     1       5.966   4.308  16.624  0.00  0.00    +0.000 A 
ATOM     17  C   UNL     1       4.615   3.993  16.701  0.00  0.00    +0.000 A 
ATOM     18  N   UNL     1       3.772   4.493  17.629  0.00  0.00    +0.000 NA
BRANCH  16  19
ATOM     19  O   UNL     1       6.811   3.922  15.624  0.00  0.00    +0.000 OA
BRANCH  19  20
ATOM     20  C   UNL     1       6.772   4.767  14.470  0.00  0.00    +0.000 C 
BRANCH  20  21
ATOM     21  C   UNL     1       6.302   3.958  13.292  0.00  0.00    +0.000 A 
ATOM     22  C   UNL     1       7.219   3.266  12.492  0.00  0.00    +0.000 A 
ATOM     23  C   UNL     1       6.773   2.520  11.402  0.00  0.00    +0.000 A 
ATOM     24  C   UNL     1       5.413   2.466  11.100  0.00  0.00    +0.000 A 
ATOM     25  C   UNL     1       4.495   3.159  11.885  0.00  0.00    +0.000 A 
ATOM     26  C   UNL     1       4.938   3.907  12.976  0.00  0.00    +0.000 A 
ENDBRANCH  20  21
ENDBRANCH  19  20
ENDBRANCH  16  19
ENDBRANCH  10  13
BRANCH   5  27
ATOM     27  C   UNL     1       0.043  11.422  19.921  0.00  0.00    +0.000 A 
ATOM     28  C   UNL     1      -1.328  11.428  20.094  0.00  0.00    +0.000 A 
ATOM     29  C   UNL     1      -1.744  12.278  21.160  0.00  0.00    +0.000 A 
ATOM     30  C   UNL     1      -0.676  12.892  21.774  0.00  0.00    +0.000 A 
ATOM     31  S   UNL     1       0.812  12.459  21.056  0.00  0.00    +0.000 S 
ENDBRANCH   5  27
TORSDOF 5
ENDMDL
