MODEL 1
REMARK VINA RESULT:      -7.6      0.000      0.000
REMARK  Name = 
REMARK  5 active torsions:
REMARK  status: ('A' for Active; 'I' for Inactive)
REMARK    1  A    between atoms: C_1  and  C_2
REMARK    2  A    between atoms: C_4  and  C_5
REMARK    3  A    between atoms: N_16  and  C_17
REMARK    4  A    between atoms: C_20  and  O_21
REMARK    5  A    between atoms: O_21  and  C_22
REMARK                            x       y       z     vdW  Elec       q    Type
REMARK                         _______ _______ _______ _____ _____    ______ ____
ROOT
ATOM      1  C   UNL     1      -2.600  13.769  23.809  0.00  0.00    +0.000 C 
ATOM      2  O   UNL     1      -3.514  13.059  24.231  0.00  0.00    +0.000 OA
ATOM      3  N   UNL     1      -1.758  13.338  22.773  0.00  0.00    +0.000 N 
ATOM      4  C   UNL     1      -2.115  12.139  22.031  0.00  0.00    +0.000 C 
ATOM      5  C   UNL     1      -1.825  12.320  20.536  0.00  0.00    +0.000 C 
ATOM      6  C   UNL     1      -0.388  12.826  20.256  0.00  0.00    +0.000 C 
ATOM      7  C   UNL     1      -0.225  13.174  18.751  0.00  0.00    +0.000 C 
ATOM      8  C   UNL     1       0.903  12.296  18.243  0.00  0.00    +0.000 C 
ATOM      9  N   UNL     1       0.936  11.196  19.177  0.00  0.00    +0.000 N 
ATOM     10  C   UNL     1       1.450   9.986  18.773  0.00  0.00    +0.000 C 
ATOM     11  O   UNL     1       1.899   9.858  17.637  0.00  0.00    +0.000 OA
ATOM     12  N   UNL     1       1.372   8.970  19.702  0.00  0.00    +0.000 N 
ATOM     13  C   UNL     1       0.634  11.690  20.504  0.00  0.00    +0.000 C 
ATOM     14  C   UNL     1      -0.106  14.068  21.120  0.00  0.00    +0.000 C 
ATOM     15  C   UNL     1      -0.380  13.797  22.592  0.00  0.00    +0.000 C 
ATOM     16  H   UNL     1       0.724   9.110  20.458  0.00  0.00    +0.000 HD
ENDROOT
BRANCH   1  20
ATOM     17  C   UNL     1      -1.121  17.772  26.576  0.00  0.00    +0.000 C 
ATOM     18  C   UNL     1      -1.695  16.774  25.659  0.00  0.00    +0.000 A 
ATOM     19  C   UNL     1      -1.640  15.406  25.561  0.00  0.00    +0.000 A 
ATOM     20  C   UNL     1      -2.375  15.101  24.387  0.00  0.00    +0.000 A 
ATOM     21  N   UNL     1      -2.921  16.220  23.876  0.00  0.00    +0.000 NA
ATOM     22  O   UNL     1      -2.463  17.263  24.653  0.00  0.00    +0.000 OA
ENDBRANCH   1  20
BRANCH  12  23
ATOM     23  C   UNL     1       1.837   7.650  19.515  0.00  0.00    +0.000 A 
ATOM     24  C   UNL     1       2.507   7.235  18.362  0.00  0.00    +0.000 A 
ATOM     25  C   UNL     1       2.918   5.910  18.213  0.00  0.00    +0.000 A 
ATOM     26  C   UNL     1       2.693   4.978  19.223  0.00  0.00    +0.000 A 
ATOM     27  C   UNL     1       2.008   5.374  20.370  0.00  0.00    +0.000 A 
ATOM     28  C   UNL     1       1.601   6.707  20.523  0.00  0.00    +0.000 A 
BRANCH  26  29
ATOM     29  O   UNL     1       3.101   3.713  18.935  0.00  0.00    +0.000 OA
BRANCH  29  30
ATOM     30  C   UNL     1       2.143   2.751  18.522  0.00  0.00    +0.000 C 
ATOM     31  F   UNL     1       0.966   3.270  18.113  0.00  0.00    +0.000 F 
ATOM     32  F   UNL     1       2.665   2.023  17.511  0.00  0.00    +0.000 F 
ATOM     33  F   UNL     1       1.894   1.915  19.554  0.00  0.00    +0.000 F 
ENDBRANCH  29  30
ENDBRANCH  26  29
ENDBRANCH  12  23
TORSDOF 4
ENDMDL
MODEL 2
REMARK VINA RESULT:      -7.6      3.846      4.615
REMARK  Name = 
REMARK  5 active torsions:
REMARK  status: ('A' for Active; 'I' for Inactive)
REMARK    1  A    between atoms: C_1  and  C_2
REMARK    2  A    between atoms: C_4  and  C_5
REMARK    3  A    between atoms: N_16  and  C_17
REMARK    4  A    between atoms: C_20  and  O_21
REMARK    5  A    between atoms: O_21  and  C_22
REMARK                            x       y       z     vdW  Elec       q    Type
REMARK                         _______ _______ _______ _____ _____    ______ ____
ROOT
ATOM      1  C   UNL     1       0.812  15.601  19.005  0.00  0.00    +0.000 C 
ATOM      2  O   UNL     1       1.906  16.089  18.717  0.00  0.00    +0.000 OA
ATOM      3  N   UNL     1       0.680  14.244  19.334  0.00  0.00    +0.000 N 
ATOM      4  C   UNL     1       1.882  13.457  19.565  0.00  0.00    +0.000 C 
ATOM      5  C   UNL     1       1.683  12.499  20.745  0.00  0.00    +0.000 C 
ATOM      6  C   UNL     1       0.393  11.651  20.625  0.00  0.00    +0.000 C 
ATOM      7  C   UNL     1       0.152  10.852  21.935  0.00  0.00    +0.000 C 
ATOM      8  C   UNL     1       0.127   9.390  21.530  0.00  0.00    +0.000 C 
ATOM      9  N   UNL     1       0.859   9.362  20.286  0.00  0.00    +0.000 N 
ATOM     10  C   UNL     1       1.476   8.196  19.895  0.00  0.00    +0.000 C 
ATOM     11  O   UNL     1       1.378   7.187  20.588  0.00  0.00    +0.000 OA
ATOM     12  N   UNL     1       2.216   8.278  18.735  0.00  0.00    +0.000 N 
ATOM     13  C   UNL     1       0.569  10.566  19.536  0.00  0.00    +0.000 C 
ATOM     14  C   UNL     1      -0.803  12.578  20.343  0.00  0.00    +0.000 C 
ATOM     15  C   UNL     1      -0.545  13.468  19.136  0.00  0.00    +0.000 C 
ATOM     16  H   UNL     1       2.466   9.205  18.433  0.00  0.00    +0.000 HD
ENDROOT
BRANCH   1  20
ATOM     17  C   UNL     1      -3.432  18.144  20.184  0.00  0.00    +0.000 C 
ATOM     18  C   UNL     1      -2.241  17.494  19.615  0.00  0.00    +0.000 A 
ATOM     19  C   UNL     1      -1.331  16.573  20.071  0.00  0.00    +0.000 A 
ATOM     20  C   UNL     1      -0.391  16.446  19.017  0.00  0.00    +0.000 A 
ATOM     21  N   UNL     1      -0.779  17.176  17.955  0.00  0.00    +0.000 NA
ATOM     22  O   UNL     1      -1.913  17.855  18.348  0.00  0.00    +0.000 OA
ENDBRANCH   1  20
BRANCH  12  23
ATOM     23  C   UNL     1       2.929   7.214  18.139  0.00  0.00    +0.000 A 
ATOM     24  C   UNL     1       2.498   5.888  18.187  0.00  0.00    +0.000 A 
ATOM     25  C   UNL     1       3.256   4.868  17.610  0.00  0.00    +0.000 A 
ATOM     26  C   UNL     1       4.448   5.157  16.948  0.00  0.00    +0.000 A 
ATOM     27  C   UNL     1       4.899   6.474  16.911  0.00  0.00    +0.000 A 
ATOM     28  C   UNL     1       4.134   7.499  17.485  0.00  0.00    +0.000 A 
BRANCH  26  29
ATOM     29  O   UNL     1       5.113   4.072  16.470  0.00  0.00    +0.000 OA
BRANCH  29  30
ATOM     30  C   UNL     1       6.008   4.231  15.381  0.00  0.00    +0.000 C 
ATOM     31  F   UNL     1       7.249   4.631  15.727  0.00  0.00    +0.000 F 
ATOM     32  F   UNL     1       6.105   3.055  14.721  0.00  0.00    +0.000 F 
ATOM     33  F   UNL     1       5.497   5.147  14.529  0.00  0.00    +0.000 F 
ENDBRANCH  29  30
ENDBRANCH  26  29
ENDBRANCH  12  23
TORSDOF 4
ENDMDL
MODEL 3
REMARK VINA RESULT:      -7.4      1.427      1.518
REMARK  Name = 
REMARK  5 active torsions:
REMARK  status: ('A' for Active; 'I' for Inactive)
REMARK    1  A    between atoms: C_1  and  C_2
REMARK    2  A    between atoms: C_4  and  C_5
REMARK    3  A    between atoms: N_16  and  C_17
REMARK    4  A    between atoms: C_20  and  O_21
REMARK    5  A    between atoms: O_21  and  C_22
REMARK                            x       y       z     vdW  Elec       q    Type
REMARK                         _______ _______ _______ _____ _____    ______ ____
ROOT
ATOM      1  C   UNL     1      -3.975  13.356  23.089  0.00  0.00    +0.000 C 
ATOM      2  O   UNL     1      -4.919  12.565  23.143  0.00  0.00    +0.000 OA
ATOM      3  N   UNL     1      -2.865  13.115  22.265  0.00  0.00    +0.000 N 
ATOM      4  C   UNL     1      -2.935  12.038  21.289  0.00  0.00    +0.000 C 
ATOM      5  C   UNL     1      -2.278  12.460  19.969  0.00  0.00    +0.000 C 
ATOM      6  C   UNL     1      -0.855  13.040  20.161  0.00  0.00    +0.000 C 
ATOM      7  C   UNL     1      -0.328  13.624  18.822  0.00  0.00    +0.000 C 
ATOM      8  C   UNL     1       0.949  12.867  18.514  0.00  0.00    +0.000 C 
ATOM      9  N   UNL     1       0.811  11.635  19.253  0.00  0.00    +0.000 N 
ATOM     10  C   UNL     1       1.492  10.517  18.831  0.00  0.00    +0.000 C 
ATOM     11  O   UNL     1       2.229  10.581  17.851  0.00  0.00    +0.000 OA
ATOM     12  N   UNL     1       1.243   9.367  19.548  0.00  0.00    +0.000 N 
ATOM     13  C   UNL     1       0.140  11.907  20.507  0.00  0.00    +0.000 C 
ATOM     14  C   UNL     1      -0.892  14.138  21.239  0.00  0.00    +0.000 C 
ATOM     15  C   UNL     1      -1.522  13.633  22.529  0.00  0.00    +0.000 C 
ATOM     16  H   UNL     1       0.411   9.369  20.115  0.00  0.00    +0.000 HD
ENDROOT
BRANCH   1  20
ATOM     17  C   UNL     1      -5.048  17.846  25.224  0.00  0.00    +0.000 C 
ATOM     18  C   UNL     1      -4.534  16.553  24.744  0.00  0.00    +0.000 A 
ATOM     19  C   UNL     1      -4.895  15.678  23.750  0.00  0.00    +0.000 A 
ATOM     20  C   UNL     1      -3.999  14.587  23.892  0.00  0.00    +0.000 A 
ATOM     21  N   UNL     1      -3.093  14.849  24.851  0.00  0.00    +0.000 NA
ATOM     22  O   UNL     1      -3.455  16.060  25.402  0.00  0.00    +0.000 OA
ENDBRANCH   1  20
BRANCH  12  23
ATOM     23  C   UNL     1       1.828   8.104  19.304  0.00  0.00    +0.000 A 
ATOM     24  C   UNL     1       2.397   7.754  18.079  0.00  0.00    +0.000 A 
ATOM     25  C   UNL     1       2.934   6.482  17.879  0.00  0.00    +0.000 A 
ATOM     26  C   UNL     1       2.938   5.542  18.907  0.00  0.00    +0.000 A 
ATOM     27  C   UNL     1       2.354   5.872  20.128  0.00  0.00    +0.000 A 
ATOM     28  C   UNL     1       1.821   7.153  20.332  0.00  0.00    +0.000 A 
BRANCH  26  29
ATOM     29  O   UNL     1       3.449   4.328  18.569  0.00  0.00    +0.000 OA
BRANCH  29  30
ATOM     30  C   UNL     1       2.664   3.437  17.792  0.00  0.00    +0.000 C 
ATOM     31  F   UNL     1       1.336   3.669  17.838  0.00  0.00    +0.000 F 
ATOM     32  F   UNL     1       3.068   3.511  16.504  0.00  0.00    +0.000 F 
ATOM     33  F   UNL     1       2.882   2.175  18.225  0.00  0.00    +0.000 F 
ENDBRANCH  29  30
ENDBRANCH  26  29
ENDBRANCH  12  23
TORSDOF 4
ENDMDL
MODEL 4
REMARK VINA RESULT:      -7.3      3.220      3.638
REMARK  Name = 
REMARK  5 active torsions:
REMARK  status: ('A' for Active; 'I' for Inactive)
REMARK    1  A    between atoms: C_1  and  C_2
REMARK    2  A    between atoms: C_4  and  C_5
REMARK    3  A    between atoms: N_16  and  C_17
REMARK    4  A    between atoms: C_20  and  O_21
REMARK    5  A    between atoms: O_21  and  C_22
REMARK                            x       y       z     vdW  Elec       q    Type
REMARK                         _______ _______ _______ _____ _____    ______ ____
ROOT
ATOM      1  C   UNL     1      -5.685  12.042  19.952  0.00  0.00    +0.000 C 
ATOM      2  O   UNL     1      -6.380  11.220  19.351  0.00  0.00    +0.000 OA
ATOM      3  N   UNL     1      -4.292  12.077  19.792  0.00  0.00    +0.000 N 
ATOM      4  C   UNL     1      -3.687  11.292  18.727  0.00  0.00    +0.000 C 
ATOM      5  C   UNL     1      -2.553  12.075  18.053  0.00  0.00    +0.000 C 
ATOM      6  C   UNL     1      -1.532  12.650  19.065  0.00  0.00    +0.000 C 
ATOM      7  C   UNL     1      -0.529  13.589  18.340  0.00  0.00    +0.000 C 
ATOM      8  C   UNL     1       0.846  13.000  18.591  0.00  0.00    +0.000 C 
ATOM      9  N   UNL     1       0.581  11.612  18.887  0.00  0.00    +0.000 N 
ATOM     10  C   UNL     1       1.564  10.677  18.663  0.00  0.00    +0.000 C 
ATOM     11  O   UNL     1       2.662  11.030  18.241  0.00  0.00    +0.000 OA
ATOM     12  N   UNL     1       1.201   9.368  18.899  0.00  0.00    +0.000 N 
ATOM     13  C   UNL     1      -0.653  11.514  19.639  0.00  0.00    +0.000 C 
ATOM     14  C   UNL     1      -2.282  13.425  20.163  0.00  0.00    +0.000 C 
ATOM     15  C   UNL     1      -3.362  12.570  20.809  0.00  0.00    +0.000 C 
ATOM     16  H   UNL     1       0.213   9.183  18.942  0.00  0.00    +0.000 HD
ENDROOT
BRANCH   1  20
ATOM     17  C   UNL     1      -7.619  14.578  23.913  0.00  0.00    +0.000 C 
ATOM     18  C   UNL     1      -7.146  14.031  22.632  0.00  0.00    +0.000 A 
ATOM     19  C   UNL     1      -6.599  12.837  22.234  0.00  0.00    +0.000 A 
ATOM     20  C   UNL     1      -6.312  13.016  20.856  0.00  0.00    +0.000 A 
ATOM     21  N   UNL     1      -6.760  14.215  20.439  0.00  0.00    +0.000 NA
ATOM     22  O   UNL     1      -7.245  14.856  21.559  0.00  0.00    +0.000 OA
ENDBRANCH   1  20
BRANCH  12  23
ATOM     23  C   UNL     1       2.041   8.243  18.744  0.00  0.00    +0.000 A 
ATOM     24  C   UNL     1       2.811   8.020  17.602  0.00  0.00    +0.000 A 
ATOM     25  C   UNL     1       3.601   6.875  17.485  0.00  0.00    +0.000 A 
ATOM     26  C   UNL     1       3.658   5.943  18.518  0.00  0.00    +0.000 A 
ATOM     27  C   UNL     1       2.878   6.144  19.655  0.00  0.00    +0.000 A 
ATOM     28  C   UNL     1       2.091   7.297  19.776  0.00  0.00    +0.000 A 
BRANCH  26  29
ATOM     29  O   UNL     1       4.428   4.852  18.261  0.00  0.00    +0.000 OA
BRANCH  29  30
ATOM     30  C   UNL     1       3.809   3.657  17.810  0.00  0.00    +0.000 C 
ATOM     31  F   UNL     1       3.471   2.794  18.791  0.00  0.00    +0.000 F 
ATOM     32  F   UNL     1       2.693   3.978  17.119  0.00  0.00    +0.000 F 
ATOM     33  F   UNL     1       4.653   3.020  16.969  0.00  0.00    +0.000 F 
ENDBRANCH  29  30
ENDBRANCH  26  29
ENDBRANCH  12  23
TORSDOF 4
ENDMDL
MODEL 5
REMARK VINA RESULT:      -7.3      2.551      2.990
REMARK  Name = 
REMARK  5 active torsions:
REMARK  status: ('A' for Active; 'I' for Inactive)
REMARK    1  A    between atoms: C_1  and  C_2
REMARK    2  A    between atoms: C_4  and  C_5
REMARK    3  A    between atoms: N_16  and  C_17
REMARK    4  A    between atoms: C_20  and  O_21
REMARK    5  A    between atoms: O_21  and  C_22
REMARK                            x       y       z     vdW  Elec       q    Type
REMARK                         _______ _______ _______ _____ _____    ______ ____
ROOT
ATOM      1  C   UNL     1      -5.223  12.730  21.392  0.00  0.00    +0.000 C 
ATOM      2  O   UNL     1      -6.061  11.897  21.041  0.00  0.00    +0.000 OA
ATOM      3  N   UNL     1      -3.899  12.674  20.932  0.00  0.00    +0.000 N 
ATOM      4  C   UNL     1      -3.569  11.762  19.848  0.00  0.00    +0.000 C 
ATOM      5  C   UNL     1      -2.586  12.416  18.870  0.00  0.00    +0.000 C 
ATOM      6  C   UNL     1      -1.348  13.025  19.574  0.00  0.00    +0.000 C 
ATOM      7  C   UNL     1      -0.499  13.837  18.558  0.00  0.00    +0.000 C 
ATOM      8  C   UNL     1       0.877  13.198  18.566  0.00  0.00    +0.000 C 
ATOM      9  N   UNL     1       0.637  11.860  19.052  0.00  0.00    +0.000 N 
ATOM     10  C   UNL     1       1.516  10.856  18.717  0.00  0.00    +0.000 C 
ATOM     11  O   UNL     1       2.506  11.107  18.036  0.00  0.00    +0.000 OA
ATOM     12  N   UNL     1       1.170   9.596  19.159  0.00  0.00    +0.000 N 
ATOM     13  C   UNL     1      -0.403  11.899  20.058  0.00  0.00    +0.000 C 
ATOM     14  C   UNL     1      -1.812  13.937  20.723  0.00  0.00    +0.000 C 
ATOM     15  C   UNL     1      -2.752  13.206  21.670  0.00  0.00    +0.000 C 
ATOM     16  H   UNL     1       0.209   9.470  19.432  0.00  0.00    +0.000 HD
ENDROOT
BRANCH   1  20
ATOM     17  C   UNL     1      -6.461  17.162  23.558  0.00  0.00    +0.000 C 
ATOM     18  C   UNL     1      -6.110  15.789  23.160  0.00  0.00    +0.000 A 
ATOM     19  C   UNL     1      -5.686  15.199  21.996  0.00  0.00    +0.000 A 
ATOM     20  C   UNL     1      -5.604  13.816  22.305  0.00  0.00    +0.000 A 
ATOM     21  N   UNL     1      -5.868  13.614  23.609  0.00  0.00    +0.000 NA
ATOM     22  O   UNL     1      -6.218  14.843  24.127  0.00  0.00    +0.000 OA
ENDBRANCH   1  20
BRANCH  12  23
ATOM     23  C   UNL     1       1.916   8.417  18.942  0.00  0.00    +0.000 A 
ATOM     24  C   UNL     1       2.024   7.400  19.891  0.00  0.00    +0.000 A 
ATOM     25  C   UNL     1       2.801   6.267  19.640  0.00  0.00    +0.000 A 
ATOM     26  C   UNL     1       3.463   6.116  18.424  0.00  0.00    +0.000 A 
ATOM     27  C   UNL     1       3.380   7.133  17.476  0.00  0.00    +0.000 A 
ATOM     28  C   UNL     1       2.594   8.267  17.726  0.00  0.00    +0.000 A 
BRANCH  26  29
ATOM     29  O   UNL     1       4.221   4.991  18.323  0.00  0.00    +0.000 OA
BRANCH  29  30
ATOM     30  C   UNL     1       3.856   3.990  17.386  0.00  0.00    +0.000 C 
ATOM     31  F   UNL     1       4.390   4.149  16.157  0.00  0.00    +0.000 F 
ATOM     32  F   UNL     1       4.236   2.785  17.865  0.00  0.00    +0.000 F 
ATOM     33  F   UNL     1       2.511   3.984  17.258  0.00  0.00    +0.000 F 
ENDBRANCH  29  30
ENDBRANCH  26  29
ENDBRANCH  12  23
TORSDOF 4
ENDMDL
MODEL 6
REMARK VINA RESULT:      -7.3      0.997      1.062
REMARK  Name = 
REMARK  5 active torsions:
REMARK  status: ('A' for Active; 'I' for Inactive)
REMARK    1  A    between atoms: C_1  and  C_2
REMARK    2  A    between atoms: C_4  and  C_5
REMARK    3  A    between atoms: N_16  and  C_17
REMARK    4  A    between atoms: C_20  and  O_21
REMARK    5  A    between atoms: O_21  and  C_22
REMARK                            x       y       z     vdW  Elec       q    Type
REMARK                         _______ _______ _______ _____ _____    ______ ____
ROOT
ATOM      1  C   UNL     1      -2.149  13.575  23.583  0.00  0.00    +0.000 C 
ATOM      2  O   UNL     1      -3.019  12.889  24.122  0.00  0.00    +0.000 OA
ATOM      3  N   UNL     1      -1.357  13.066  22.543  0.00  0.00    +0.000 N 
ATOM      4  C   UNL     1      -1.725  11.796  21.937  0.00  0.00    +0.000 C 
ATOM      5  C   UNL     1      -1.525  11.843  20.417  0.00  0.00    +0.000 C 
ATOM      6  C   UNL     1      -0.120  12.349  20.007  0.00  0.00    +0.000 C 
ATOM      7  C   UNL     1      -0.053  12.559  18.470  0.00  0.00    +0.000 C 
ATOM      8  C   UNL     1       1.067  11.661  17.979  0.00  0.00    +0.000 C 
ATOM      9  N   UNL     1       1.182  10.654  19.006  0.00  0.00    +0.000 N 
ATOM     10  C   UNL     1       1.703   9.422  18.685  0.00  0.00    +0.000 C 
ATOM     11  O   UNL     1       2.089   9.197  17.542  0.00  0.00    +0.000 OA
ATOM     12  N   UNL     1       1.705   8.496  19.707  0.00  0.00    +0.000 N 
ATOM     13  C   UNL     1       0.943  11.263  20.298  0.00  0.00    +0.000 C 
ATOM     14  C   UNL     1       0.178  13.673  20.735  0.00  0.00    +0.000 C 
ATOM     15  C   UNL     1      -0.004  13.535  22.239  0.00  0.00    +0.000 C 
ATOM     16  H   UNL     1       1.097   8.692  20.485  0.00  0.00    +0.000 HD
ENDROOT
BRANCH   1  20
ATOM     17  C   UNL     1      -2.215  18.614  24.270  0.00  0.00    +0.000 C 
ATOM     18  C   UNL     1      -2.011  17.157  24.233  0.00  0.00    +0.000 A 
ATOM     19  C   UNL     1      -2.495  16.132  23.459  0.00  0.00    +0.000 A 
ATOM     20  C   UNL     1      -1.927  14.960  24.022  0.00  0.00    +0.000 A 
ATOM     21  N   UNL     1      -1.073  15.284  25.010  0.00  0.00    +0.000 NA
ATOM     22  O   UNL     1      -1.158  16.652  25.160  0.00  0.00    +0.000 OA
ENDBRANCH   1  20
BRANCH  12  23
ATOM     23  C   UNL     1       2.192   7.173  19.615  0.00  0.00    +0.000 A 
ATOM     24  C   UNL     1       3.115   6.768  18.650  0.00  0.00    +0.000 A 
ATOM     25  C   UNL     1       3.542   5.441  18.582  0.00  0.00    +0.000 A 
ATOM     26  C   UNL     1       3.076   4.497  19.494  0.00  0.00    +0.000 A 
ATOM     27  C   UNL     1       2.139   4.885  20.450  0.00  0.00    +0.000 A 
ATOM     28  C   UNL     1       1.716   6.220  20.523  0.00  0.00    +0.000 A 
BRANCH  26  29
ATOM     29  O   UNL     1       3.533   3.233  19.292  0.00  0.00    +0.000 OA
BRANCH  29  30
ATOM     30  C   UNL     1       2.706   2.294  18.622  0.00  0.00    +0.000 C 
ATOM     31  F   UNL     1       2.022   2.796  17.572  0.00  0.00    +0.000 F 
ATOM     32  F   UNL     1       3.473   1.271  18.185  0.00  0.00    +0.000 F 
ATOM     33  F   UNL     1       1.810   1.798  19.504  0.00  0.00    +0.000 F 
ENDBRANCH  29  30
ENDBRANCH  26  29
ENDBRANCH  12  23
TORSDOF 4
ENDMDL
MODEL 7
REMARK VINA RESULT:      -7.2      3.669      4.562
REMARK  Name = 
REMARK  5 active torsions:
REMARK  status: ('A' for Active; 'I' for Inactive)
REMARK    1  A    between atoms: C_1  and  C_2
REMARK    2  A    between atoms: C_4  and  C_5
REMARK    3  A    between atoms: N_16  and  C_17
REMARK    4  A    between atoms: C_20  and  O_21
REMARK    5  A    between atoms: O_21  and  C_22
REMARK                            x       y       z     vdW  Elec       q    Type
REMARK                         _______ _______ _______ _____ _____    ______ ____
ROOT
ATOM      1  C   UNL     1       0.770  15.235  19.497  0.00  0.00    +0.000 C 
ATOM      2  O   UNL     1       1.859  15.756  19.249  0.00  0.00    +0.000 OA
ATOM      3  N   UNL     1       0.661  13.861  19.760  0.00  0.00    +0.000 N 
ATOM      4  C   UNL     1       1.874  13.088  19.974  0.00  0.00    +0.000 C 
ATOM      5  C   UNL     1       1.677  12.072  21.106  0.00  0.00    +0.000 C 
ATOM      6  C   UNL     1       0.406  11.206  20.927  0.00  0.00    +0.000 C 
ATOM      7  C   UNL     1       0.160  10.343  22.194  0.00  0.00    +0.000 C 
ATOM      8  C   UNL     1       0.171   8.902  21.722  0.00  0.00    +0.000 C 
ATOM      9  N   UNL     1       0.921   8.945  20.490  0.00  0.00    +0.000 N 
ATOM     10  C   UNL     1       1.567   7.810  20.056  0.00  0.00    +0.000 C 
ATOM     11  O   UNL     1       1.479   6.768  20.701  0.00  0.00    +0.000 OA
ATOM     12  N   UNL     1       2.322   7.960  18.913  0.00  0.00    +0.000 N 
ATOM     13  C   UNL     1       0.619  10.176  19.792  0.00  0.00    +0.000 C 
ATOM     14  C   UNL     1      -0.804  12.123  20.668  0.00  0.00    +0.000 C 
ATOM     15  C   UNL     1      -0.546  13.073  19.508  0.00  0.00    +0.000 C 
ATOM     16  H   UNL     1       2.559   8.904  18.658  0.00  0.00    +0.000 HD
ENDROOT
BRANCH   1  20
ATOM     17  C   UNL     1      -2.993  18.532  18.588  0.00  0.00    +0.000 C 
ATOM     18  C   UNL     1      -2.023  17.532  19.062  0.00  0.00    +0.000 A 
ATOM     19  C   UNL     1      -0.787  17.109  18.641  0.00  0.00    +0.000 A 
ATOM     20  C   UNL     1      -0.448  16.055  19.528  0.00  0.00    +0.000 A 
ATOM     21  N   UNL     1      -1.388  15.930  20.483  0.00  0.00    +0.000 NA
ATOM     22  O   UNL     1      -2.384  16.828  20.165  0.00  0.00    +0.000 OA
ENDBRANCH   1  20
BRANCH  12  23
ATOM     23  C   UNL     1       3.066   6.939  18.281  0.00  0.00    +0.000 A 
ATOM     24  C   UNL     1       4.362   7.128  17.798  0.00  0.00    +0.000 A 
ATOM     25  C   UNL     1       5.042   6.095  17.152  0.00  0.00    +0.000 A 
ATOM     26  C   UNL     1       4.452   4.843  16.999  0.00  0.00    +0.000 A 
ATOM     27  C   UNL     1       3.151   4.647  17.458  0.00  0.00    +0.000 A 
ATOM     28  C   UNL     1       2.470   5.682  18.114  0.00  0.00    +0.000 A 
BRANCH  26  29
ATOM     29  O   UNL     1       5.201   3.938  16.313  0.00  0.00    +0.000 OA
BRANCH  29  30
ATOM     30  C   UNL     1       5.887   4.350  15.142  0.00  0.00    +0.000 C 
ATOM     31  F   UNL     1       6.038   3.387  14.210  0.00  0.00    +0.000 F 
ATOM     32  F   UNL     1       5.216   5.383  14.585  0.00  0.00    +0.000 F 
ATOM     33  F   UNL     1       7.116   4.790  15.490  0.00  0.00    +0.000 F 
ENDBRANCH  29  30
ENDBRANCH  26  29
ENDBRANCH  12  23
TORSDOF 4
ENDMDL
MODEL 8
REMARK VINA RESULT:      -7.1      0.983      1.189
REMARK  Name = 
REMARK  5 active torsions:
REMARK  status: ('A' for Active; 'I' for Inactive)
REMARK    1  A    between atoms: C_1  and  C_2
REMARK    2  A    between atoms: C_4  and  C_5
REMARK    3  A    between atoms: N_16  and  C_17
REMARK    4  A    between atoms: C_20  and  O_21
REMARK    5  A    between atoms: O_21  and  C_22
REMARK                            x       y       z     vdW  Elec       q    Type
REMARK                         _______ _______ _______ _____ _____    ______ ____
ROOT
ATOM      1  C   UNL     1      -2.442  13.835  23.727  0.00  0.00    +0.000 C 
ATOM      2  O   UNL     1      -3.395  13.161  24.125  0.00  0.00    +0.000 OA
ATOM      3  N   UNL     1      -1.597  13.374  22.707  0.00  0.00    +0.000 N 
ATOM      4  C   UNL     1      -1.987  12.195  21.950  0.00  0.00    +0.000 C 
ATOM      5  C   UNL     1      -1.655  12.373  20.463  0.00  0.00    +0.000 C 
ATOM      6  C   UNL     1      -0.193  12.819  20.218  0.00  0.00    +0.000 C 
ATOM      7  C   UNL     1       0.019  13.169  18.720  0.00  0.00    +0.000 C 
ATOM      8  C   UNL     1       1.120  12.248  18.231  0.00  0.00    +0.000 C 
ATOM      9  N   UNL     1       1.086  11.142  19.158  0.00  0.00    +0.000 N 
ATOM     10  C   UNL     1       1.557   9.913  18.757  0.00  0.00    +0.000 C 
ATOM     11  O   UNL     1       2.026   9.773  17.631  0.00  0.00    +0.000 OA
ATOM     12  N   UNL     1       1.416   8.896  19.678  0.00  0.00    +0.000 N 
ATOM     13  C   UNL     1       0.775  11.640  20.482  0.00  0.00    +0.000 C 
ATOM     14  C   UNL     1       0.121  14.044  21.097  0.00  0.00    +0.000 C 
ATOM     15  C   UNL     1      -0.197  13.776  22.560  0.00  0.00    +0.000 C 
ATOM     16  H   UNL     1       0.757   9.059  20.421  0.00  0.00    +0.000 HD
ENDROOT
BRANCH   1  20
ATOM     17  C   UNL     1      -1.060  17.742  26.675  0.00  0.00    +0.000 C 
ATOM     18  C   UNL     1      -1.560  16.783  25.677  0.00  0.00    +0.000 A 
ATOM     19  C   UNL     1      -1.653  15.415  25.612  0.00  0.00    +0.000 A 
ATOM     20  C   UNL     1      -2.175  15.153  24.319  0.00  0.00    +0.000 A 
ATOM     21  N   UNL     1      -2.470  16.307  23.693  0.00  0.00    +0.000 NA
ATOM     22  O   UNL     1      -2.049  17.318  24.530  0.00  0.00    +0.000 OA
ENDBRANCH   1  20
BRANCH  12  23
ATOM     23  C   UNL     1       1.829   7.558  19.492  0.00  0.00    +0.000 A 
ATOM     24  C   UNL     1       2.479   7.116  18.339  0.00  0.00    +0.000 A 
ATOM     25  C   UNL     1       2.839   5.775  18.192  0.00  0.00    +0.000 A 
ATOM     26  C   UNL     1       2.581   4.855  19.205  0.00  0.00    +0.000 A 
ATOM     27  C   UNL     1       1.914   5.280  20.352  0.00  0.00    +0.000 A 
ATOM     28  C   UNL     1       1.560   6.628  20.503  0.00  0.00    +0.000 A 
BRANCH  26  29
ATOM     29  O   UNL     1       2.940   3.575  18.918  0.00  0.00    +0.000 OA
BRANCH  29  30
ATOM     30  C   UNL     1       4.040   2.993  19.599  0.00  0.00    +0.000 C 
ATOM     31  F   UNL     1       5.141   3.771  19.656  0.00  0.00    +0.000 F 
ATOM     32  F   UNL     1       3.662   2.692  20.861  0.00  0.00    +0.000 F 
ATOM     33  F   UNL     1       4.376   1.841  18.978  0.00  0.00    +0.000 F 
ENDBRANCH  29  30
ENDBRANCH  26  29
ENDBRANCH  12  23
TORSDOF 4
ENDMDL
MODEL 9
REMARK VINA RESULT:      -7.1      1.277      1.766
REMARK  Name = 
REMARK  5 active torsions:
REMARK  status: ('A' for Active; 'I' for Inactive)
REMARK    1  A    between atoms: C_1  and  C_2
REMARK    2  A    between atoms: C_4  and  C_5
REMARK    3  A    between atoms: N_16  and  C_17
REMARK    4  A    between atoms: C_20  and  O_21
REMARK    5  A    between atoms: O_21  and  C_22
REMARK                            x       y       z     vdW  Elec       q    Type
REMARK                         _______ _______ _______ _____ _____    ______ ____
ROOT
ATOM      1  C   UNL     1      -3.446  13.454  23.499  0.00  0.00    +0.000 C 
ATOM      2  O   UNL     1      -4.357  12.643  23.678  0.00  0.00    +0.000 OA
ATOM      3  N   UNL     1      -2.433  13.219  22.557  0.00  0.00    +0.000 N 
ATOM      4  C   UNL     1      -2.588  12.119  21.618  0.00  0.00    +0.000 C 
ATOM      5  C   UNL     1      -2.098  12.525  20.223  0.00  0.00    +0.000 C 
ATOM      6  C   UNL     1      -0.677  13.141  20.237  0.00  0.00    +0.000 C 
ATOM      7  C   UNL     1      -0.323  13.707  18.834  0.00  0.00    +0.000 C 
ATOM      8  C   UNL     1       0.929  12.971  18.395  0.00  0.00    +0.000 C 
ATOM      9  N   UNL     1       0.907  11.754  19.170  0.00  0.00    +0.000 N 
ATOM     10  C   UNL     1       1.563  10.642  18.695  0.00  0.00    +0.000 C 
ATOM     11  O   UNL     1       2.180  10.699  17.635  0.00  0.00    +0.000 OA
ATOM     12  N   UNL     1       1.426   9.503  19.459  0.00  0.00    +0.000 N 
ATOM     13  C   UNL     1       0.379  12.039  20.488  0.00  0.00    +0.000 C 
ATOM     14  C   UNL     1      -0.617  14.263  21.289  0.00  0.00    +0.000 C 
ATOM     15  C   UNL     1      -1.081  13.773  22.653  0.00  0.00    +0.000 C 
ATOM     16  H   UNL     1       0.666   9.499  20.118  0.00  0.00    +0.000 HD
ENDROOT
BRANCH   1  20
ATOM     17  C   UNL     1      -4.069  18.158  25.330  0.00  0.00    +0.000 C 
ATOM     18  C   UNL     1      -3.724  16.771  24.980  0.00  0.00    +0.000 A 
ATOM     19  C   UNL     1      -4.018  15.936  23.932  0.00  0.00    +0.000 A 
ATOM     20  C   UNL     1      -3.408  14.702  24.274  0.00  0.00    +0.000 A 
ATOM     21  N   UNL     1      -2.706  14.830  25.416  0.00  0.00    +0.000 NA
ATOM     22  O   UNL     1      -2.938  16.111  25.869  0.00  0.00    +0.000 OA
ENDBRANCH   1  20
BRANCH  12  23
ATOM     23  C   UNL     1       2.010   8.248  19.174  0.00  0.00    +0.000 A 
ATOM     24  C   UNL     1       1.905   7.149  20.027  0.00  0.00    +0.000 A 
ATOM     25  C   UNL     1       2.528   5.940  19.714  0.00  0.00    +0.000 A 
ATOM     26  C   UNL     1       3.245   5.796  18.529  0.00  0.00    +0.000 A 
ATOM     27  C   UNL     1       3.375   6.892  17.679  0.00  0.00    +0.000 A 
ATOM     28  C   UNL     1       2.743   8.104  17.990  0.00  0.00    +0.000 A 
BRANCH  26  29
ATOM     29  O   UNL     1       3.840   4.584  18.365  0.00  0.00    +0.000 OA
BRANCH  29  30
ATOM     30  C   UNL     1       3.238   3.625  17.510  0.00  0.00    +0.000 C 
ATOM     31  F   UNL     1       3.146   2.385  18.032  0.00  0.00    +0.000 F 
ATOM     32  F   UNL     1       1.996   4.048  17.187  0.00  0.00    +0.000 F 
ATOM     33  F   UNL     1       3.961   3.545  16.370  0.00  0.00    +0.000 F 
ENDBRANCH  29  30
ENDBRANCH  26  29
ENDBRANCH  12  23
TORSDOF 4
ENDMDL
