MODEL 1
REMARK VINA RESULT:      -7.2      0.000      0.000
REMARK  Name = 
REMARK  4 active torsions:
REMARK  status: ('A' for Active; 'I' for Inactive)
REMARK    1  A    between atoms: C_1  and  N_2
REMARK    2  A    between atoms: C_4  and  C_5
REMARK    3  A    between atoms: C_8  and  N_9
REMARK    4  A    between atoms: N_9  and  C_10
REMARK                            x       y       z     vdW  Elec       q    Type
REMARK                         _______ _______ _______ _____ _____    ______ ____
ROOT
ATOM      1  C   UNL     1       6.294   3.881  14.444  0.00  0.00    +0.000 C 
ATOM      2  N   UNL     1       5.620   4.400  15.620  0.00  0.00    +0.000 N 
ATOM      3  C   UNL     1       4.414   3.856  16.028  0.00  0.00    +0.000 A 
ATOM      4  C   UNL     1       3.746   4.323  17.099  0.00  0.00    +0.000 A 
ATOM      5  C   UNL     1       4.293   5.443  17.874  0.00  0.00    +0.000 A 
ATOM      6  C   UNL     1       5.484   5.947  17.494  0.00  0.00    +0.000 A 
ATOM      7  F   UNL     1       6.069   6.960  18.171  0.00  0.00    +0.000 F 
ATOM      8  C   UNL     1       6.231   5.449  16.306  0.00  0.00    +0.000 A 
ATOM      9  O   UNL     1       7.303   5.951  15.978  0.00  0.00    +0.000 OA
ENDROOT
BRANCH   4  10
ATOM     10  C   UNL     1       2.468   3.600  17.407  0.00  0.00    +0.000 C 
ATOM     11  N   UNL     1       2.557   2.279  17.691  0.00  0.00    +0.000 N 
ATOM     12  O   UNL     1       1.378   4.165  17.420  0.00  0.00    +0.000 OA
ATOM     13  H   UNL     1       3.427   1.775  17.573  0.00  0.00    +0.000 HD
ATOM     14  H   UNL     1       1.704   1.755  17.826  0.00  0.00    +0.000 HD
ENDBRANCH   4  10
BRANCH   5  15
ATOM     15  N   UNL     1       3.573   5.911  18.975  0.00  0.00    +0.000 N 
ATOM     16  H   UNL     1       4.137   5.862  19.830  0.00  0.00    +0.000 HD
BRANCH  15  17
ATOM     17  C   UNL     1       2.868   7.151  18.975  0.00  0.00    +0.000 A 
ATOM     18  C   UNL     1       2.841   7.997  17.858  0.00  0.00    +0.000 A 
ATOM     19  C   UNL     1       1.997   9.112  17.831  0.00  0.00    +0.000 A 
ATOM     20  C   UNL     1       1.158   9.377  18.913  0.00  0.00    +0.000 A 
ATOM     21 BR   UNL     1      -0.026  10.848  18.841  0.00  0.00    +0.000 Br
ATOM     22  C   UNL     1       1.163   8.549  20.031  0.00  0.00    +0.000 A 
ATOM     23  C   UNL     1       2.008   7.444  20.046  0.00  0.00    +0.000 A 
ATOM     24  F   UNL     1       1.982   6.621  21.106  0.00  0.00    +0.000 F 
ENDBRANCH  15  17
ENDBRANCH   5  15
TORSDOF 3
ENDMDL
MODEL 2
REMARK VINA RESULT:      -7.2      2.198      3.998
REMARK  Name = 
REMARK  4 active torsions:
REMARK  status: ('A' for Active; 'I' for Inactive)
REMARK    1  A    between atoms: C_1  and  N_2
REMARK    2  A    between atoms: C_4  and  C_5
REMARK    3  A    between atoms: C_8  and  N_9
REMARK    4  A    between atoms: N_9  and  C_10
REMARK                            x       y       z     vdW  Elec       q    Type
REMARK                         _______ _______ _______ _____ _____    ______ ____
ROOT
ATOM      1  C   UNL     1       3.175   1.377  18.504  0.00  0.00    +0.000 C 
ATOM      2  N   UNL     1       3.141   2.776  18.894  0.00  0.00    +0.000 N 
ATOM      3  C   UNL     1       4.243   3.585  18.676  0.00  0.00    +0.000 A 
ATOM      4  C   UNL     1       4.261   4.881  19.041  0.00  0.00    +0.000 A 
ATOM      5  C   UNL     1       3.088   5.475  19.694  0.00  0.00    +0.000 A 
ATOM      6  C   UNL     1       2.005   4.692  19.872  0.00  0.00    +0.000 A 
ATOM      7  F   UNL     1       0.876   5.171  20.440  0.00  0.00    +0.000 F 
ATOM      8  C   UNL     1       1.972   3.256  19.483  0.00  0.00    +0.000 A 
ATOM      9  O   UNL     1       0.974   2.569  19.685  0.00  0.00    +0.000 OA
ENDROOT
BRANCH   4  10
ATOM     10  C   UNL     1       5.528   5.610  18.708  0.00  0.00    +0.000 C 
ATOM     11  N   UNL     1       6.642   5.264  19.397  0.00  0.00    +0.000 N 
ATOM     12  O   UNL     1       5.580   6.479  17.842  0.00  0.00    +0.000 OA
ATOM     13  H   UNL     1       6.594   4.636  20.189  0.00  0.00    +0.000 HD
ATOM     14  H   UNL     1       7.489   5.793  19.244  0.00  0.00    +0.000 HD
ENDBRANCH   4  10
BRANCH   5  15
ATOM     15  N   UNL     1       3.139   6.819  20.069  0.00  0.00    +0.000 N 
ATOM     16  H   UNL     1       4.049   7.229  19.836  0.00  0.00    +0.000 HD
BRANCH  15  17
ATOM     17  C   UNL     1       2.124   7.762  19.732  0.00  0.00    +0.000 A 
ATOM     18  C   UNL     1       1.289   8.340  20.697  0.00  0.00    +0.000 A 
ATOM     19  C   UNL     1       0.430   9.390  20.356  0.00  0.00    +0.000 A 
ATOM     20  C   UNL     1       0.414   9.882  19.052  0.00  0.00    +0.000 A 
ATOM     21 BR   UNL     1      -0.702  11.343  18.616  0.00  0.00    +0.000 Br
ATOM     22  C   UNL     1       1.237   9.327  18.077  0.00  0.00    +0.000 A 
ATOM     23  C   UNL     1       2.086   8.284  18.428  0.00  0.00    +0.000 A 
ATOM     24  F   UNL     1       2.911   7.776  17.499  0.00  0.00    +0.000 F 
ENDBRANCH  15  17
ENDBRANCH   5  15
TORSDOF 3
ENDMDL
MODEL 3
REMARK VINA RESULT:      -7.2      2.313      3.758
REMARK  Name = 
REMARK  4 active torsions:
REMARK  status: ('A' for Active; 'I' for Inactive)
REMARK    1  A    between atoms: C_1  and  N_2
REMARK    2  A    between atoms: C_4  and  C_5
REMARK    3  A    between atoms: C_8  and  N_9
REMARK    4  A    between atoms: N_9  and  C_10
REMARK                            x       y       z     vdW  Elec       q    Type
REMARK                         _______ _______ _______ _____ _____    ______ ____
ROOT
ATOM      1  C   UNL     1       2.516   1.831  17.845  0.00  0.00    +0.000 C 
ATOM      2  N   UNL     1       2.582   3.171  18.400  0.00  0.00    +0.000 N 
ATOM      3  C   UNL     1       3.597   4.033  18.019  0.00  0.00    +0.000 A 
ATOM      4  C   UNL     1       3.707   5.275  18.525  0.00  0.00    +0.000 A 
ATOM      5  C   UNL     1       2.733   5.753  19.515  0.00  0.00    +0.000 A 
ATOM      6  C   UNL     1       1.728   4.923  19.857  0.00  0.00    +0.000 A 
ATOM      7  F   UNL     1       0.775   5.298  20.739  0.00  0.00    +0.000 F 
ATOM      8  C   UNL     1       1.597   3.543  19.314  0.00  0.00    +0.000 A 
ATOM      9  O   UNL     1       0.679   2.809  19.669  0.00  0.00    +0.000 OA
ENDROOT
BRANCH   4  10
ATOM     10  C   UNL     1       4.854   6.076  17.983  0.00  0.00    +0.000 C 
ATOM     11  N   UNL     1       6.103   5.681  18.328  0.00  0.00    +0.000 N 
ATOM     12  O   UNL     1       4.690   7.043  17.244  0.00  0.00    +0.000 OA
ATOM     13  H   UNL     1       6.251   4.961  19.023  0.00  0.00    +0.000 HD
ATOM     14  H   UNL     1       6.887   6.249  18.038  0.00  0.00    +0.000 HD
ENDBRANCH   4  10
BRANCH   5  15
ATOM     15  N   UNL     1       2.879   7.043  20.029  0.00  0.00    +0.000 N 
ATOM     16  H   UNL     1       3.853   7.355  19.963  0.00  0.00    +0.000 HD
BRANCH  15  17
ATOM     17  C   UNL     1       2.035   8.130  19.656  0.00  0.00    +0.000 A 
ATOM     18  C   UNL     1       1.906   8.556  18.327  0.00  0.00    +0.000 A 
ATOM     19  C   UNL     1       0.937   9.502  17.975  0.00  0.00    +0.000 A 
ATOM     20  C   UNL     1       0.077  10.012  18.945  0.00  0.00    +0.000 A 
ATOM     21 BR   UNL     1      -1.271  11.241  18.449  0.00  0.00    +0.000 Br
ATOM     22  C   UNL     1       0.182   9.601  20.271  0.00  0.00    +0.000 A 
ATOM     23  C   UNL     1       1.149   8.661  20.608  0.00  0.00    +0.000 A 
ATOM     24  F   UNL     1       1.223   8.232  21.878  0.00  0.00    +0.000 F 
ENDBRANCH  15  17
ENDBRANCH   5  15
TORSDOF 3
ENDMDL
MODEL 4
REMARK VINA RESULT:      -6.9      2.025      3.550
REMARK  Name = 
REMARK  4 active torsions:
REMARK  status: ('A' for Active; 'I' for Inactive)
REMARK    1  A    between atoms: C_1  and  N_2
REMARK    2  A    between atoms: C_4  and  C_5
REMARK    3  A    between atoms: C_8  and  N_9
REMARK    4  A    between atoms: N_9  and  C_10
REMARK                            x       y       z     vdW  Elec       q    Type
REMARK                         _______ _______ _______ _____ _____    ______ ____
ROOT
ATOM      1  C   UNL     1       3.700   1.299  18.862  0.00  0.00    +0.000 C 
ATOM      2  N   UNL     1       3.592   2.706  18.521  0.00  0.00    +0.000 N 
ATOM      3  C   UNL     1       4.696   3.535  18.635  0.00  0.00    +0.000 A 
ATOM      4  C   UNL     1       4.634   4.849  18.350  0.00  0.00    +0.000 A 
ATOM      5  C   UNL     1       3.367   5.444  17.904  0.00  0.00    +0.000 A 
ATOM      6  C   UNL     1       2.306   4.627  17.762  0.00  0.00    +0.000 A 
ATOM      7  F   UNL     1       1.112   5.091  17.330  0.00  0.00    +0.000 F 
ATOM      8  C   UNL     1       2.354   3.174  18.083  0.00  0.00    +0.000 A 
ATOM      9  O   UNL     1       1.357   2.467  17.963  0.00  0.00    +0.000 OA
ENDROOT
BRANCH   4  10
ATOM     10  C   UNL     1       5.929   5.589  18.508  0.00  0.00    +0.000 C 
ATOM     11  N   UNL     1       6.770   5.164  19.481  0.00  0.00    +0.000 N 
ATOM     12  O   UNL     1       6.241   6.533  17.787  0.00  0.00    +0.000 OA
ATOM     13  H   UNL     1       6.482   4.465  20.154  0.00  0.00    +0.000 HD
ATOM     14  H   UNL     1       7.613   5.692  19.656  0.00  0.00    +0.000 HD
ENDBRANCH   4  10
BRANCH   5  15
ATOM     15  N   UNL     1       3.332   6.812  17.624  0.00  0.00    +0.000 N 
ATOM     16  H   UNL     1       3.123   6.978  16.635  0.00  0.00    +0.000 HD
BRANCH  15  17
ATOM     17  C   UNL     1       2.587   7.747  18.402  0.00  0.00    +0.000 A 
ATOM     18  C   UNL     1       1.956   8.861  17.831  0.00  0.00    +0.000 A 
ATOM     19  C   UNL     1       1.089   9.652  18.591  0.00  0.00    +0.000 A 
ATOM     20  C   UNL     1       0.830   9.324  19.921  0.00  0.00    +0.000 A 
ATOM     21 BR   UNL     1      -0.393  10.362  20.920  0.00  0.00    +0.000 Br
ATOM     22  C   UNL     1       1.441   8.221  20.509  0.00  0.00    +0.000 A 
ATOM     23  C   UNL     1       2.302   7.442  19.743  0.00  0.00    +0.000 A 
ATOM     24  F   UNL     1       2.858   6.353  20.297  0.00  0.00    +0.000 F 
ENDBRANCH  15  17
ENDBRANCH   5  15
TORSDOF 3
ENDMDL
MODEL 5
REMARK VINA RESULT:      -6.8      3.658      5.877
REMARK  Name = 
REMARK  4 active torsions:
REMARK  status: ('A' for Active; 'I' for Inactive)
REMARK    1  A    between atoms: C_1  and  N_2
REMARK    2  A    between atoms: C_4  and  C_5
REMARK    3  A    between atoms: C_8  and  N_9
REMARK    4  A    between atoms: N_9  and  C_10
REMARK                            x       y       z     vdW  Elec       q    Type
REMARK                         _______ _______ _______ _____ _____    ______ ____
ROOT
ATOM      1  C   UNL     1       1.081   5.502  20.753  0.00  0.00    +0.000 C 
ATOM      2  N   UNL     1       2.309   5.191  20.041  0.00  0.00    +0.000 N 
ATOM      3  C   UNL     1       2.842   3.914  20.099  0.00  0.00    +0.000 A 
ATOM      4  C   UNL     1       3.988   3.591  19.472  0.00  0.00    +0.000 A 
ATOM      5  C   UNL     1       4.714   4.606  18.699  0.00  0.00    +0.000 A 
ATOM      6  C   UNL     1       4.173   5.838  18.617  0.00  0.00    +0.000 A 
ATOM      7  F   UNL     1       4.764   6.821  17.902  0.00  0.00    +0.000 F 
ATOM      8  C   UNL     1       2.912   6.215  19.312  0.00  0.00    +0.000 A 
ATOM      9  O   UNL     1       2.463   7.356  19.232  0.00  0.00    +0.000 OA
ENDROOT
BRANCH   4  10
ATOM     10  C   UNL     1       4.405   2.158  19.626  0.00  0.00    +0.000 C 
ATOM     11  N   UNL     1       4.011   1.292  18.662  0.00  0.00    +0.000 N 
ATOM     12  O   UNL     1       5.088   1.768  20.569  0.00  0.00    +0.000 OA
ATOM     13  H   UNL     1       3.356   1.571  17.943  0.00  0.00    +0.000 HD
ATOM     14  H   UNL     1       4.214   0.309  18.782  0.00  0.00    +0.000 HD
ENDBRANCH   4  10
BRANCH   5  15
ATOM     15  N   UNL     1       5.905   4.242  18.068  0.00  0.00    +0.000 N 
ATOM     16  H   UNL     1       6.173   3.284  18.315  0.00  0.00    +0.000 HD
BRANCH  15  17
ATOM     17  C   UNL     1       6.133   4.423  16.671  0.00  0.00    +0.000 A 
ATOM     18  C   UNL     1       7.358   4.881  16.166  0.00  0.00    +0.000 A 
ATOM     19  C   UNL     1       7.605   4.874  14.790  0.00  0.00    +0.000 A 
ATOM     20  C   UNL     1       6.638   4.391  13.910  0.00  0.00    +0.000 A 
ATOM     21 BR   UNL     1       7.006   4.326  12.057  0.00  0.00    +0.000 Br
ATOM     22  C   UNL     1       5.416   3.928  14.387  0.00  0.00    +0.000 A 
ATOM     23  C   UNL     1       5.182   3.940  15.758  0.00  0.00    +0.000 A 
ATOM     24  F   UNL     1       4.020   3.453  16.223  0.00  0.00    +0.000 F 
ENDBRANCH  15  17
ENDBRANCH   5  15
TORSDOF 3
ENDMDL
MODEL 6
REMARK VINA RESULT:      -6.8      3.609      5.882
REMARK  Name = 
REMARK  4 active torsions:
REMARK  status: ('A' for Active; 'I' for Inactive)
REMARK    1  A    between atoms: C_1  and  N_2
REMARK    2  A    between atoms: C_4  and  C_5
REMARK    3  A    between atoms: C_8  and  N_9
REMARK    4  A    between atoms: N_9  and  C_10
REMARK                            x       y       z     vdW  Elec       q    Type
REMARK                         _______ _______ _______ _____ _____    ______ ____
ROOT
ATOM      1  C   UNL     1       1.000   5.449  20.501  0.00  0.00    +0.000 C 
ATOM      2  N   UNL     1       2.295   5.149  19.916  0.00  0.00    +0.000 N 
ATOM      3  C   UNL     1       2.827   3.875  20.023  0.00  0.00    +0.000 A 
ATOM      4  C   UNL     1       4.033   3.561  19.514  0.00  0.00    +0.000 A 
ATOM      5  C   UNL     1       4.827   4.584  18.823  0.00  0.00    +0.000 A 
ATOM      6  C   UNL     1       4.290   5.813  18.692  0.00  0.00    +0.000 A 
ATOM      7  F   UNL     1       4.944   6.803  18.044  0.00  0.00    +0.000 F 
ATOM      8  C   UNL     1       2.962   6.180  19.257  0.00  0.00    +0.000 A 
ATOM      9  O   UNL     1       2.517   7.319  19.137  0.00  0.00    +0.000 OA
ENDROOT
BRANCH   4  10
ATOM     10  C   UNL     1       4.441   2.130  19.703  0.00  0.00    +0.000 C 
ATOM     11  N   UNL     1       4.101   1.255  18.726  0.00  0.00    +0.000 N 
ATOM     12  O   UNL     1       5.070   1.748  20.686  0.00  0.00    +0.000 OA
ATOM     13  H   UNL     1       3.486   1.527  17.970  0.00  0.00    +0.000 HD
ATOM     14  H   UNL     1       4.297   0.274  18.866  0.00  0.00    +0.000 HD
ENDBRANCH   4  10
BRANCH   5  15
ATOM     15  N   UNL     1       6.078   4.230  18.314  0.00  0.00    +0.000 N 
ATOM     16  H   UNL     1       6.395   3.338  18.707  0.00  0.00    +0.000 HD
BRANCH  15  17
ATOM     17  C   UNL     1       6.383   4.238  16.921  0.00  0.00    +0.000 A 
ATOM     18  C   UNL     1       5.703   3.429  16.001  0.00  0.00    +0.000 A 
ATOM     19  C   UNL     1       5.903   3.593  14.626  0.00  0.00    +0.000 A 
ATOM     20  C   UNL     1       6.769   4.581  14.161  0.00  0.00    +0.000 A 
ATOM     21 BR   UNL     1       6.984   4.839  12.301  0.00  0.00    +0.000 Br
ATOM     22  C   UNL     1       7.453   5.400  15.055  0.00  0.00    +0.000 A 
ATOM     23  C   UNL     1       7.246   5.226  16.419  0.00  0.00    +0.000 A 
ATOM     24  F   UNL     1       7.873   6.043  17.280  0.00  0.00    +0.000 F 
ENDBRANCH  15  17
ENDBRANCH   5  15
TORSDOF 3
ENDMDL
MODEL 7
REMARK VINA RESULT:      -6.8      1.909      3.891
REMARK  Name = 
REMARK  4 active torsions:
REMARK  status: ('A' for Active; 'I' for Inactive)
REMARK    1  A    between atoms: C_1  and  N_2
REMARK    2  A    between atoms: C_4  and  C_5
REMARK    3  A    between atoms: C_8  and  N_9
REMARK    4  A    between atoms: N_9  and  C_10
REMARK                            x       y       z     vdW  Elec       q    Type
REMARK                         _______ _______ _______ _____ _____    ______ ____
ROOT
ATOM      1  C   UNL     1       2.661   1.827  17.504  0.00  0.00    +0.000 C 
ATOM      2  N   UNL     1       2.722   3.158  18.081  0.00  0.00    +0.000 N 
ATOM      3  C   UNL     1       3.686   4.057  17.654  0.00  0.00    +0.000 A 
ATOM      4  C   UNL     1       3.791   5.292  18.178  0.00  0.00    +0.000 A 
ATOM      5  C   UNL     1       2.868   5.722  19.237  0.00  0.00    +0.000 A 
ATOM      6  C   UNL     1       1.911   4.855  19.623  0.00  0.00    +0.000 A 
ATOM      7  F   UNL     1       1.005   5.184  20.571  0.00  0.00    +0.000 F 
ATOM      8  C   UNL     1       1.786   3.483  19.062  0.00  0.00    +0.000 A 
ATOM      9  O   UNL     1       0.914   2.714  19.459  0.00  0.00    +0.000 OA
ENDROOT
BRANCH   4  10
ATOM     10  C   UNL     1       4.877   6.137  17.582  0.00  0.00    +0.000 C 
ATOM     11  N   UNL     1       4.799   6.401  16.256  0.00  0.00    +0.000 N 
ATOM     12  O   UNL     1       5.800   6.593  18.252  0.00  0.00    +0.000 OA
ATOM     13  H   UNL     1       4.114   5.941  15.670  0.00  0.00    +0.000 HD
ATOM     14  H   UNL     1       5.558   6.903  15.817  0.00  0.00    +0.000 HD
ENDBRANCH   4  10
BRANCH   5  15
ATOM     15  N   UNL     1       3.008   7.006  19.766  0.00  0.00    +0.000 N 
ATOM     16  H   UNL     1       3.884   7.437  19.455  0.00  0.00    +0.000 HD
BRANCH  15  17
ATOM     17  C   UNL     1       1.978   7.990  19.705  0.00  0.00    +0.000 A 
ATOM     18  C   UNL     1       1.297   8.432  20.847  0.00  0.00    +0.000 A 
ATOM     19  C   UNL     1       0.423   9.523  20.775  0.00  0.00    +0.000 A 
ATOM     20  C   UNL     1       0.241  10.192  19.566  0.00  0.00    +0.000 A 
ATOM     21 BR   UNL     1      -0.890  11.703  19.492  0.00  0.00    +0.000 Br
ATOM     22  C   UNL     1       0.910   9.774  18.419  0.00  0.00    +0.000 A 
ATOM     23  C   UNL     1       1.775   8.689  18.504  0.00  0.00    +0.000 A 
ATOM     24  F   UNL     1       2.454   8.312  17.408  0.00  0.00    +0.000 F 
ENDBRANCH  15  17
ENDBRANCH   5  15
TORSDOF 3
ENDMDL
MODEL 8
REMARK VINA RESULT:      -6.8      4.505      7.218
REMARK  Name = 
REMARK  4 active torsions:
REMARK  status: ('A' for Active; 'I' for Inactive)
REMARK    1  A    between atoms: C_1  and  N_2
REMARK    2  A    between atoms: C_4  and  C_5
REMARK    3  A    between atoms: C_8  and  N_9
REMARK    4  A    between atoms: N_9  and  C_10
REMARK                            x       y       z     vdW  Elec       q    Type
REMARK                         _______ _______ _______ _____ _____    ______ ____
ROOT
ATOM      1  C   UNL     1      -2.452  11.832  19.596  0.00  0.00    +0.000 C 
ATOM      2  N   UNL     1      -1.293  10.961  19.672  0.00  0.00    +0.000 N 
ATOM      3  C   UNL     1      -0.765  10.613  20.904  0.00  0.00    +0.000 A 
ATOM      4  C   UNL     1       0.322   9.826  21.019  0.00  0.00    +0.000 A 
ATOM      5  C   UNL     1       0.984   9.310  19.814  0.00  0.00    +0.000 A 
ATOM      6  C   UNL     1       0.445   9.624  18.619  0.00  0.00    +0.000 A 
ATOM      7  F   UNL     1       0.979   9.166  17.464  0.00  0.00    +0.000 F 
ATOM      8  C   UNL     1      -0.749  10.500  18.474  0.00  0.00    +0.000 A 
ATOM      9  O   UNL     1      -1.195  10.782  17.365  0.00  0.00    +0.000 OA
ENDROOT
BRANCH   4  10
ATOM     10  C   UNL     1       0.742   9.535  22.428  0.00  0.00    +0.000 C 
ATOM     11  N   UNL     1      -0.241   9.373  23.346  0.00  0.00    +0.000 N 
ATOM     12  O   UNL     1       1.920   9.430  22.757  0.00  0.00    +0.000 OA
ATOM     13  H   UNL     1      -1.208   9.569  23.119  0.00  0.00    +0.000 HD
ATOM     14  H   UNL     1       0.017   9.252  24.316  0.00  0.00    +0.000 HD
ENDBRANCH   4  10
BRANCH   5  15
ATOM     15  N   UNL     1       2.114   8.504  19.964  0.00  0.00    +0.000 N 
ATOM     16  H   UNL     1       2.606   8.722  20.836  0.00  0.00    +0.000 HD
BRANCH  15  17
ATOM     17  C   UNL     1       2.085   7.086  19.810  0.00  0.00    +0.000 A 
ATOM     18  C   UNL     1       1.460   6.245  20.739  0.00  0.00    +0.000 A 
ATOM     19  C   UNL     1       1.295   4.883  20.466  0.00  0.00    +0.000 A 
ATOM     20  C   UNL     1       1.736   4.357  19.253  0.00  0.00    +0.000 A 
ATOM     21 BR   UNL     1       1.451   2.529  18.865  0.00  0.00    +0.000 Br
ATOM     22  C   UNL     1       2.356   5.173  18.312  0.00  0.00    +0.000 A 
ATOM     23  C   UNL     1       2.514   6.525  18.596  0.00  0.00    +0.000 A 
ATOM     24  F   UNL     1       3.074   7.322  17.671  0.00  0.00    +0.000 F 
ENDBRANCH  15  17
ENDBRANCH   5  15
TORSDOF 3
ENDMDL
MODEL 9
REMARK VINA RESULT:      -6.7      3.571      5.982
REMARK  Name = 
REMARK  4 active torsions:
REMARK  status: ('A' for Active; 'I' for Inactive)
REMARK    1  A    between atoms: C_1  and  N_2
REMARK    2  A    between atoms: C_4  and  C_5
REMARK    3  A    between atoms: C_8  and  N_9
REMARK    4  A    between atoms: N_9  and  C_10
REMARK                            x       y       z     vdW  Elec       q    Type
REMARK                         _______ _______ _______ _____ _____    ______ ____
ROOT
ATOM      1  C   UNL     1       1.425   2.940  21.632  0.00  0.00    +0.000 C 
ATOM      2  N   UNL     1       2.347   3.675  20.783  0.00  0.00    +0.000 N 
ATOM      3  C   UNL     1       2.070   4.984  20.426  0.00  0.00    +0.000 A 
ATOM      4  C   UNL     1       2.886   5.693  19.623  0.00  0.00    +0.000 A 
ATOM      5  C   UNL     1       4.112   5.079  19.097  0.00  0.00    +0.000 A 
ATOM      6  C   UNL     1       4.394   3.816  19.476  0.00  0.00    +0.000 A 
ATOM      7  F   UNL     1       5.517   3.190  19.058  0.00  0.00    +0.000 F 
ATOM      8  C   UNL     1       3.498   3.015  20.354  0.00  0.00    +0.000 A 
ATOM      9  O   UNL     1       3.779   1.858  20.656  0.00  0.00    +0.000 OA
ENDROOT
BRANCH   4  10
ATOM     10  C   UNL     1       2.441   7.100  19.360  0.00  0.00    +0.000 C 
ATOM     11  N   UNL     1       1.960   7.805  20.412  0.00  0.00    +0.000 N 
ATOM     12  O   UNL     1       2.514   7.617  18.249  0.00  0.00    +0.000 OA
ATOM     13  H   UNL     1       1.786   7.361  21.305  0.00  0.00    +0.000 HD
ATOM     14  H   UNL     1       1.584   8.728  20.245  0.00  0.00    +0.000 HD
ENDBRANCH   4  10
BRANCH   5  15
ATOM     15  N   UNL     1       4.934   5.836  18.261  0.00  0.00    +0.000 N 
ATOM     16  H   UNL     1       5.694   6.274  18.791  0.00  0.00    +0.000 HD
BRANCH  15  17
ATOM     17  C   UNL     1       5.472   5.337  17.038  0.00  0.00    +0.000 A 
ATOM     18  C   UNL     1       4.665   4.780  16.037  0.00  0.00    +0.000 A 
ATOM     19  C   UNL     1       5.202   4.468  14.783  0.00  0.00    +0.000 A 
ATOM     20  C   UNL     1       6.545   4.729  14.516  0.00  0.00    +0.000 A 
ATOM     21 BR   UNL     1       7.246   4.364  12.799  0.00  0.00    +0.000 Br
ATOM     22  C   UNL     1       7.366   5.286  15.492  0.00  0.00    +0.000 A 
ATOM     23  C   UNL     1       6.820   5.592  16.734  0.00  0.00    +0.000 A 
ATOM     24  F   UNL     1       7.600   6.168  17.662  0.00  0.00    +0.000 F 
ENDBRANCH  15  17
ENDBRANCH   5  15
TORSDOF 3
ENDMDL
