MODEL 1
REMARK VINA RESULT:      -7.8      0.000      0.000
REMARK  Name = 
REMARK  10 active torsions:
REMARK  status: ('A' for Active; 'I' for Inactive)
REMARK    1  A    between atoms: C_1  and  O_2
REMARK    2  A    between atoms: O_2  and  C_3
REMARK    3  A    between atoms: C_4  and  C_5
REMARK    4  A    between atoms: C_7  and  C_8
REMARK    5  A    between atoms: N_13  and  C_14
REMARK    6  A    between atoms: C_19  and  N_20
REMARK    7  A    between atoms: N_20  and  C_21
REMARK    8  A    between atoms: C_21  and  C_22
REMARK    9  A    between atoms: C_21  and  C_23
REMARK   10  A    between atoms: C_27  and  C_28
REMARK                            x       y       z     vdW  Elec       q    Type
REMARK                         _______ _______ _______ _____ _____    ______ ____
ROOT
ATOM      1  C   UNL     1      -0.028  10.056  20.308  0.00  0.00    +0.000 C 
ATOM      2  O   UNL     1      -0.119  10.180  21.528  0.00  0.00    +0.000 OA
ATOM      3  N   UNL     1       1.023   9.378  19.710  0.00  0.00    +0.000 N 
ATOM      4  C   UNL     1       1.898   8.538  20.551  0.00  0.00    +0.000 C 
ATOM      5  C   UNL     1       2.111   7.136  19.928  0.00  0.00    +0.000 C 
ATOM      6  N   UNL     1       2.547   7.328  18.546  0.00  0.00    +0.000 N 
ATOM      7  C   UNL     1       1.599   8.065  17.704  0.00  0.00    +0.000 C 
ATOM      8  C   UNL     1       1.464   9.476  18.303  0.00  0.00    +0.000 C 
ENDROOT
BRANCH   1  13
ATOM      9  C   UNL     1      -3.378  11.602  18.064  0.00  0.00    +0.000 A 
ATOM     10  C   UNL     1      -3.071  12.122  19.337  0.00  0.00    +0.000 A 
ATOM     11  C   UNL     1      -3.853  13.144  20.112  0.00  0.00    +0.000 C 
ATOM     12  C   UNL     1      -1.913  11.646  19.999  0.00  0.00    +0.000 A 
ATOM     13  C   UNL     1      -1.137  10.608  19.481  0.00  0.00    +0.000 A 
ATOM     14  C   UNL     1      -1.518  10.033  18.275  0.00  0.00    +0.000 A 
ATOM     15  C   UNL     1      -2.575  10.567  17.529  0.00  0.00    +0.000 A 
ATOM     16  C   UNL     1      -2.830   9.999  16.155  0.00  0.00    +0.000 C 
BRANCH   9  18
ATOM     17  C   UNL     1      -5.755  11.674  17.587  0.00  0.00    +0.000 C 
ATOM     18  O   UNL     1      -4.413  11.922  17.232  0.00  0.00    +0.000 OA
ENDBRANCH   9  18
ENDBRANCH   1  13
BRANCH   6  19
ATOM     19  C   UNL     1       3.458   6.467  17.961  0.00  0.00    +0.000 A 
ATOM     20  N   UNL     1       4.556   6.997  17.375  0.00  0.00    +0.000 NA
ATOM     21  C   UNL     1       5.413   6.148  16.766  0.00  0.00    +0.000 A 
ATOM     22  C   UNL     1       5.210   4.786  16.665  0.00  0.00    +0.000 A 
ATOM     23  C   UNL     1       4.068   4.244  17.244  0.00  0.00    +0.000 A 
ATOM     24  C   UNL     1       3.181   5.067  17.936  0.00  0.00    +0.000 A 
BRANCH  24  25
ATOM     25  N   UNL     1       1.964   4.598  18.457  0.00  0.00    +0.000 N 
ATOM     26  H   UNL     1       1.248   4.667  17.737  0.00  0.00    +0.000 HD
BRANCH  25  27
ATOM     27  C   UNL     1       1.854   3.441  19.330  0.00  0.00    +0.000 C 
ATOM     28  C   UNL     1       1.230   3.824  20.676  0.00  0.00    +0.000 C 
ATOM     29  C   UNL     1       0.928   2.439  18.630  0.00  0.00    +0.000 C 
ENDBRANCH  25  27
ENDBRANCH  24  25
ENDBRANCH   6  19
TORSDOF 5
ENDMDL
MODEL 2
REMARK VINA RESULT:      -7.7      2.899      8.318
REMARK  Name = 
REMARK  10 active torsions:
REMARK  status: ('A' for Active; 'I' for Inactive)
REMARK    1  A    between atoms: C_1  and  O_2
REMARK    2  A    between atoms: O_2  and  C_3
REMARK    3  A    between atoms: C_4  and  C_5
REMARK    4  A    between atoms: C_7  and  C_8
REMARK    5  A    between atoms: N_13  and  C_14
REMARK    6  A    between atoms: C_19  and  N_20
REMARK    7  A    between atoms: N_20  and  C_21
REMARK    8  A    between atoms: C_21  and  C_22
REMARK    9  A    between atoms: C_21  and  C_23
REMARK   10  A    between atoms: C_27  and  C_28
REMARK                            x       y       z     vdW  Elec       q    Type
REMARK                         _______ _______ _______ _____ _____    ______ ____
ROOT
ATOM      1  C   UNL     1       1.993   7.086  19.667  0.00  0.00    +0.000 C 
ATOM      2  O   UNL     1       1.739   6.508  20.724  0.00  0.00    +0.000 OA
ATOM      3  N   UNL     1       1.509   8.354  19.382  0.00  0.00    +0.000 N 
ATOM      4  C   UNL     1       0.921   9.153  20.475  0.00  0.00    +0.000 C 
ATOM      5  C   UNL     1       1.488  10.594  20.494  0.00  0.00    +0.000 C 
ATOM      6  N   UNL     1       1.341  11.146  19.149  0.00  0.00    +0.000 N 
ATOM      7  C   UNL     1       2.037  10.393  18.101  0.00  0.00    +0.000 C 
ATOM      8  C   UNL     1       1.403   8.991  18.053  0.00  0.00    +0.000 C 
ENDROOT
BRANCH   1  13
ATOM      9  C   UNL     1       4.656   4.924  17.044  0.00  0.00    +0.000 A 
ATOM     10  C   UNL     1       3.427   4.359  17.436  0.00  0.00    +0.000 A 
ATOM     11  C   UNL     1       2.921   2.980  17.120  0.00  0.00    +0.000 C 
ATOM     12  C   UNL     1       2.547   5.138  18.226  0.00  0.00    +0.000 A 
ATOM     13  C   UNL     1       2.906   6.395  18.714  0.00  0.00    +0.000 A 
ATOM     14  C   UNL     1       4.167   6.891  18.407  0.00  0.00    +0.000 A 
ATOM     15  C   UNL     1       5.008   6.210  17.519  0.00  0.00    +0.000 A 
ATOM     16  C   UNL     1       6.292   6.883  17.103  0.00  0.00    +0.000 C 
BRANCH   9  18
ATOM     17  C   UNL     1       5.531   4.316  14.865  0.00  0.00    +0.000 C 
ATOM     18  O   UNL     1       5.643   4.383  16.269  0.00  0.00    +0.000 OA
ENDBRANCH   9  18
ENDBRANCH   1  13
BRANCH   6  19
ATOM     19  C   UNL     1       1.056  12.486  18.957  0.00  0.00    +0.000 A 
ATOM     20  N   UNL     1       2.079  13.371  19.002  0.00  0.00    +0.000 NA
ATOM     21  C   UNL     1       1.781  14.680  18.861  0.00  0.00    +0.000 A 
ATOM     22  C   UNL     1       0.497  15.170  18.724  0.00  0.00    +0.000 A 
ATOM     23  C   UNL     1      -0.557  14.264  18.705  0.00  0.00    +0.000 A 
ATOM     24  C   UNL     1      -0.299  12.896  18.787  0.00  0.00    +0.000 A 
BRANCH  24  25
ATOM     25  N   UNL     1      -1.323  11.938  18.871  0.00  0.00    +0.000 N 
ATOM     26  H   UNL     1      -1.777  12.019  19.779  0.00  0.00    +0.000 HD
BRANCH  25  27
ATOM     27  C   UNL     1      -2.205  11.602  17.766  0.00  0.00    +0.000 C 
ATOM     28  C   UNL     1      -1.928  10.185  17.251  0.00  0.00    +0.000 C 
ATOM     29  C   UNL     1      -3.639  11.653  18.306  0.00  0.00    +0.000 C 
ENDBRANCH  25  27
ENDBRANCH  24  25
ENDBRANCH   6  19
TORSDOF 5
ENDMDL
MODEL 3
REMARK VINA RESULT:      -7.4      2.933      8.584
REMARK  Name = 
REMARK  10 active torsions:
REMARK  status: ('A' for Active; 'I' for Inactive)
REMARK    1  A    between atoms: C_1  and  O_2
REMARK    2  A    between atoms: O_2  and  C_3
REMARK    3  A    between atoms: C_4  and  C_5
REMARK    4  A    between atoms: C_7  and  C_8
REMARK    5  A    between atoms: N_13  and  C_14
REMARK    6  A    between atoms: C_19  and  N_20
REMARK    7  A    between atoms: N_20  and  C_21
REMARK    8  A    between atoms: C_21  and  C_22
REMARK    9  A    between atoms: C_21  and  C_23
REMARK   10  A    between atoms: C_27  and  C_28
REMARK                            x       y       z     vdW  Elec       q    Type
REMARK                         _______ _______ _______ _____ _____    ______ ____
ROOT
ATOM      1  C   UNL     1       3.050   6.340  19.026  0.00  0.00    +0.000 C 
ATOM      2  O   UNL     1       2.941   5.496  19.916  0.00  0.00    +0.000 OA
ATOM      3  N   UNL     1       2.215   7.443  18.946  0.00  0.00    +0.000 N 
ATOM      4  C   UNL     1       1.365   7.777  20.106  0.00  0.00    +0.000 C 
ATOM      5  C   UNL     1       1.462   9.280  20.468  0.00  0.00    +0.000 C 
ATOM      6  N   UNL     1       1.210  10.046  19.250  0.00  0.00    +0.000 N 
ATOM      7  C   UNL     1       2.147   9.777  18.155  0.00  0.00    +0.000 C 
ATOM      8  C   UNL     1       1.976   8.298  17.765  0.00  0.00    +0.000 C 
ENDROOT
BRANCH   1  13
ATOM      9  C   UNL     1       6.328   5.653  16.300  0.00  0.00    +0.000 A 
ATOM     10  C   UNL     1       5.188   4.826  16.267  0.00  0.00    +0.000 A 
ATOM     11  C   UNL     1       4.979   3.602  15.421  0.00  0.00    +0.000 C 
ATOM     12  C   UNL     1       4.101   5.141  17.120  0.00  0.00    +0.000 A 
ATOM     13  C   UNL     1       4.171   6.170  18.060  0.00  0.00    +0.000 A 
ATOM     14  C   UNL     1       5.345   6.906  18.152  0.00  0.00    +0.000 A 
ATOM     15  C   UNL     1       6.386   6.712  17.237  0.00  0.00    +0.000 A 
ATOM     16  C   UNL     1       7.563   7.654  17.292  0.00  0.00    +0.000 C 
BRANCH   9  18
ATOM     17  C   UNL     1       7.453   5.188  14.202  0.00  0.00    +0.000 C 
ATOM     18  O   UNL     1       7.474   5.566  15.561  0.00  0.00    +0.000 OA
ENDBRANCH   9  18
ENDBRANCH   1  13
BRANCH   6  19
ATOM     19  C   UNL     1       0.538  11.254  19.296  0.00  0.00    +0.000 A 
ATOM     20  N   UNL     1       0.971  12.196  20.166  0.00  0.00    +0.000 NA
ATOM     21  C   UNL     1       0.277  13.352  20.235  0.00  0.00    +0.000 A 
ATOM     22  C   UNL     1      -0.871  13.609  19.510  0.00  0.00    +0.000 A 
ATOM     23  C   UNL     1      -1.332  12.631  18.636  0.00  0.00    +0.000 A 
ATOM     24  C   UNL     1      -0.619  11.443  18.482  0.00  0.00    +0.000 A 
BRANCH  24  25
ATOM     25  N   UNL     1      -1.083  10.380  17.690  0.00  0.00    +0.000 N 
ATOM     26  H   UNL     1      -0.806   9.501  18.124  0.00  0.00    +0.000 HD
BRANCH  25  27
ATOM     27  C   UNL     1      -2.382  10.367  17.040  0.00  0.00    +0.000 C 
ATOM     28  C   UNL     1      -2.298   9.713  15.656  0.00  0.00    +0.000 C 
ATOM     29  C   UNL     1      -3.316   9.529  17.921  0.00  0.00    +0.000 C 
ENDBRANCH  25  27
ENDBRANCH  24  25
ENDBRANCH   6  19
TORSDOF 5
ENDMDL
MODEL 4
REMARK VINA RESULT:      -7.3      2.880      8.141
REMARK  Name = 
REMARK  10 active torsions:
REMARK  status: ('A' for Active; 'I' for Inactive)
REMARK    1  A    between atoms: C_1  and  O_2
REMARK    2  A    between atoms: O_2  and  C_3
REMARK    3  A    between atoms: C_4  and  C_5
REMARK    4  A    between atoms: C_7  and  C_8
REMARK    5  A    between atoms: N_13  and  C_14
REMARK    6  A    between atoms: C_19  and  N_20
REMARK    7  A    between atoms: N_20  and  C_21
REMARK    8  A    between atoms: C_21  and  C_22
REMARK    9  A    between atoms: C_21  and  C_23
REMARK   10  A    between atoms: C_27  and  C_28
REMARK                            x       y       z     vdW  Elec       q    Type
REMARK                         _______ _______ _______ _____ _____    ______ ____
ROOT
ATOM      1  C   UNL     1       1.921   6.886  19.811  0.00  0.00    +0.000 C 
ATOM      2  O   UNL     1       1.642   6.344  20.880  0.00  0.00    +0.000 OA
ATOM      3  N   UNL     1       1.470   8.157  19.487  0.00  0.00    +0.000 N 
ATOM      4  C   UNL     1       0.888   8.999  20.550  0.00  0.00    +0.000 C 
ATOM      5  C   UNL     1       1.488  10.426  20.537  0.00  0.00    +0.000 C 
ATOM      6  N   UNL     1       1.369  10.944  19.176  0.00  0.00    +0.000 N 
ATOM      7  C   UNL     1       2.060  10.147  18.157  0.00  0.00    +0.000 C 
ATOM      8  C   UNL     1       1.394   8.760  18.140  0.00  0.00    +0.000 C 
ENDROOT
BRANCH   1  13
ATOM      9  C   UNL     1       4.536   4.911  17.000  0.00  0.00    +0.000 A 
ATOM     10  C   UNL     1       4.875   6.173  17.524  0.00  0.00    +0.000 A 
ATOM     11  C   UNL     1       6.054   7.025  17.146  0.00  0.00    +0.000 C 
ATOM     12  C   UNL     1       4.032   6.745  18.508  0.00  0.00    +0.000 A 
ATOM     13  C   UNL     1       2.829   6.149  18.889  0.00  0.00    +0.000 A 
ATOM     14  C   UNL     1       2.457   4.957  18.281  0.00  0.00    +0.000 A 
ATOM     15  C   UNL     1       3.328   4.296  17.407  0.00  0.00    +0.000 A 
ATOM     16  C   UNL     1       2.930   2.928  16.911  0.00  0.00    +0.000 C 
BRANCH   9  18
ATOM     17  C   UNL     1       5.416   4.618  14.759  0.00  0.00    +0.000 C 
ATOM     18  O   UNL     1       5.200   4.157  16.074  0.00  0.00    +0.000 OA
ENDBRANCH   9  18
ENDBRANCH   1  13
BRANCH   6  19
ATOM     19  C   UNL     1       1.118  12.285  18.944  0.00  0.00    +0.000 A 
ATOM     20  N   UNL     1       2.152  13.154  19.026  0.00  0.00    +0.000 NA
ATOM     21  C   UNL     1       1.884  14.465  18.845  0.00  0.00    +0.000 A 
ATOM     22  C   UNL     1       0.618  14.973  18.632  0.00  0.00    +0.000 A 
ATOM     23  C   UNL     1      -0.450  14.083  18.576  0.00  0.00    +0.000 A 
ATOM     24  C   UNL     1      -0.220  12.713  18.696  0.00  0.00    +0.000 A 
BRANCH  24  25
ATOM     25  N   UNL     1      -1.263  11.774  18.745  0.00  0.00    +0.000 N 
ATOM     26  H   UNL     1      -1.742  11.860  19.639  0.00  0.00    +0.000 HD
BRANCH  25  27
ATOM     27  C   UNL     1      -2.118  11.459  17.612  0.00  0.00    +0.000 C 
ATOM     28  C   UNL     1      -1.863  10.033  17.111  0.00  0.00    +0.000 C 
ATOM     29  C   UNL     1      -3.567  11.553  18.105  0.00  0.00    +0.000 C 
ENDBRANCH  25  27
ENDBRANCH  24  25
ENDBRANCH   6  19
TORSDOF 5
ENDMDL
MODEL 5
REMARK VINA RESULT:      -7.3      2.683      4.737
REMARK  Name = 
REMARK  10 active torsions:
REMARK  status: ('A' for Active; 'I' for Inactive)
REMARK    1  A    between atoms: C_1  and  O_2
REMARK    2  A    between atoms: O_2  and  C_3
REMARK    3  A    between atoms: C_4  and  C_5
REMARK    4  A    between atoms: C_7  and  C_8
REMARK    5  A    between atoms: N_13  and  C_14
REMARK    6  A    between atoms: C_19  and  N_20
REMARK    7  A    between atoms: N_20  and  C_21
REMARK    8  A    between atoms: C_21  and  C_22
REMARK    9  A    between atoms: C_21  and  C_23
REMARK   10  A    between atoms: C_27  and  C_28
REMARK                            x       y       z     vdW  Elec       q    Type
REMARK                         _______ _______ _______ _____ _____    ______ ____
ROOT
ATOM      1  C   UNL     1       1.823   6.191  20.327  0.00  0.00    +0.000 C 
ATOM      2  O   UNL     1       1.145   5.359  20.928  0.00  0.00    +0.000 OA
ATOM      3  N   UNL     1       2.847   5.830  19.465  0.00  0.00    +0.000 N 
ATOM      4  C   UNL     1       2.946   4.423  19.029  0.00  0.00    +0.000 C 
ATOM      5  C   UNL     1       3.128   4.314  17.495  0.00  0.00    +0.000 C 
ATOM      6  N   UNL     1       4.244   5.180  17.119  0.00  0.00    +0.000 N 
ATOM      7  C   UNL     1       4.062   6.594  17.461  0.00  0.00    +0.000 C 
ATOM      8  C   UNL     1       3.959   6.680  18.994  0.00  0.00    +0.000 C 
ENDROOT
BRANCH   1  13
ATOM      9  C   UNL     1       0.567  10.285  20.887  0.00  0.00    +0.000 A 
ATOM     10  C   UNL     1       0.449   9.353  21.937  0.00  0.00    +0.000 A 
ATOM     11  C   UNL     1      -0.178   9.578  23.283  0.00  0.00    +0.000 C 
ATOM     12  C   UNL     1       0.954   8.044  21.737  0.00  0.00    +0.000 A 
ATOM     13  C   UNL     1       1.458   7.624  20.505  0.00  0.00    +0.000 A 
ATOM     14  C   UNL     1       1.466   8.527  19.449  0.00  0.00    +0.000 A 
ATOM     15  C   UNL     1       1.103   9.864  19.647  0.00  0.00    +0.000 A 
ATOM     16  C   UNL     1       1.290  10.826  18.500  0.00  0.00    +0.000 C 
BRANCH   9  18
ATOM     17  C   UNL     1      -1.173  11.972  20.778  0.00  0.00    +0.000 C 
ATOM     18  O   UNL     1       0.185  11.596  20.855  0.00  0.00    +0.000 OA
ENDBRANCH   9  18
ENDBRANCH   1  13
BRANCH   6  19
ATOM     19  C   UNL     1       5.104   4.827  16.095  0.00  0.00    +0.000 A 
ATOM     20  N   UNL     1       4.594   4.691  14.849  0.00  0.00    +0.000 NA
ATOM     21  C   UNL     1       5.435   4.299  13.867  0.00  0.00    +0.000 A 
ATOM     22  C   UNL     1       6.765   3.983  14.069  0.00  0.00    +0.000 A 
ATOM     23  C   UNL     1       7.283   4.097  15.354  0.00  0.00    +0.000 A 
ATOM     24  C   UNL     1       6.472   4.554  16.393  0.00  0.00    +0.000 A 
BRANCH  24  25
ATOM     25  N   UNL     1       6.908   4.598  17.728  0.00  0.00    +0.000 N 
ATOM     26  H   UNL     1       7.057   3.646  18.057  0.00  0.00    +0.000 HD
BRANCH  25  27
ATOM     27  C   UNL     1       7.845   5.584  18.238  0.00  0.00    +0.000 C 
ATOM     28  C   UNL     1       7.549   6.974  17.664  0.00  0.00    +0.000 C 
ATOM     29  C   UNL     1       7.660   5.633  19.759  0.00  0.00    +0.000 C 
ENDBRANCH  25  27
ENDBRANCH  24  25
ENDBRANCH   6  19
TORSDOF 5
ENDMDL
MODEL 6
REMARK VINA RESULT:      -7.2      2.701      5.004
REMARK  Name = 
REMARK  10 active torsions:
REMARK  status: ('A' for Active; 'I' for Inactive)
REMARK    1  A    between atoms: C_1  and  O_2
REMARK    2  A    between atoms: O_2  and  C_3
REMARK    3  A    between atoms: C_4  and  C_5
REMARK    4  A    between atoms: C_7  and  C_8
REMARK    5  A    between atoms: N_13  and  C_14
REMARK    6  A    between atoms: C_19  and  N_20
REMARK    7  A    between atoms: N_20  and  C_21
REMARK    8  A    between atoms: C_21  and  C_22
REMARK    9  A    between atoms: C_21  and  C_23
REMARK   10  A    between atoms: C_27  and  C_28
REMARK                            x       y       z     vdW  Elec       q    Type
REMARK                         _______ _______ _______ _____ _____    ______ ____
ROOT
ATOM      1  C   UNL     1       1.935   5.962  20.350  0.00  0.00    +0.000 C 
ATOM      2  O   UNL     1       1.377   5.089  21.013  0.00  0.00    +0.000 OA
ATOM      3  N   UNL     1       2.955   5.675  19.456  0.00  0.00    +0.000 N 
ATOM      4  C   UNL     1       3.187   4.269  19.070  0.00  0.00    +0.000 C 
ATOM      5  C   UNL     1       3.315   4.115  17.534  0.00  0.00    +0.000 C 
ATOM      6  N   UNL     1       4.314   5.077  17.074  0.00  0.00    +0.000 N 
ATOM      7  C   UNL     1       3.995   6.477  17.370  0.00  0.00    +0.000 C 
ATOM      8  C   UNL     1       3.948   6.618  18.902  0.00  0.00    +0.000 C 
ENDROOT
BRANCH   1  13
ATOM      9  C   UNL     1       0.655  10.070  20.717  0.00  0.00    +0.000 A 
ATOM     10  C   UNL     1       1.210   9.601  19.511  0.00  0.00    +0.000 A 
ATOM     11  C   UNL     1       1.523  10.408  18.283  0.00  0.00    +0.000 C 
ATOM     12  C   UNL     1       1.536   8.226  19.407  0.00  0.00    +0.000 A 
ATOM     13  C   UNL     1       1.426   7.355  20.491  0.00  0.00    +0.000 A 
ATOM     14  C   UNL     1       0.978   7.859  21.705  0.00  0.00    +0.000 A 
ATOM     15  C   UNL     1       0.520   9.178  21.808  0.00  0.00    +0.000 A 
ATOM     16  C   UNL     1      -0.104   9.611  23.111  0.00  0.00    +0.000 C 
BRANCH   9  18
ATOM     17  C   UNL     1      -0.919  11.900  20.471  0.00  0.00    +0.000 C 
ATOM     18  O   UNL     1       0.240  11.331  21.040  0.00  0.00    +0.000 OA
ENDBRANCH   9  18
ENDBRANCH   1  13
BRANCH   6  19
ATOM     19  C   UNL     1       5.163   4.774  16.025  0.00  0.00    +0.000 A 
ATOM     20  N   UNL     1       4.636   4.674  14.783  0.00  0.00    +0.000 NA
ATOM     21  C   UNL     1       5.468   4.330  13.775  0.00  0.00    +0.000 A 
ATOM     22  C   UNL     1       6.805   4.029  13.945  0.00  0.00    +0.000 A 
ATOM     23  C   UNL     1       7.341   4.105  15.226  0.00  0.00    +0.000 A 
ATOM     24  C   UNL     1       6.540   4.513  16.292  0.00  0.00    +0.000 A 
BRANCH  24  25
ATOM     25  N   UNL     1       6.995   4.516  17.621  0.00  0.00    +0.000 N 
ATOM     26  H   UNL     1       7.267   3.569  17.879  0.00  0.00    +0.000 HD
BRANCH  25  27
ATOM     27  C   UNL     1       7.816   5.572  18.189  0.00  0.00    +0.000 C 
ATOM     28  C   UNL     1       7.491   6.926  17.550  0.00  0.00    +0.000 C 
ATOM     29  C   UNL     1       7.481   5.644  19.684  0.00  0.00    +0.000 C 
ENDBRANCH  25  27
ENDBRANCH  24  25
ENDBRANCH   6  19
TORSDOF 5
ENDMDL
MODEL 7
REMARK VINA RESULT:      -7.2      0.182      1.662
REMARK  Name = 
REMARK  10 active torsions:
REMARK  status: ('A' for Active; 'I' for Inactive)
REMARK    1  A    between atoms: C_1  and  O_2
REMARK    2  A    between atoms: O_2  and  C_3
REMARK    3  A    between atoms: C_4  and  C_5
REMARK    4  A    between atoms: C_7  and  C_8
REMARK    5  A    between atoms: N_13  and  C_14
REMARK    6  A    between atoms: C_19  and  N_20
REMARK    7  A    between atoms: N_20  and  C_21
REMARK    8  A    between atoms: C_21  and  C_22
REMARK    9  A    between atoms: C_21  and  C_23
REMARK   10  A    between atoms: C_27  and  C_28
REMARK                            x       y       z     vdW  Elec       q    Type
REMARK                         _______ _______ _______ _____ _____    ______ ____
ROOT
ATOM      1  C   UNL     1      -0.024  10.067  20.475  0.00  0.00    +0.000 C 
ATOM      2  O   UNL     1      -0.012  10.221  21.696  0.00  0.00    +0.000 OA
ATOM      3  N   UNL     1       0.990   9.401  19.804  0.00  0.00    +0.000 N 
ATOM      4  C   UNL     1       1.959   8.607  20.585  0.00  0.00    +0.000 C 
ATOM      5  C   UNL     1       2.157   7.196  19.978  0.00  0.00    +0.000 C 
ATOM      6  N   UNL     1       2.465   7.363  18.559  0.00  0.00    +0.000 N 
ATOM      7  C   UNL     1       1.427   8.053  17.787  0.00  0.00    +0.000 C 
ATOM      8  C   UNL     1       1.304   9.475  18.361  0.00  0.00    +0.000 C 
ENDROOT
BRANCH   1  13
ATOM      9  C   UNL     1      -3.350  11.578  18.172  0.00  0.00    +0.000 A 
ATOM     10  C   UNL     1      -2.545  10.538  17.666  0.00  0.00    +0.000 A 
ATOM     11  C   UNL     1      -2.633   9.903  16.307  0.00  0.00    +0.000 C 
ATOM     12  C   UNL     1      -1.520  10.015  18.491  0.00  0.00    +0.000 A 
ATOM     13  C   UNL     1      -1.216  10.568  19.736  0.00  0.00    +0.000 A 
ATOM     14  C   UNL     1      -1.951  11.663  20.173  0.00  0.00    +0.000 A 
ATOM     15  C   UNL     1      -3.057  12.120  19.446  0.00  0.00    +0.000 A 
ATOM     16  C   UNL     1      -3.906  13.205  20.058  0.00  0.00    +0.000 C 
BRANCH   9  18
ATOM     17  C   UNL     1      -5.665  11.597  17.450  0.00  0.00    +0.000 C 
ATOM     18  O   UNL     1      -4.404  12.215  17.581  0.00  0.00    +0.000 OA
ENDBRANCH   9  18
ENDBRANCH   1  13
BRANCH   6  19
ATOM     19  C   UNL     1       3.346   6.511  17.918  0.00  0.00    +0.000 A 
ATOM     20  N   UNL     1       4.399   7.053  17.263  0.00  0.00    +0.000 NA
ATOM     21  C   UNL     1       5.224   6.213  16.601  0.00  0.00    +0.000 A 
ATOM     22  C   UNL     1       5.030   4.849  16.512  0.00  0.00    +0.000 A 
ATOM     23  C   UNL     1       3.932   4.295  17.162  0.00  0.00    +0.000 A 
ATOM     24  C   UNL     1       3.082   5.109  17.909  0.00  0.00    +0.000 A 
BRANCH  24  25
ATOM     25  N   UNL     1       1.906   4.627  18.507  0.00  0.00    +0.000 N 
ATOM     26  H   UNL     1       1.140   4.713  17.842  0.00  0.00    +0.000 HD
BRANCH  25  27
ATOM     27  C   UNL     1       1.858   3.449  19.357  0.00  0.00    +0.000 C 
ATOM     28  C   UNL     1       1.200   3.769  20.704  0.00  0.00    +0.000 C 
ATOM     29  C   UNL     1       1.002   2.406  18.630  0.00  0.00    +0.000 C 
ENDBRANCH  25  27
ENDBRANCH  24  25
ENDBRANCH   6  19
TORSDOF 5
ENDMDL
MODEL 8
REMARK VINA RESULT:      -6.9      2.945      8.424
REMARK  Name = 
REMARK  10 active torsions:
REMARK  status: ('A' for Active; 'I' for Inactive)
REMARK    1  A    between atoms: C_1  and  O_2
REMARK    2  A    between atoms: O_2  and  C_3
REMARK    3  A    between atoms: C_4  and  C_5
REMARK    4  A    between atoms: C_7  and  C_8
REMARK    5  A    between atoms: N_13  and  C_14
REMARK    6  A    between atoms: C_19  and  N_20
REMARK    7  A    between atoms: N_20  and  C_21
REMARK    8  A    between atoms: C_21  and  C_22
REMARK    9  A    between atoms: C_21  and  C_23
REMARK   10  A    between atoms: C_27  and  C_28
REMARK                            x       y       z     vdW  Elec       q    Type
REMARK                         _______ _______ _______ _____ _____    ______ ____
ROOT
ATOM      1  C   UNL     1       2.960   6.157  19.138  0.00  0.00    +0.000 C 
ATOM      2  O   UNL     1       2.700   5.386  20.061  0.00  0.00    +0.000 OA
ATOM      3  N   UNL     1       2.236   7.319  18.918  0.00  0.00    +0.000 N 
ATOM      4  C   UNL     1       1.323   7.798  19.974  0.00  0.00    +0.000 C 
ATOM      5  C   UNL     1       1.523   9.308  20.256  0.00  0.00    +0.000 C 
ATOM      6  N   UNL     1       1.445  10.011  18.977  0.00  0.00    +0.000 N 
ATOM      7  C   UNL     1       2.444   9.592  17.989  0.00  0.00    +0.000 C 
ATOM      8  C   UNL     1       2.175   8.111  17.672  0.00  0.00    +0.000 C 
ENDROOT
BRANCH   1  13
ATOM      9  C   UNL     1       6.351   5.398  16.575  0.00  0.00    +0.000 A 
ATOM     10  C   UNL     1       6.335   6.523  17.422  0.00  0.00    +0.000 A 
ATOM     11  C   UNL     1       7.361   7.618  17.495  0.00  0.00    +0.000 C 
ATOM     12  C   UNL     1       5.242   6.686  18.308  0.00  0.00    +0.000 A 
ATOM     13  C   UNL     1       4.139   5.831  18.288  0.00  0.00    +0.000 A 
ATOM     14  C   UNL     1       4.124   4.788  17.370  0.00  0.00    +0.000 A 
ATOM     15  C   UNL     1       5.243   4.517  16.575  0.00  0.00    +0.000 A 
ATOM     16  C   UNL     1       5.221   3.275  15.721  0.00  0.00    +0.000 C 
BRANCH   9  18
ATOM     17  C   UNL     1       7.180   5.326  14.296  0.00  0.00    +0.000 C 
ATOM     18  O   UNL     1       7.300   5.018  15.668  0.00  0.00    +0.000 OA
ENDBRANCH   9  18
ENDBRANCH   1  13
BRANCH   6  19
ATOM     19  C   UNL     1       0.882  11.271  18.892  0.00  0.00    +0.000 A 
ATOM     20  N   UNL     1       1.494  12.292  19.536  0.00  0.00    +0.000 NA
ATOM     21  C   UNL     1       0.907  13.508  19.484  0.00  0.00    +0.000 A 
ATOM     22  C   UNL     1      -0.298  13.758  18.857  0.00  0.00    +0.000 A 
ATOM     23  C   UNL     1      -0.941  12.703  18.218  0.00  0.00    +0.000 A 
ATOM     24  C   UNL     1      -0.349  11.441  18.191  0.00  0.00    +0.000 A 
BRANCH  24  25
ATOM     25  N   UNL     1      -0.992  10.317  17.647  0.00  0.00    +0.000 N 
ATOM     26  H   UNL     1      -0.791   9.508  18.232  0.00  0.00    +0.000 HD
BRANCH  25  27
ATOM     27  C   UNL     1      -2.326  10.351  17.072  0.00  0.00    +0.000 C 
ATOM     28  C   UNL     1      -2.347   9.692  15.688  0.00  0.00    +0.000 C 
ATOM     29  C   UNL     1      -3.237   9.548  18.009  0.00  0.00    +0.000 C 
ENDBRANCH  25  27
ENDBRANCH  24  25
ENDBRANCH   6  19
TORSDOF 5
ENDMDL
MODEL 9
REMARK VINA RESULT:      -6.9      3.120      5.237
REMARK  Name = 
REMARK  10 active torsions:
REMARK  status: ('A' for Active; 'I' for Inactive)
REMARK    1  A    between atoms: C_1  and  O_2
REMARK    2  A    between atoms: O_2  and  C_3
REMARK    3  A    between atoms: C_4  and  C_5
REMARK    4  A    between atoms: C_7  and  C_8
REMARK    5  A    between atoms: N_13  and  C_14
REMARK    6  A    between atoms: C_19  and  N_20
REMARK    7  A    between atoms: N_20  and  C_21
REMARK    8  A    between atoms: C_21  and  C_22
REMARK    9  A    between atoms: C_21  and  C_23
REMARK   10  A    between atoms: C_27  and  C_28
REMARK                            x       y       z     vdW  Elec       q    Type
REMARK                         _______ _______ _______ _____ _____    ______ ____
ROOT
ATOM      1  C   UNL     1       2.489   6.005  20.053  0.00  0.00    +0.000 C 
ATOM      2  O   UNL     1       2.158   5.119  20.840  0.00  0.00    +0.000 OA
ATOM      3  N   UNL     1       3.449   5.803  19.073  0.00  0.00    +0.000 N 
ATOM      4  C   UNL     1       3.877   4.423  18.771  0.00  0.00    +0.000 C 
ATOM      5  C   UNL     1       3.875   4.148  17.246  0.00  0.00    +0.000 C 
ATOM      6  N   UNL     1       4.645   5.211  16.604  0.00  0.00    +0.000 N 
ATOM      7  C   UNL     1       4.123   6.563  16.827  0.00  0.00    +0.000 C 
ATOM      8  C   UNL     1       4.207   6.837  18.339  0.00  0.00    +0.000 C 
ENDROOT
BRANCH   1  13
ATOM      9  C   UNL     1       0.581   9.871  20.298  0.00  0.00    +0.000 A 
ATOM     10  C   UNL     1       1.311   9.507  19.149  0.00  0.00    +0.000 A 
ATOM     11  C   UNL     1       1.615  10.369  17.957  0.00  0.00    +0.000 C 
ATOM     12  C   UNL     1       1.847   8.198  19.076  0.00  0.00    +0.000 A 
ATOM     13  C   UNL     1       1.767   7.304  20.145  0.00  0.00    +0.000 A 
ATOM     14  C   UNL     1       1.136   7.719  21.311  0.00  0.00    +0.000 A 
ATOM     15  C   UNL     1       0.479   8.953  21.370  0.00  0.00    +0.000 A 
ATOM     16  C   UNL     1      -0.322   9.270  22.608  0.00  0.00    +0.000 C 
BRANCH   9  18
ATOM     17  C   UNL     1       0.681  12.235  20.829  0.00  0.00    +0.000 C 
ATOM     18  O   UNL     1      -0.045  11.052  20.579  0.00  0.00    +0.000 OA
ENDBRANCH   9  18
ENDBRANCH   1  13
BRANCH   6  19
ATOM     19  C   UNL     1       5.424   4.951  15.491  0.00  0.00    +0.000 A 
ATOM     20  N   UNL     1       4.925   4.133  14.536  0.00  0.00    +0.000 NA
ATOM     21  C   UNL     1       5.715   3.850  13.477  0.00  0.00    +0.000 A 
ATOM     22  C   UNL     1       7.012   4.304  13.338  0.00  0.00    +0.000 A 
ATOM     23  C   UNL     1       7.535   5.123  14.332  0.00  0.00    +0.000 A 
ATOM     24  C   UNL     1       6.741   5.494  15.417  0.00  0.00    +0.000 A 
BRANCH  24  25
ATOM     25  N   UNL     1       7.241   6.238  16.499  0.00  0.00    +0.000 N 
ATOM     26  H   UNL     1       6.924   7.201  16.411  0.00  0.00    +0.000 HD
BRANCH  25  27
ATOM     27  C   UNL     1       7.314   5.732  17.859  0.00  0.00    +0.000 C 
ATOM     28  C   UNL     1       8.042   4.385  17.907  0.00  0.00    +0.000 C 
ATOM     29  C   UNL     1       8.118   6.752  18.674  0.00  0.00    +0.000 C 
ENDBRANCH  25  27
ENDBRANCH  24  25
ENDBRANCH   6  19
TORSDOF 5
ENDMDL
