MODEL 1
REMARK VINA RESULT:      -8.2      0.000      0.000
REMARK  Name = 
REMARK  4 active torsions:
REMARK  status: ('A' for Active; 'I' for Inactive)
REMARK    1  A    between atoms: N_1  and  C_2
REMARK    2  A    between atoms: C_2  and  C_3
REMARK    3  A    between atoms: C_6  and  N_7
REMARK    4  A    between atoms: C_13  and  C_14
REMARK                            x       y       z     vdW  Elec       q    Type
REMARK                         _______ _______ _______ _____ _____    ______ ____
ROOT
ATOM      1  N   UNL     1       0.352  10.856  20.615  0.00  0.00    +0.000 N 
ATOM      2  C   UNL     1       1.321  11.575  19.980  0.00  0.00    +0.000 A 
ATOM      3  N   UNL     1       1.156  11.296  18.740  0.00  0.00    +0.000 NA
ATOM      4  C   UNL     1       1.213   9.954  18.920  0.00  0.00    +0.000 A 
ATOM      5  C   UNL     1       1.852   9.231  17.859  0.00  0.00    +0.000 A 
ATOM      6  C   UNL     1       2.425   7.980  17.922  0.00  0.00    +0.000 A 
ATOM      7  C   UNL     1       2.284   7.278  19.080  0.00  0.00    +0.000 A 
ATOM      8  C   UNL     1       1.382   7.992  20.097  0.00  0.00    +0.000 A 
ATOM      9  C   UNL     1       0.839   9.447  20.382  0.00  0.00    +0.000 A 
ENDROOT
BRANCH   7  10
ATOM     10  C   UNL     1       3.149   5.941  19.131  0.00  0.00    +0.000 A 
ATOM     11  C   UNL     1       4.548   5.859  18.729  0.00  0.00    +0.000 A 
ATOM     12  C   UNL     1       5.357   4.720  18.957  0.00  0.00    +0.000 A 
ATOM     13  N   UNL     1       4.952   3.595  19.559  0.00  0.00    +0.000 NA
ATOM     14  C   UNL     1       3.690   3.694  20.000  0.00  0.00    +0.000 A 
ATOM     15  N   UNL     1       3.113   2.689  20.731  0.00  0.00    +0.000 N 
ATOM     16  C   UNL     1       1.879   3.097  21.146  0.00  0.00    +0.000 A 
ATOM     17  C   UNL     1       1.665   4.366  20.645  0.00  0.00    +0.000 A 
ATOM     18  C   UNL     1       2.781   4.766  19.859  0.00  0.00    +0.000 A 
ATOM     19  H   UNL     1       3.570   1.812  20.953  0.00  0.00    +0.000 HD
ENDBRANCH   7  10
BRANCH   1  23
ATOM     20  C   UNL     1      -1.792  13.670  23.474  0.00  0.00    +0.000 A 
ATOM     21  C   UNL     1      -2.109  12.309  23.461  0.00  0.00    +0.000 A 
ATOM     22  C   UNL     1      -1.332  11.367  22.650  0.00  0.00    +0.000 A 
ATOM     23  C   UNL     1      -0.199  11.753  21.793  0.00  0.00    +0.000 A 
ATOM     24  C   UNL     1       0.057  13.111  21.833  0.00  0.00    +0.000 A 
ATOM     25  C   UNL     1      -0.739  14.032  22.614  0.00  0.00    +0.000 A 
BRANCH  20  26
ATOM     26  C   UNL     1      -2.437  14.732  24.380  0.00  0.00    +0.000 C 
BRANCH  26  27
ATOM     27  N   UNL     1      -3.653  14.215  25.012  0.00  0.00    +0.000 NA
ATOM     28  H   UNL     1      -3.438  13.803  25.921  0.00  0.00    +0.000 HD
ATOM     29  H   UNL     1      -4.010  13.453  24.438  0.00  0.00    +0.000 HD
ENDBRANCH  26  27
ENDBRANCH  20  26
ENDBRANCH   1  23
TORSDOF 4
ENDMDL
MODEL 2
REMARK VINA RESULT:      -8.0      0.718      2.013
REMARK  Name = 
REMARK  4 active torsions:
REMARK  status: ('A' for Active; 'I' for Inactive)
REMARK    1  A    between atoms: N_1  and  C_2
REMARK    2  A    between atoms: C_2  and  C_3
REMARK    3  A    between atoms: C_6  and  N_7
REMARK    4  A    between atoms: C_13  and  C_14
REMARK                            x       y       z     vdW  Elec       q    Type
REMARK                         _______ _______ _______ _____ _____    ______ ____
ROOT
ATOM      1  N   UNL     1       0.346  10.548  20.681  0.00  0.00    +0.000 N 
ATOM      2  C   UNL     1       1.282  11.230  19.961  0.00  0.00    +0.000 A 
ATOM      3  N   UNL     1       1.108  10.825  18.757  0.00  0.00    +0.000 NA
ATOM      4  C   UNL     1       1.210   9.509  19.066  0.00  0.00    +0.000 A 
ATOM      5  C   UNL     1       1.856   8.705  18.071  0.00  0.00    +0.000 A 
ATOM      6  C   UNL     1       2.469   7.485  18.246  0.00  0.00    +0.000 A 
ATOM      7  C   UNL     1       2.368   6.896  19.469  0.00  0.00    +0.000 A 
ATOM      8  C   UNL     1       1.459   7.680  20.428  0.00  0.00    +0.000 A 
ATOM      9  C   UNL     1       0.874   9.139  20.578  0.00  0.00    +0.000 A 
ENDROOT
BRANCH   7  10
ATOM     10  C   UNL     1       3.276   5.597  19.636  0.00  0.00    +0.000 A 
ATOM     11  C   UNL     1       2.800   4.336  20.189  0.00  0.00    +0.000 A 
ATOM     12  C   UNL     1       3.554   3.139  20.156  0.00  0.00    +0.000 A 
ATOM     13  N   UNL     1       4.776   3.011  19.623  0.00  0.00    +0.000 NA
ATOM     14  C   UNL     1       5.185   4.148  19.044  0.00  0.00    +0.000 A 
ATOM     15  N   UNL     1       6.368   4.207  18.354  0.00  0.00    +0.000 N 
ATOM     16  C   UNL     1       6.481   5.437  17.775  0.00  0.00    +0.000 A 
ATOM     17  C   UNL     1       5.366   6.173  18.128  0.00  0.00    +0.000 A 
ATOM     18  C   UNL     1       4.535   5.401  18.987  0.00  0.00    +0.000 A 
ATOM     19  H   UNL     1       7.014   3.432  18.265  0.00  0.00    +0.000 HD
ENDBRANCH   7  10
BRANCH   1  23
ATOM     20  C   UNL     1      -1.822  13.592  23.274  0.00  0.00    +0.000 A 
ATOM     21  C   UNL     1      -2.143  12.235  23.369  0.00  0.00    +0.000 A 
ATOM     22  C   UNL     1      -1.360  11.229  22.647  0.00  0.00    +0.000 A 
ATOM     23  C   UNL     1      -0.216  11.540  21.775  0.00  0.00    +0.000 A 
ATOM     24  C   UNL     1       0.045  12.896  21.706  0.00  0.00    +0.000 A 
ATOM     25  C   UNL     1      -0.758  13.880  22.399  0.00  0.00    +0.000 A 
BRANCH  20  26
ATOM     26  C   UNL     1      -2.474  14.727  24.082  0.00  0.00    +0.000 C 
BRANCH  26  27
ATOM     27  N   UNL     1      -3.347  14.191  25.128  0.00  0.00    +0.000 NA
ATOM     28  H   UNL     1      -3.428  14.851  25.903  0.00  0.00    +0.000 HD
ATOM     29  H   UNL     1      -2.905  13.359  25.516  0.00  0.00    +0.000 HD
ENDBRANCH  26  27
ENDBRANCH  20  26
ENDBRANCH   1  23
TORSDOF 4
ENDMDL
MODEL 3
REMARK VINA RESULT:      -8.0      0.986      1.003
REMARK  Name = 
REMARK  4 active torsions:
REMARK  status: ('A' for Active; 'I' for Inactive)
REMARK    1  A    between atoms: N_1  and  C_2
REMARK    2  A    between atoms: C_2  and  C_3
REMARK    3  A    between atoms: C_6  and  N_7
REMARK    4  A    between atoms: C_13  and  C_14
REMARK                            x       y       z     vdW  Elec       q    Type
REMARK                         _______ _______ _______ _____ _____    ______ ____
ROOT
ATOM      1  N   UNL     1       0.074  10.788  20.159  0.00  0.00    +0.000 N 
ATOM      2  C   UNL     1       1.175  11.545  19.888  0.00  0.00    +0.000 A 
ATOM      3  N   UNL     1       1.350  11.404  18.626  0.00  0.00    +0.000 NA
ATOM      4  C   UNL     1       1.362  10.049  18.667  0.00  0.00    +0.000 A 
ATOM      5  C   UNL     1       2.264   9.427  17.743  0.00  0.00    +0.000 A 
ATOM      6  C   UNL     1       2.804   8.162  17.820  0.00  0.00    +0.000 A 
ATOM      7  C   UNL     1       2.360   7.345  18.814  0.00  0.00    +0.000 A 
ATOM      8  C   UNL     1       1.215   7.970  19.625  0.00  0.00    +0.000 A 
ATOM      9  C   UNL     1       0.610   9.400  19.911  0.00  0.00    +0.000 A 
ENDROOT
BRANCH   7  10
ATOM     10  C   UNL     1       3.184   5.988  18.947  0.00  0.00    +0.000 A 
ATOM     11  C   UNL     1       4.578   5.838  18.549  0.00  0.00    +0.000 A 
ATOM     12  C   UNL     1       5.353   4.692  18.847  0.00  0.00    +0.000 A 
ATOM     13  N   UNL     1       4.917   3.619  19.520  0.00  0.00    +0.000 NA
ATOM     14  C   UNL     1       3.660   3.784  19.955  0.00  0.00    +0.000 A 
ATOM     15  N   UNL     1       3.055   2.845  20.748  0.00  0.00    +0.000 N 
ATOM     16  C   UNL     1       1.835   3.315  21.138  0.00  0.00    +0.000 A 
ATOM     17  C   UNL     1       1.658   4.557  20.559  0.00  0.00    +0.000 A 
ATOM     18  C   UNL     1       2.783   4.872  19.748  0.00  0.00    +0.000 A 
ATOM     19  H   UNL     1       3.485   1.970  21.024  0.00  0.00    +0.000 HD
ENDBRANCH   7  10
BRANCH   1  23
ATOM     20  C   UNL     1      -2.974  12.550  23.039  0.00  0.00    +0.000 A 
ATOM     21  C   UNL     1      -2.102  11.546  23.469  0.00  0.00    +0.000 A 
ATOM     22  C   UNL     1      -1.024  11.069  22.599  0.00  0.00    +0.000 A 
ATOM     23  C   UNL     1      -0.777  11.569  21.237  0.00  0.00    +0.000 A 
ATOM     24  C   UNL     1      -1.679  12.547  20.860  0.00  0.00    +0.000 A 
ATOM     25  C   UNL     1      -2.758  12.984  21.718  0.00  0.00    +0.000 A 
BRANCH  20  26
ATOM     26  C   UNL     1      -4.053  13.230  23.899  0.00  0.00    +0.000 C 
BRANCH  26  27
ATOM     27  N   UNL     1      -4.647  12.281  24.842  0.00  0.00    +0.000 NA
ATOM     28  H   UNL     1      -5.406  12.720  25.366  0.00  0.00    +0.000 HD
ATOM     29  H   UNL     1      -3.940  12.032  25.531  0.00  0.00    +0.000 HD
ENDBRANCH  26  27
ENDBRANCH  20  26
ENDBRANCH   1  23
TORSDOF 4
ENDMDL
MODEL 4
REMARK VINA RESULT:      -7.8      2.146      9.279
REMARK  Name = 
REMARK  4 active torsions:
REMARK  status: ('A' for Active; 'I' for Inactive)
REMARK    1  A    between atoms: N_1  and  C_2
REMARK    2  A    between atoms: C_2  and  C_3
REMARK    3  A    between atoms: C_6  and  N_7
REMARK    4  A    between atoms: C_13  and  C_14
REMARK                            x       y       z     vdW  Elec       q    Type
REMARK                         _______ _______ _______ _____ _____    ______ ____
ROOT
ATOM      1  N   UNL     1       1.743   8.976  19.078  0.00  0.00    +0.000 N 
ATOM      2  C   UNL     1       1.726   9.537  17.835  0.00  0.00    +0.000 A 
ATOM      3  N   UNL     1       2.094  10.749  18.035  0.00  0.00    +0.000 NA
ATOM      4  C   UNL     1       1.157  10.996  18.983  0.00  0.00    +0.000 A 
ATOM      5  C   UNL     1       0.622  12.326  18.970  0.00  0.00    +0.000 A 
ATOM      6  C   UNL     1      -0.581  12.751  19.488  0.00  0.00    +0.000 A 
ATOM      7  C   UNL     1      -1.315  11.854  20.200  0.00  0.00    +0.000 A 
ATOM      8  C   UNL     1      -0.585  10.517  20.396  0.00  0.00    +0.000 A 
ATOM      9  C   UNL     1       0.604   9.710  19.742  0.00  0.00    +0.000 A 
ENDROOT
BRANCH   7  10
ATOM     10  C   UNL     1      -2.773  12.372  20.580  0.00  0.00    +0.000 A 
ATOM     11  C   UNL     1      -3.865  12.507  19.625  0.00  0.00    +0.000 A 
ATOM     12  C   UNL     1      -5.201  12.783  20.004  0.00  0.00    +0.000 A 
ATOM     13  N   UNL     1      -5.626  12.952  21.262  0.00  0.00    +0.000 NA
ATOM     14  C   UNL     1      -4.641  12.752  22.149  0.00  0.00    +0.000 A 
ATOM     15  N   UNL     1      -4.885  12.781  23.497  0.00  0.00    +0.000 N 
ATOM     16  C   UNL     1      -3.744  12.434  24.160  0.00  0.00    +0.000 A 
ATOM     17  C   UNL     1      -2.760  12.211  23.216  0.00  0.00    +0.000 A 
ATOM     18  C   UNL     1      -3.280  12.457  21.915  0.00  0.00    +0.000 A 
ATOM     19  H   UNL     1      -5.788  12.984  23.909  0.00  0.00    +0.000 HD
ENDBRANCH   7  10
BRANCH   1  23
ATOM     20  C   UNL     1       3.951   5.000  19.003  0.00  0.00    +0.000 A 
ATOM     21  C   UNL     1       3.027   5.269  20.016  0.00  0.00    +0.000 A 
ATOM     22  C   UNL     1       2.205   6.482  19.976  0.00  0.00    +0.000 A 
ATOM     23  C   UNL     1       2.285   7.500  18.916  0.00  0.00    +0.000 A 
ATOM     24  C   UNL     1       3.226   7.190  17.952  0.00  0.00    +0.000 A 
ATOM     25  C   UNL     1       4.051   6.005  18.023  0.00  0.00    +0.000 A 
BRANCH  20  26
ATOM     26  C   UNL     1       4.770   3.707  18.857  0.00  0.00    +0.000 C 
BRANCH  26  27
ATOM     27  N   UNL     1       6.176   4.004  18.579  0.00  0.00    +0.000 NA
ATOM     28  H   UNL     1       6.301   4.276  17.602  0.00  0.00    +0.000 HD
ATOM     29  H   UNL     1       6.713   3.147  18.701  0.00  0.00    +0.000 HD
ENDBRANCH  26  27
ENDBRANCH  20  26
ENDBRANCH   1  23
TORSDOF 4
ENDMDL
MODEL 5
REMARK VINA RESULT:      -7.8      2.936      9.880
REMARK  Name = 
REMARK  4 active torsions:
REMARK  status: ('A' for Active; 'I' for Inactive)
REMARK    1  A    between atoms: N_1  and  C_2
REMARK    2  A    between atoms: C_2  and  C_3
REMARK    3  A    between atoms: C_6  and  N_7
REMARK    4  A    between atoms: C_13  and  C_14
REMARK                            x       y       z     vdW  Elec       q    Type
REMARK                         _______ _______ _______ _____ _____    ______ ____
ROOT
ATOM      1  N   UNL     1       4.213   4.716  17.831  0.00  0.00    +0.000 N 
ATOM      2  C   UNL     1       4.817   4.351  18.998  0.00  0.00    +0.000 A 
ATOM      3  N   UNL     1       3.892   3.754  19.656  0.00  0.00    +0.000 NA
ATOM      4  C   UNL     1       3.008   4.777  19.556  0.00  0.00    +0.000 A 
ATOM      5  C   UNL     1       2.177   4.969  20.709  0.00  0.00    +0.000 A 
ATOM      6  C   UNL     1       1.513   6.116  21.083  0.00  0.00    +0.000 A 
ATOM      7  C   UNL     1       1.536   7.169  20.221  0.00  0.00    +0.000 A 
ATOM      8  C   UNL     1       2.229   6.830  18.893  0.00  0.00    +0.000 A 
ATOM      9  C   UNL     1       3.240   5.758  18.324  0.00  0.00    +0.000 A 
ENDROOT
BRANCH   7  10
ATOM     10  C   UNL     1       0.921   8.509  20.825  0.00  0.00    +0.000 A 
ATOM     11  C   UNL     1       0.609   8.699  22.236  0.00  0.00    +0.000 A 
ATOM     12  C   UNL     1       0.245   9.949  22.791  0.00  0.00    +0.000 A 
ATOM     13  N   UNL     1       0.145  11.096  22.107  0.00  0.00    +0.000 NA
ATOM     14  C   UNL     1       0.506  10.943  20.826  0.00  0.00    +0.000 A 
ATOM     15  N   UNL     1       0.568  12.014  19.973  0.00  0.00    +0.000 N 
ATOM     16  C   UNL     1       1.071  11.598  18.776  0.00  0.00    +0.000 A 
ATOM     17  C   UNL     1       1.302  10.239  18.867  0.00  0.00    +0.000 A 
ATOM     18  C   UNL     1       0.902   9.769  20.148  0.00  0.00    +0.000 A 
ATOM     19  H   UNL     1       0.319  12.962  20.231  0.00  0.00    +0.000 HD
ENDBRANCH   7  10
BRANCH   1  23
ATOM     20  C   UNL     1       7.050   4.885  14.280  0.00  0.00    +0.000 A 
ATOM     21  C   UNL     1       7.506   5.219  15.558  0.00  0.00    +0.000 A 
ATOM     22  C   UNL     1       6.647   5.035  16.731  0.00  0.00    +0.000 A 
ATOM     23  C   UNL     1       5.271   4.517  16.675  0.00  0.00    +0.000 A 
ATOM     24  C   UNL     1       4.869   4.219  15.386  0.00  0.00    +0.000 A 
ATOM     25  C   UNL     1       5.717   4.437  14.236  0.00  0.00    +0.000 A 
BRANCH  20  26
ATOM     26  C   UNL     1       7.893   4.902  12.994  0.00  0.00    +0.000 C 
BRANCH  26  27
ATOM     27  N   UNL     1       8.836   6.022  13.000  0.00  0.00    +0.000 NA
ATOM     28  H   UNL     1       8.467   6.801  13.547  0.00  0.00    +0.000 HD
ATOM     29  H   UNL     1       8.924   6.369  12.046  0.00  0.00    +0.000 HD
ENDBRANCH  26  27
ENDBRANCH  20  26
ENDBRANCH   1  23
TORSDOF 4
ENDMDL
MODEL 6
REMARK VINA RESULT:      -7.8      2.217      9.185
REMARK  Name = 
REMARK  4 active torsions:
REMARK  status: ('A' for Active; 'I' for Inactive)
REMARK    1  A    between atoms: N_1  and  C_2
REMARK    2  A    between atoms: C_2  and  C_3
REMARK    3  A    between atoms: C_6  and  N_7
REMARK    4  A    between atoms: C_13  and  C_14
REMARK                            x       y       z     vdW  Elec       q    Type
REMARK                         _______ _______ _______ _____ _____    ______ ____
ROOT
ATOM      1  N   UNL     1       1.837   8.524  19.193  0.00  0.00    +0.000 N 
ATOM      2  C   UNL     1       1.735   8.872  17.878  0.00  0.00    +0.000 A 
ATOM      3  N   UNL     1       2.127  10.092  17.845  0.00  0.00    +0.000 NA
ATOM      4  C   UNL     1       1.264  10.512  18.802  0.00  0.00    +0.000 A 
ATOM      5  C   UNL     1       0.741  11.832  18.604  0.00  0.00    +0.000 A 
ATOM      6  C   UNL     1      -0.417  12.363  19.127  0.00  0.00    +0.000 A 
ATOM      7  C   UNL     1      -1.106  11.612  20.029  0.00  0.00    +0.000 A 
ATOM      8  C   UNL     1      -0.376  10.311  20.394  0.00  0.00    +0.000 A 
ATOM      9  C   UNL     1       0.756   9.382  19.803  0.00  0.00    +0.000 A 
ENDROOT
BRANCH   7  10
ATOM     10  C   UNL     1      -2.528  12.217  20.418  0.00  0.00    +0.000 A 
ATOM     11  C   UNL     1      -3.618  12.413  19.470  0.00  0.00    +0.000 A 
ATOM     12  C   UNL     1      -4.931  12.769  19.858  0.00  0.00    +0.000 A 
ATOM     13  N   UNL     1      -5.337  12.966  21.119  0.00  0.00    +0.000 NA
ATOM     14  C   UNL     1      -4.359  12.711  21.999  0.00  0.00    +0.000 A 
ATOM     15  N   UNL     1      -4.590  12.757  23.349  0.00  0.00    +0.000 N 
ATOM     16  C   UNL     1      -3.467  12.346  24.005  0.00  0.00    +0.000 A 
ATOM     17  C   UNL     1      -2.505  12.062  23.054  0.00  0.00    +0.000 A 
ATOM     18  C   UNL     1      -3.019  12.335  21.756  0.00  0.00    +0.000 A 
ATOM     19  H   UNL     1      -5.477  13.014  23.766  0.00  0.00    +0.000 HD
ENDBRANCH   7  10
BRANCH   1  23
ATOM     20  C   UNL     1       2.585   4.039  19.078  0.00  0.00    +0.000 A 
ATOM     21  C   UNL     1       2.942   4.837  17.988  0.00  0.00    +0.000 A 
ATOM     22  C   UNL     1       2.838   6.297  18.064  0.00  0.00    +0.000 A 
ATOM     23  C   UNL     1       2.353   7.032  19.243  0.00  0.00    +0.000 A 
ATOM     24  C   UNL     1       1.999   6.191  20.282  0.00  0.00    +0.000 A 
ATOM     25  C   UNL     1       2.076   4.751  20.180  0.00  0.00    +0.000 A 
BRANCH  20  26
ATOM     26  C   UNL     1       2.774   2.516  19.174  0.00  0.00    +0.000 C 
BRANCH  26  27
ATOM     27  N   UNL     1       1.644   1.808  18.570  0.00  0.00    +0.000 NA
ATOM     28  H   UNL     1       0.799   2.381  18.605  0.00  0.00    +0.000 HD
ATOM     29  H   UNL     1       1.446   0.984  19.135  0.00  0.00    +0.000 HD
ENDBRANCH  26  27
ENDBRANCH  20  26
ENDBRANCH   1  23
TORSDOF 4
ENDMDL
MODEL 7
REMARK VINA RESULT:      -7.7      3.012      9.913
REMARK  Name = 
REMARK  4 active torsions:
REMARK  status: ('A' for Active; 'I' for Inactive)
REMARK    1  A    between atoms: N_1  and  C_2
REMARK    2  A    between atoms: C_2  and  C_3
REMARK    3  A    between atoms: C_6  and  N_7
REMARK    4  A    between atoms: C_13  and  C_14
REMARK                            x       y       z     vdW  Elec       q    Type
REMARK                         _______ _______ _______ _____ _____    ______ ____
ROOT
ATOM      1  N   UNL     1       3.641   5.890  18.002  0.00  0.00    +0.000 N 
ATOM      2  C   UNL     1       4.246   5.788  19.219  0.00  0.00    +0.000 A 
ATOM      3  N   UNL     1       3.312   5.386  20.000  0.00  0.00    +0.000 NA
ATOM      4  C   UNL     1       2.454   6.382  19.669  0.00  0.00    +0.000 A 
ATOM      5  C   UNL     1       1.640   6.859  20.749  0.00  0.00    +0.000 A 
ATOM      6  C   UNL     1       1.011   8.080  20.849  0.00  0.00    +0.000 A 
ATOM      7  C   UNL     1       1.054   8.904  19.767  0.00  0.00    +0.000 A 
ATOM      8  C   UNL     1       1.724   8.247  18.551  0.00  0.00    +0.000 A 
ATOM      9  C   UNL     1       2.701   7.045  18.243  0.00  0.00    +0.000 A 
ENDROOT
BRANCH   7  10
ATOM     10  C   UNL     1       0.480  10.364  20.046  0.00  0.00    +0.000 A 
ATOM     11  C   UNL     1       1.142  11.352  20.889  0.00  0.00    +0.000 A 
ATOM     12  C   UNL     1       0.727  12.702  20.977  0.00  0.00    +0.000 A 
ATOM     13  N   UNL     1      -0.304  13.237  20.311  0.00  0.00    +0.000 NA
ATOM     14  C   UNL     1      -0.868  12.352  19.477  0.00  0.00    +0.000 A 
ATOM     15  N   UNL     1      -1.880  12.722  18.630  0.00  0.00    +0.000 N 
ATOM     16  C   UNL     1      -2.184  11.668  17.819  0.00  0.00    +0.000 A 
ATOM     17  C   UNL     1      -1.371  10.611  18.180  0.00  0.00    +0.000 A 
ATOM     18  C   UNL     1      -0.549  10.991  19.276  0.00  0.00    +0.000 A 
ATOM     19  H   UNL     1      -2.286  13.649  18.598  0.00  0.00    +0.000 HD
ENDBRANCH   7  10
BRANCH   1  23
ATOM     20  C   UNL     1       5.999   4.411  14.404  0.00  0.00    +0.000 A 
ATOM     21  C   UNL     1       5.881   5.782  14.649  0.00  0.00    +0.000 A 
ATOM     22  C   UNL     1       5.247   6.271  15.876  0.00  0.00    +0.000 A 
ATOM     23  C   UNL     1       4.682   5.399  16.919  0.00  0.00    +0.000 A 
ATOM     24  C   UNL     1       4.813   4.056  16.616  0.00  0.00    +0.000 A 
ATOM     25  C   UNL     1       5.412   3.591  15.385  0.00  0.00    +0.000 A 
BRANCH  20  26
ATOM     26  C   UNL     1       6.758   3.772  13.229  0.00  0.00    +0.000 C 
BRANCH  26  27
ATOM     27  N   UNL     1       5.878   2.902  12.447  0.00  0.00    +0.000 NA
ATOM     28  H   UNL     1       5.210   2.426  13.054  0.00  0.00    +0.000 HD
ATOM     29  H   UNL     1       6.447   2.168  12.028  0.00  0.00    +0.000 HD
ENDBRANCH  26  27
ENDBRANCH  20  26
ENDBRANCH   1  23
TORSDOF 4
ENDMDL
MODEL 8
REMARK VINA RESULT:      -7.7      1.271      1.279
REMARK  Name = 
REMARK  4 active torsions:
REMARK  status: ('A' for Active; 'I' for Inactive)
REMARK    1  A    between atoms: N_1  and  C_2
REMARK    2  A    between atoms: C_2  and  C_3
REMARK    3  A    between atoms: C_6  and  N_7
REMARK    4  A    between atoms: C_13  and  C_14
REMARK                            x       y       z     vdW  Elec       q    Type
REMARK                         _______ _______ _______ _____ _____    ______ ____
ROOT
ATOM      1  N   UNL     1       0.456  10.562  20.367  0.00  0.00    +0.000 N 
ATOM      2  C   UNL     1       1.210  11.324  19.525  0.00  0.00    +0.000 A 
ATOM      3  N   UNL     1       0.865  10.931  18.354  0.00  0.00    +0.000 NA
ATOM      4  C   UNL     1       1.107   9.620  18.601  0.00  0.00    +0.000 A 
ATOM      5  C   UNL     1       1.631   8.884  17.487  0.00  0.00    +0.000 A 
ATOM      6  C   UNL     1       2.347   7.709  17.521  0.00  0.00    +0.000 A 
ATOM      7  C   UNL     1       2.492   7.090  18.725  0.00  0.00    +0.000 A 
ATOM      8  C   UNL     1       1.703   7.787  19.844  0.00  0.00    +0.000 A 
ATOM      9  C   UNL     1       1.054   9.197  20.134  0.00  0.00    +0.000 A 
ENDROOT
BRANCH   7  10
ATOM     10  C   UNL     1       3.501   5.858  18.698  0.00  0.00    +0.000 A 
ATOM     11  C   UNL     1       4.842   5.890  19.267  0.00  0.00    +0.000 A 
ATOM     12  C   UNL     1       5.655   4.740  19.409  0.00  0.00    +0.000 A 
ATOM     13  N   UNL     1       5.304   3.499  19.048  0.00  0.00    +0.000 NA
ATOM     14  C   UNL     1       4.043   3.451  18.596  0.00  0.00    +0.000 A 
ATOM     15  N   UNL     1       3.453   2.260  18.265  0.00  0.00    +0.000 N 
ATOM     16  C   UNL     1       2.145   2.486  17.951  0.00  0.00    +0.000 A 
ATOM     17  C   UNL     1       1.916   3.844  18.059  0.00  0.00    +0.000 A 
ATOM     18  C   UNL     1       3.122   4.507  18.419  0.00  0.00    +0.000 A 
ATOM     19  H   UNL     1       3.923   1.362  18.301  0.00  0.00    +0.000 HD
ENDBRANCH   7  10
BRANCH   1  23
ATOM     20  C   UNL     1      -1.390  13.476  23.332  0.00  0.00    +0.000 A 
ATOM     21  C   UNL     1      -1.754  12.126  23.357  0.00  0.00    +0.000 A 
ATOM     22  C   UNL     1      -1.067  11.151  22.506  0.00  0.00    +0.000 A 
ATOM     23  C   UNL     1       0.017  11.489  21.569  0.00  0.00    +0.000 A 
ATOM     24  C   UNL     1       0.323  12.837  21.576  0.00  0.00    +0.000 A 
ATOM     25  C   UNL     1      -0.387  13.792  22.398  0.00  0.00    +0.000 A 
BRANCH  20  26
ATOM     26  C   UNL     1      -1.935  14.568  24.268  0.00  0.00    +0.000 C 
BRANCH  26  27
ATOM     27  N   UNL     1      -0.842  15.310  24.900  0.00  0.00    +0.000 NA
ATOM     28  H   UNL     1      -1.198  16.141  25.375  0.00  0.00    +0.000 HD
ATOM     29  H   UNL     1      -0.223  15.652  24.167  0.00  0.00    +0.000 HD
ENDBRANCH  26  27
ENDBRANCH  20  26
ENDBRANCH   1  23
TORSDOF 4
ENDMDL
MODEL 9
REMARK VINA RESULT:      -7.6      1.316      2.340
REMARK  Name = 
REMARK  4 active torsions:
REMARK  status: ('A' for Active; 'I' for Inactive)
REMARK    1  A    between atoms: N_1  and  C_2
REMARK    2  A    between atoms: C_2  and  C_3
REMARK    3  A    between atoms: C_6  and  N_7
REMARK    4  A    between atoms: C_13  and  C_14
REMARK                            x       y       z     vdW  Elec       q    Type
REMARK                         _______ _______ _______ _____ _____    ______ ____
ROOT
ATOM      1  N   UNL     1      -0.137  10.890  20.166  0.00  0.00    +0.000 N 
ATOM      2  C   UNL     1       0.953  11.675  19.929  0.00  0.00    +0.000 A 
ATOM      3  N   UNL     1       1.177  11.530  18.675  0.00  0.00    +0.000 NA
ATOM      4  C   UNL     1       1.224  10.177  18.726  0.00  0.00    +0.000 A 
ATOM      5  C   UNL     1       2.176   9.573  17.840  0.00  0.00    +0.000 A 
ATOM      6  C   UNL     1       2.746   8.324  17.946  0.00  0.00    +0.000 A 
ATOM      7  C   UNL     1       2.288   7.501  18.929  0.00  0.00    +0.000 A 
ATOM      8  C   UNL     1       1.098   8.100  19.694  0.00  0.00    +0.000 A 
ATOM      9  C   UNL     1       0.445   9.516  19.948  0.00  0.00    +0.000 A 
ENDROOT
BRANCH   7  10
ATOM     10  C   UNL     1       3.143   6.168  19.103  0.00  0.00    +0.000 A 
ATOM     11  C   UNL     1       2.832   5.120  20.066  0.00  0.00    +0.000 A 
ATOM     12  C   UNL     1       3.479   3.861  20.082  0.00  0.00    +0.000 A 
ATOM     13  N   UNL     1       4.439   3.477  19.231  0.00  0.00    +0.000 NA
ATOM     14  C   UNL     1       4.674   4.407  18.295  0.00  0.00    +0.000 A 
ATOM     15  N   UNL     1       5.552   4.175  17.269  0.00  0.00    +0.000 N 
ATOM     16  C   UNL     1       5.512   5.230  16.406  0.00  0.00    +0.000 A 
ATOM     17  C   UNL     1       4.617   6.153  16.911  0.00  0.00    +0.000 A 
ATOM     18  C   UNL     1       4.097   5.688  18.151  0.00  0.00    +0.000 A 
ATOM     19  H   UNL     1       6.096   3.326  17.166  0.00  0.00    +0.000 HD
ENDBRANCH   7  10
BRANCH   1  23
ATOM     20  C   UNL     1      -3.269  12.482  23.055  0.00  0.00    +0.000 A 
ATOM     21  C   UNL     1      -2.202  11.714  23.531  0.00  0.00    +0.000 A 
ATOM     22  C   UNL     1      -1.111  11.314  22.637  0.00  0.00    +0.000 A 
ATOM     23  C   UNL     1      -1.047  11.655  21.207  0.00  0.00    +0.000 A 
ATOM     24  C   UNL     1      -2.135  12.399  20.789  0.00  0.00    +0.000 A 
ATOM     25  C   UNL     1      -3.219  12.758  21.676  0.00  0.00    +0.000 A 
BRANCH  20  26
ATOM     26  C   UNL     1      -4.398  13.078  23.912  0.00  0.00    +0.000 C 
BRANCH  26  27
ATOM     27  N   UNL     1      -4.894  12.098  24.881  0.00  0.00    +0.000 NA
ATOM     28  H   UNL     1      -4.812  11.150  24.509  0.00  0.00    +0.000 HD
ATOM     29  H   UNL     1      -5.890  12.260  25.015  0.00  0.00    +0.000 HD
ENDBRANCH  26  27
ENDBRANCH  20  26
ENDBRANCH   1  23
TORSDOF 4
ENDMDL
