MODEL 1
REMARK VINA RESULT:      -6.4      0.000      0.000
REMARK  Name = 
REMARK  7 active torsions:
REMARK  status: ('A' for Active; 'I' for Inactive)
REMARK    1  A    between atoms: C_1  and  S_2
REMARK    2  A    between atoms: S_2  and  C_3
REMARK    3  A    between atoms: N_5  and  C_6
REMARK    4  A    between atoms: C_6  and  C_7
REMARK    5  A    between atoms: C_6  and  C_8
REMARK    6  A    between atoms: C_6  and  C_9
REMARK    7  A    between atoms: C_12  and  C_13
REMARK                            x       y       z     vdW  Elec       q    Type
REMARK                         _______ _______ _______ _____ _____    ______ ____
ROOT
ATOM      1  C   UNL     1       4.102   4.087  19.158  0.00  0.00    +0.000 A 
ATOM      2  N   UNL     1       5.132   4.055  18.308  0.00  0.00    +0.000 NA
ATOM      3  N   UNL     1       5.107   5.266  17.694  0.00  0.00    +0.000 N 
ATOM      4  C   UNL     1       4.062   6.043  18.135  0.00  0.00    +0.000 A 
ATOM      5  N   UNL     1       3.736   7.288  17.697  0.00  0.00    +0.000 NA
ATOM      6  C   UNL     1       2.686   7.784  18.282  0.00  0.00    +0.000 A 
ATOM      7  C   UNL     1       2.161   9.137  17.901  0.00  0.00    +0.000 C 
ATOM      8  N   UNL     1       1.965   7.139  19.272  0.00  0.00    +0.000 N 
ATOM      9  C   UNL     1       2.281   5.882  19.761  0.00  0.00    +0.000 A 
ATOM     10  O   UNL     1       1.636   5.367  20.665  0.00  0.00    +0.000 OA
ATOM     11  C   UNL     1       3.414   5.303  19.099  0.00  0.00    +0.000 A 
ATOM     12  H   UNL     1       1.169   7.581  19.709  0.00  0.00    +0.000 HD
ENDROOT
BRANCH   3  13
ATOM     13  C   UNL     1       6.143   5.609  16.701  0.00  0.00    +0.000 C 
ATOM     14  C   UNL     1       7.193   4.477  16.570  0.00  0.00    +0.000 C 
ATOM     15  C   UNL     1       5.513   5.822  15.312  0.00  0.00    +0.000 C 
ATOM     16  C   UNL     1       6.892   6.885  17.131  0.00  0.00    +0.000 C 
ENDBRANCH   3  13
BRANCH   1  18
ATOM     17  C   UNL     1       2.204   2.105  19.396  0.00  0.00    +0.000 C 
ATOM     18  S   UNL     1       3.713   2.722  20.176  0.00  0.00    +0.000 S 
ENDBRANCH   1  18
TORSDOF 2
ENDMDL
MODEL 2
REMARK VINA RESULT:      -6.4      0.030      1.042
REMARK  Name = 
REMARK  7 active torsions:
REMARK  status: ('A' for Active; 'I' for Inactive)
REMARK    1  A    between atoms: C_1  and  S_2
REMARK    2  A    between atoms: S_2  and  C_3
REMARK    3  A    between atoms: N_5  and  C_6
REMARK    4  A    between atoms: C_6  and  C_7
REMARK    5  A    between atoms: C_6  and  C_8
REMARK    6  A    between atoms: C_6  and  C_9
REMARK    7  A    between atoms: C_12  and  C_13
REMARK                            x       y       z     vdW  Elec       q    Type
REMARK                         _______ _______ _______ _____ _____    ______ ____
ROOT
ATOM      1  C   UNL     1       4.099   4.065  19.156  0.00  0.00    +0.000 A 
ATOM      2  N   UNL     1       5.127   4.031  18.303  0.00  0.00    +0.000 NA
ATOM      3  N   UNL     1       5.106   5.244  17.692  0.00  0.00    +0.000 N 
ATOM      4  C   UNL     1       4.066   6.024  18.138  0.00  0.00    +0.000 A 
ATOM      5  N   UNL     1       3.744   7.271  17.705  0.00  0.00    +0.000 NA
ATOM      6  C   UNL     1       2.698   7.771  18.293  0.00  0.00    +0.000 A 
ATOM      7  C   UNL     1       2.178   9.127  17.917  0.00  0.00    +0.000 C 
ATOM      8  N   UNL     1       1.976   7.127  19.283  0.00  0.00    +0.000 N 
ATOM      9  C   UNL     1       2.288   5.866  19.767  0.00  0.00    +0.000 A 
ATOM     10  O   UNL     1       1.643   5.352  20.672  0.00  0.00    +0.000 OA
ATOM     11  C   UNL     1       3.416   5.285  19.101  0.00  0.00    +0.000 A 
ATOM     12  H   UNL     1       1.183   7.571  19.723  0.00  0.00    +0.000 HD
ENDROOT
BRANCH   3  13
ATOM     13  C   UNL     1       6.142   5.585  16.698  0.00  0.00    +0.000 C 
ATOM     14  C   UNL     1       6.924   6.856  17.115  0.00  0.00    +0.000 C 
ATOM     15  C   UNL     1       7.159   4.437  16.560  0.00  0.00    +0.000 C 
ATOM     16  C   UNL     1       5.493   5.871  15.330  0.00  0.00    +0.000 C 
ENDBRANCH   3  13
BRANCH   1  18
ATOM     17  C   UNL     1       2.208   2.075  19.377  0.00  0.00    +0.000 C 
ATOM     18  S   UNL     1       3.707   2.700  20.171  0.00  0.00    +0.000 S 
ENDBRANCH   1  18
TORSDOF 2
ENDMDL
MODEL 3
REMARK VINA RESULT:      -6.4      0.057      1.074
REMARK  Name = 
REMARK  7 active torsions:
REMARK  status: ('A' for Active; 'I' for Inactive)
REMARK    1  A    between atoms: C_1  and  S_2
REMARK    2  A    between atoms: S_2  and  C_3
REMARK    3  A    between atoms: N_5  and  C_6
REMARK    4  A    between atoms: C_6  and  C_7
REMARK    5  A    between atoms: C_6  and  C_8
REMARK    6  A    between atoms: C_6  and  C_9
REMARK    7  A    between atoms: C_12  and  C_13
REMARK                            x       y       z     vdW  Elec       q    Type
REMARK                         _______ _______ _______ _____ _____    ______ ____
ROOT
ATOM      1  C   UNL     1       4.110   4.066  19.152  0.00  0.00    +0.000 A 
ATOM      2  N   UNL     1       5.134   4.036  18.295  0.00  0.00    +0.000 NA
ATOM      3  N   UNL     1       5.105   5.250  17.684  0.00  0.00    +0.000 N 
ATOM      4  C   UNL     1       4.064   6.025  18.135  0.00  0.00    +0.000 A 
ATOM      5  N   UNL     1       3.735   7.272  17.705  0.00  0.00    +0.000 NA
ATOM      6  C   UNL     1       2.690   7.767  18.299  0.00  0.00    +0.000 A 
ATOM      7  C   UNL     1       2.163   9.121  17.926  0.00  0.00    +0.000 C 
ATOM      8  N   UNL     1       1.976   7.119  19.292  0.00  0.00    +0.000 N 
ATOM      9  C   UNL     1       2.295   5.860  19.774  0.00  0.00    +0.000 A 
ATOM     10  O   UNL     1       1.657   5.343  20.682  0.00  0.00    +0.000 OA
ATOM     11  C   UNL     1       3.422   5.283  19.102  0.00  0.00    +0.000 A 
ATOM     12  H   UNL     1       1.183   7.561  19.736  0.00  0.00    +0.000 HD
ENDROOT
BRANCH   3  13
ATOM     13  C   UNL     1       6.134   5.595  16.685  0.00  0.00    +0.000 C 
ATOM     14  C   UNL     1       5.495   5.933  15.314  0.00  0.00    +0.000 C 
ATOM     15  C   UNL     1       6.938   6.828  17.139  0.00  0.00    +0.000 C 
ATOM     16  C   UNL     1       7.088   4.405  16.468  0.00  0.00    +0.000 C 
ENDBRANCH   3  13
BRANCH   1  18
ATOM     17  C   UNL     1       2.232   2.065  19.379  0.00  0.00    +0.000 C 
ATOM     18  S   UNL     1       3.728   2.699  20.169  0.00  0.00    +0.000 S 
ENDBRANCH   1  18
TORSDOF 2
ENDMDL
MODEL 4
REMARK VINA RESULT:      -6.1      2.115      3.805
REMARK  Name = 
REMARK  7 active torsions:
REMARK  status: ('A' for Active; 'I' for Inactive)
REMARK    1  A    between atoms: C_1  and  S_2
REMARK    2  A    between atoms: S_2  and  C_3
REMARK    3  A    between atoms: N_5  and  C_6
REMARK    4  A    between atoms: C_6  and  C_7
REMARK    5  A    between atoms: C_6  and  C_8
REMARK    6  A    between atoms: C_6  and  C_9
REMARK    7  A    between atoms: C_12  and  C_13
REMARK                            x       y       z     vdW  Elec       q    Type
REMARK                         _______ _______ _______ _____ _____    ______ ____
ROOT
ATOM      1  C   UNL     1       3.631   6.566  18.165  0.00  0.00    +0.000 A 
ATOM      2  N   UNL     1       4.880   6.908  17.838  0.00  0.00    +0.000 NA
ATOM      3  N   UNL     1       5.636   5.844  18.215  0.00  0.00    +0.000 N 
ATOM      4  C   UNL     1       4.877   4.855  18.792  0.00  0.00    +0.000 A 
ATOM      5  N   UNL     1       5.329   3.681  19.307  0.00  0.00    +0.000 NA
ATOM      6  C   UNL     1       4.387   2.936  19.804  0.00  0.00    +0.000 A 
ATOM      7  C   UNL     1       4.708   1.617  20.446  0.00  0.00    +0.000 C 
ATOM      8  N   UNL     1       3.044   3.269  19.803  0.00  0.00    +0.000 N 
ATOM      9  C   UNL     1       2.542   4.444  19.266  0.00  0.00    +0.000 A 
ATOM     10  O   UNL     1       1.341   4.679  19.253  0.00  0.00    +0.000 OA
ATOM     11  C   UNL     1       3.573   5.296  18.748  0.00  0.00    +0.000 A 
ATOM     12  H   UNL     1       2.351   2.641  20.184  0.00  0.00    +0.000 HD
ENDROOT
BRANCH   3  13
ATOM     13  C   UNL     1       7.090   5.850  17.966  0.00  0.00    +0.000 C 
ATOM     14  C   UNL     1       7.888   5.724  19.288  0.00  0.00    +0.000 C 
ATOM     15  C   UNL     1       7.490   4.664  17.067  0.00  0.00    +0.000 C 
ATOM     16  C   UNL     1       7.511   7.172  17.297  0.00  0.00    +0.000 C 
ENDBRANCH   3  13
BRANCH   1  18
ATOM     17  C   UNL     1       1.874   8.159  19.566  0.00  0.00    +0.000 C 
ATOM     18  S   UNL     1       2.284   7.642  17.883  0.00  0.00    +0.000 S 
ENDBRANCH   1  18
TORSDOF 2
ENDMDL
MODEL 5
REMARK VINA RESULT:      -6.1      2.104      3.935
REMARK  Name = 
REMARK  7 active torsions:
REMARK  status: ('A' for Active; 'I' for Inactive)
REMARK    1  A    between atoms: C_1  and  S_2
REMARK    2  A    between atoms: S_2  and  C_3
REMARK    3  A    between atoms: N_5  and  C_6
REMARK    4  A    between atoms: C_6  and  C_7
REMARK    5  A    between atoms: C_6  and  C_8
REMARK    6  A    between atoms: C_6  and  C_9
REMARK    7  A    between atoms: C_12  and  C_13
REMARK                            x       y       z     vdW  Elec       q    Type
REMARK                         _______ _______ _______ _____ _____    ______ ____
ROOT
ATOM      1  C   UNL     1       3.617   6.528  18.209  0.00  0.00    +0.000 A 
ATOM      2  N   UNL     1       4.864   6.878  17.879  0.00  0.00    +0.000 NA
ATOM      3  N   UNL     1       5.626   5.814  18.244  0.00  0.00    +0.000 N 
ATOM      4  C   UNL     1       4.872   4.817  18.817  0.00  0.00    +0.000 A 
ATOM      5  N   UNL     1       5.331   3.641  19.320  0.00  0.00    +0.000 NA
ATOM      6  C   UNL     1       4.394   2.888  19.816  0.00  0.00    +0.000 A 
ATOM      7  C   UNL     1       4.722   1.566  20.446  0.00  0.00    +0.000 C 
ATOM      8  N   UNL     1       3.050   3.217  19.823  0.00  0.00    +0.000 N 
ATOM      9  C   UNL     1       2.541   4.394  19.297  0.00  0.00    +0.000 A 
ATOM     10  O   UNL     1       1.339   4.624  19.291  0.00  0.00    +0.000 OA
ATOM     11  C   UNL     1       3.566   5.253  18.781  0.00  0.00    +0.000 A 
ATOM     12  H   UNL     1       2.360   2.583  20.202  0.00  0.00    +0.000 HD
ENDROOT
BRANCH   3  13
ATOM     13  C   UNL     1       7.079   5.827  17.989  0.00  0.00    +0.000 C 
ATOM     14  C   UNL     1       7.515   7.139  17.291  0.00  0.00    +0.000 C 
ATOM     15  C   UNL     1       7.862   5.721  19.312  0.00  0.00    +0.000 C 
ATOM     16  C   UNL     1       7.467   4.660  17.062  0.00  0.00    +0.000 C 
ENDBRANCH   3  13
BRANCH   1  18
ATOM     17  C   UNL     1       1.871   8.117  19.627  0.00  0.00    +0.000 C 
ATOM     18  S   UNL     1       2.266   7.601  17.940  0.00  0.00    +0.000 S 
ENDBRANCH   1  18
TORSDOF 2
ENDMDL
MODEL 6
REMARK VINA RESULT:      -6.0      2.110      3.799
REMARK  Name = 
REMARK  7 active torsions:
REMARK  status: ('A' for Active; 'I' for Inactive)
REMARK    1  A    between atoms: C_1  and  S_2
REMARK    2  A    between atoms: S_2  and  C_3
REMARK    3  A    between atoms: N_5  and  C_6
REMARK    4  A    between atoms: C_6  and  C_7
REMARK    5  A    between atoms: C_6  and  C_8
REMARK    6  A    between atoms: C_6  and  C_9
REMARK    7  A    between atoms: C_12  and  C_13
REMARK                            x       y       z     vdW  Elec       q    Type
REMARK                         _______ _______ _______ _____ _____    ______ ____
ROOT
ATOM      1  C   UNL     1       3.616   6.545  18.205  0.00  0.00    +0.000 A 
ATOM      2  N   UNL     1       4.863   6.894  17.875  0.00  0.00    +0.000 NA
ATOM      3  N   UNL     1       5.624   5.829  18.241  0.00  0.00    +0.000 N 
ATOM      4  C   UNL     1       4.870   4.833  18.814  0.00  0.00    +0.000 A 
ATOM      5  N   UNL     1       5.328   3.657  19.317  0.00  0.00    +0.000 NA
ATOM      6  C   UNL     1       4.390   2.905  19.813  0.00  0.00    +0.000 A 
ATOM      7  C   UNL     1       4.717   1.583  20.443  0.00  0.00    +0.000 C 
ATOM      8  N   UNL     1       3.046   3.235  19.820  0.00  0.00    +0.000 N 
ATOM      9  C   UNL     1       2.539   4.412  19.294  0.00  0.00    +0.000 A 
ATOM     10  O   UNL     1       1.337   4.644  19.288  0.00  0.00    +0.000 OA
ATOM     11  C   UNL     1       3.564   5.271  18.778  0.00  0.00    +0.000 A 
ATOM     12  H   UNL     1       2.356   2.602  20.199  0.00  0.00    +0.000 HD
ENDROOT
BRANCH   3  13
ATOM     13  C   UNL     1       7.077   5.841  17.985  0.00  0.00    +0.000 C 
ATOM     14  C   UNL     1       7.500   4.649  17.089  0.00  0.00    +0.000 C 
ATOM     15  C   UNL     1       7.489   7.136  17.261  0.00  0.00    +0.000 C 
ATOM     16  C   UNL     1       7.852   5.719  19.311  0.00  0.00    +0.000 C 
ENDBRANCH   3  13
BRANCH   1  18
ATOM     17  C   UNL     1       1.873   8.138  19.623  0.00  0.00    +0.000 C 
ATOM     18  S   UNL     1       2.266   7.619  17.937  0.00  0.00    +0.000 S 
ENDBRANCH   1  18
TORSDOF 2
ENDMDL
MODEL 7
REMARK VINA RESULT:      -6.0      2.546      4.264
REMARK  Name = 
REMARK  7 active torsions:
REMARK  status: ('A' for Active; 'I' for Inactive)
REMARK    1  A    between atoms: C_1  and  S_2
REMARK    2  A    between atoms: S_2  and  C_3
REMARK    3  A    between atoms: N_5  and  C_6
REMARK    4  A    between atoms: C_6  and  C_7
REMARK    5  A    between atoms: C_6  and  C_8
REMARK    6  A    between atoms: C_6  and  C_9
REMARK    7  A    between atoms: C_12  and  C_13
REMARK                            x       y       z     vdW  Elec       q    Type
REMARK                         _______ _______ _______ _____ _____    ______ ____
ROOT
ATOM      1  C   UNL     1       5.174   4.247  16.702  0.00  0.00    +0.000 A 
ATOM      2  N   UNL     1       4.609   3.208  17.326  0.00  0.00    +0.000 NA
ATOM      3  N   UNL     1       3.593   3.753  18.044  0.00  0.00    +0.000 N 
ATOM      4  C   UNL     1       3.532   5.118  17.893  0.00  0.00    +0.000 A 
ATOM      5  N   UNL     1       2.659   5.963  18.502  0.00  0.00    +0.000 NA
ATOM      6  C   UNL     1       2.840   7.211  18.185  0.00  0.00    +0.000 A 
ATOM      7  C   UNL     1       1.987   8.289  18.788  0.00  0.00    +0.000 C 
ATOM      8  N   UNL     1       3.804   7.662  17.300  0.00  0.00    +0.000 N 
ATOM      9  C   UNL     1       4.695   6.828  16.642  0.00  0.00    +0.000 A 
ATOM     10  O   UNL     1       5.507   7.268  15.838  0.00  0.00    +0.000 OA
ATOM     11  C   UNL     1       4.535   5.452  17.010  0.00  0.00    +0.000 A 
ATOM     12  H   UNL     1       3.886   8.642  17.073  0.00  0.00    +0.000 HD
ENDROOT
BRANCH   3  13
ATOM     13  C   UNL     1       2.707   2.883  18.842  0.00  0.00    +0.000 C 
ATOM     14  C   UNL     1       2.812   3.208  20.353  0.00  0.00    +0.000 C 
ATOM     15  C   UNL     1       1.237   3.080  18.425  0.00  0.00    +0.000 C 
ATOM     16  C   UNL     1       3.105   1.406  18.658  0.00  0.00    +0.000 C 
ENDBRANCH   3  13
BRANCH   1  18
ATOM     17  C   UNL     1       5.789   4.099  14.022  0.00  0.00    +0.000 C 
ATOM     18  S   UNL     1       6.558   4.042  15.657  0.00  0.00    +0.000 S 
ENDBRANCH   1  18
TORSDOF 2
ENDMDL
MODEL 8
REMARK VINA RESULT:      -6.0      2.538      4.269
REMARK  Name = 
REMARK  7 active torsions:
REMARK  status: ('A' for Active; 'I' for Inactive)
REMARK    1  A    between atoms: C_1  and  S_2
REMARK    2  A    between atoms: S_2  and  C_3
REMARK    3  A    between atoms: N_5  and  C_6
REMARK    4  A    between atoms: C_6  and  C_7
REMARK    5  A    between atoms: C_6  and  C_8
REMARK    6  A    between atoms: C_6  and  C_9
REMARK    7  A    between atoms: C_12  and  C_13
REMARK                            x       y       z     vdW  Elec       q    Type
REMARK                         _______ _______ _______ _____ _____    ______ ____
ROOT
ATOM      1  C   UNL     1       5.205   4.250  16.739  0.00  0.00    +0.000 A 
ATOM      2  N   UNL     1       4.618   3.220  17.355  0.00  0.00    +0.000 NA
ATOM      3  N   UNL     1       3.590   3.776  18.048  0.00  0.00    +0.000 N 
ATOM      4  C   UNL     1       3.544   5.141  17.889  0.00  0.00    +0.000 A 
ATOM      5  N   UNL     1       2.665   5.996  18.474  0.00  0.00    +0.000 NA
ATOM      6  C   UNL     1       2.862   7.241  18.155  0.00  0.00    +0.000 A 
ATOM      7  C   UNL     1       2.006   8.329  18.734  0.00  0.00    +0.000 C 
ATOM      8  N   UNL     1       3.850   7.679  17.290  0.00  0.00    +0.000 N 
ATOM      9  C   UNL     1       4.748   6.835  16.656  0.00  0.00    +0.000 A 
ATOM     10  O   UNL     1       5.581   7.264  15.867  0.00  0.00    +0.000 OA
ATOM     11  C   UNL     1       4.569   5.462  17.027  0.00  0.00    +0.000 A 
ATOM     12  H   UNL     1       3.944   8.657  17.059  0.00  0.00    +0.000 HD
ENDROOT
BRANCH   3  13
ATOM     13  C   UNL     1       2.680   2.918  18.830  0.00  0.00    +0.000 C 
ATOM     14  C   UNL     1       3.008   1.417  18.625  0.00  0.00    +0.000 C 
ATOM     15  C   UNL     1       2.809   3.221  20.335  0.00  0.00    +0.000 C 
ATOM     16  C   UNL     1       1.223   3.137  18.380  0.00  0.00    +0.000 C 
ENDBRANCH   3  13
BRANCH   1  18
ATOM     17  C   UNL     1       5.880   4.104  14.073  0.00  0.00    +0.000 C 
ATOM     18  S   UNL     1       6.609   4.029  15.725  0.00  0.00    +0.000 S 
ENDBRANCH   1  18
TORSDOF 2
ENDMDL
MODEL 9
REMARK VINA RESULT:      -6.0      2.533      4.270
REMARK  Name = 
REMARK  7 active torsions:
REMARK  status: ('A' for Active; 'I' for Inactive)
REMARK    1  A    between atoms: C_1  and  S_2
REMARK    2  A    between atoms: S_2  and  C_3
REMARK    3  A    between atoms: N_5  and  C_6
REMARK    4  A    between atoms: C_6  and  C_7
REMARK    5  A    between atoms: C_6  and  C_8
REMARK    6  A    between atoms: C_6  and  C_9
REMARK    7  A    between atoms: C_12  and  C_13
REMARK                            x       y       z     vdW  Elec       q    Type
REMARK                         _______ _______ _______ _____ _____    ______ ____
ROOT
ATOM      1  C   UNL     1       5.110   4.217  16.748  0.00  0.00    +0.000 A 
ATOM      2  N   UNL     1       4.532   3.197  17.390  0.00  0.00    +0.000 NA
ATOM      3  N   UNL     1       3.525   3.767  18.102  0.00  0.00    +0.000 N 
ATOM      4  C   UNL     1       3.483   5.130  17.928  0.00  0.00    +0.000 A 
ATOM      5  N   UNL     1       2.623   5.997  18.525  0.00  0.00    +0.000 NA
ATOM      6  C   UNL     1       2.819   7.237  18.187  0.00  0.00    +0.000 A 
ATOM      7  C   UNL     1       1.983   8.336  18.774  0.00  0.00    +0.000 C 
ATOM      8  N   UNL     1       3.788   7.660  17.293  0.00  0.00    +0.000 N 
ATOM      9  C   UNL     1       4.666   6.804  16.647  0.00  0.00    +0.000 A 
ATOM     10  O   UNL     1       5.481   7.219  15.834  0.00  0.00    +0.000 OA
ATOM     11  C   UNL     1       4.488   5.436  17.038  0.00  0.00    +0.000 A 
ATOM     12  H   UNL     1       3.882   8.635  17.049  0.00  0.00    +0.000 HD
ENDROOT
BRANCH   3  13
ATOM     13  C   UNL     1       2.629   2.923  18.915  0.00  0.00    +0.000 C 
ATOM     14  C   UNL     1       1.152   3.085  18.476  0.00  0.00    +0.000 C 
ATOM     15  C   UNL     1       3.000   1.435  18.760  0.00  0.00    +0.000 C 
ATOM     16  C   UNL     1       2.717   3.327  20.398  0.00  0.00    +0.000 C 
ENDBRANCH   3  13
BRANCH   1  18
ATOM     17  C   UNL     1       5.736   4.138  14.068  0.00  0.00    +0.000 C 
ATOM     18  S   UNL     1       6.488   3.977  15.703  0.00  0.00    +0.000 S 
ENDBRANCH   1  18
TORSDOF 2
ENDMDL
