MODEL 1
REMARK VINA RESULT:      -7.6      0.000      0.000
REMARK  Name = 
REMARK  13 active torsions:
REMARK  status: ('A' for Active; 'I' for Inactive)
REMARK    1  A    between atoms: N_1  and  S_2
REMARK    2  A    between atoms: S_2  and  N_5
REMARK    3  A    between atoms: N_5  and  C_6
REMARK    4  A    between atoms: C_6  and  C_7
REMARK    5  A    between atoms: C_7  and  C_8
REMARK    6  A    between atoms: C_8  and  C_9
REMARK    7  A    between atoms: C_9  and  C_10
REMARK    8  A    between atoms: C_10  and  N_11
REMARK    9  A    between atoms: C_10  and  C_22
REMARK   10  A    between atoms: C_12  and  O_14
REMARK   11  A    between atoms: O_14  and  C_15
REMARK   12  A    between atoms: C_15  and  C_16
REMARK   13  A    between atoms: C_24  and  C_25
REMARK                            x       y       z     vdW  Elec       q    Type
REMARK                         _______ _______ _______ _____ _____    ______ ____
ROOT
ATOM      1  C   UNL     1       3.381   6.040  18.264  0.00  0.00    +0.000 C 
ENDROOT
BRANCH   1   2
ATOM      2  C   UNL     1       4.658   5.856  17.470  0.00  0.00    +0.000 A 
ATOM      3  N   UNL     1       4.716   5.305  16.268  0.00  0.00    +0.000 NA
ATOM      4  C   UNL     1       6.014   5.356  15.779  0.00  0.00    +0.000 A 
ATOM      5  C   UNL     1       6.929   5.947  16.627  0.00  0.00    +0.000 A 
ATOM      6  S   UNL     1       6.154   6.471  18.061  0.00  0.00    +0.000 S 
BRANCH   4   7
ATOM      7  C   UNL     1       6.349   4.858  14.450  0.00  0.00    +0.000 A 
ATOM      8  C   UNL     1       5.556   3.866  13.858  0.00  0.00    +0.000 A 
ATOM      9  C   UNL     1       5.853   3.385  12.579  0.00  0.00    +0.000 A 
ATOM     10  C   UNL     1       6.950   3.888  11.882  0.00  0.00    +0.000 A 
ATOM     11  C   UNL     1       7.748   4.873  12.460  0.00  0.00    +0.000 A 
ATOM     12  C   UNL     1       7.449   5.358  13.737  0.00  0.00    +0.000 A 
ENDBRANCH   4   7
ENDBRANCH   1   2
BRANCH   1  13
ATOM     13  N   UNL     1       2.969   7.423  18.052  0.00  0.00    +0.000 N 
ATOM     14  C   UNL     1       2.235   8.128  18.944  0.00  0.00    +0.000 C 
ATOM     15  O   UNL     1       1.962   7.755  20.078  0.00  0.00    +0.000 OA
ATOM     16  H   UNL     1       3.017   7.785  17.106  0.00  0.00    +0.000 HD
BRANCH  14  17
ATOM     17  O   UNL     1       1.806   9.271  18.359  0.00  0.00    +0.000 OA
BRANCH  17  18
ATOM     18  C   UNL     1       0.517   9.194  17.743  0.00  0.00    +0.000 C 
BRANCH  18  19
ATOM     19  C   UNL     1      -0.405  10.178  18.420  0.00  0.00    +0.000 A 
ATOM     20  C   UNL     1      -1.494  10.730  17.733  0.00  0.00    +0.000 A 
ATOM     21  C   UNL     1      -2.303  11.687  18.347  0.00  0.00    +0.000 A 
ATOM     22  C   UNL     1      -2.032  12.101  19.650  0.00  0.00    +0.000 A 
ATOM     23  C   UNL     1      -0.958  11.552  20.346  0.00  0.00    +0.000 A 
ATOM     24  C   UNL     1      -0.150  10.593  19.736  0.00  0.00    +0.000 A 
ENDBRANCH  18  19
ENDBRANCH  17  18
ENDBRANCH  14  17
ENDBRANCH   1  13
BRANCH   1  25
ATOM     25  C   UNL     1       2.256   5.080  17.820  0.00  0.00    +0.000 C 
BRANCH  25  26
ATOM     26  C   UNL     1       1.504   4.328  18.930  0.00  0.00    +0.000 C 
BRANCH  26  27
ATOM     27  C   UNL     1       1.106   2.880  18.615  0.00  0.00    +0.000 C 
BRANCH  27  28
ATOM     28  C   UNL     1       1.946   1.879  19.400  0.00  0.00    +0.000 C 
BRANCH  28  29
ATOM     29  N   UNL     1       2.923   2.579  20.251  0.00  0.00    +0.000 NA
ATOM     30  H   UNL     1       2.846   3.596  20.201  0.00  0.00    +0.000 HD
BRANCH  29  31
ATOM     31  S   UNL     1       4.524   2.162  20.004  0.00  0.00    +0.000 S 
ATOM     32  O   UNL     1       5.028   1.558  21.208  0.00  0.00    +0.000 OA
ATOM     33  O   UNL     1       5.185   3.261  19.349  0.00  0.00    +0.000 OA
BRANCH  31  34
ATOM     34  N   UNL     1       4.329   0.968  18.869  0.00  0.00    +0.000 NA
ATOM     35  H   UNL     1       5.182   0.414  18.808  0.00  0.00    +0.000 HD
ATOM     36  H   UNL     1       4.092   1.355  17.955  0.00  0.00    +0.000 HD
ENDBRANCH  31  34
ENDBRANCH  29  31
ENDBRANCH  28  29
ENDBRANCH  27  28
ENDBRANCH  26  27
ENDBRANCH  25  26
ENDBRANCH   1  25
TORSDOF 13
ENDMDL
MODEL 2
REMARK VINA RESULT:      -7.6      0.991      1.460
REMARK  Name = 
REMARK  13 active torsions:
REMARK  status: ('A' for Active; 'I' for Inactive)
REMARK    1  A    between atoms: N_1  and  S_2
REMARK    2  A    between atoms: S_2  and  N_5
REMARK    3  A    between atoms: N_5  and  C_6
REMARK    4  A    between atoms: C_6  and  C_7
REMARK    5  A    between atoms: C_7  and  C_8
REMARK    6  A    between atoms: C_8  and  C_9
REMARK    7  A    between atoms: C_9  and  C_10
REMARK    8  A    between atoms: C_10  and  N_11
REMARK    9  A    between atoms: C_10  and  C_22
REMARK   10  A    between atoms: C_12  and  O_14
REMARK   11  A    between atoms: O_14  and  C_15
REMARK   12  A    between atoms: C_15  and  C_16
REMARK   13  A    between atoms: C_24  and  C_25
REMARK                            x       y       z     vdW  Elec       q    Type
REMARK                         _______ _______ _______ _____ _____    ______ ____
ROOT
ATOM      1  C   UNL     1       3.073   5.335  18.322  0.00  0.00    +0.000 C 
ENDROOT
BRANCH   1   2
ATOM      2  C   UNL     1       4.246   5.540  17.384  0.00  0.00    +0.000 A 
ATOM      3  N   UNL     1       4.458   4.827  16.290  0.00  0.00    +0.000 NA
ATOM      4  C   UNL     1       5.567   5.311  15.609  0.00  0.00    +0.000 A 
ATOM      5  C   UNL     1       6.185   6.393  16.206  0.00  0.00    +0.000 A 
ATOM      6  S   UNL     1       5.357   6.831  17.639  0.00  0.00    +0.000 S 
BRANCH   4   7
ATOM      7  C   UNL     1       5.997   4.735  14.341  0.00  0.00    +0.000 A 
ATOM      8  C   UNL     1       5.158   3.839  13.665  0.00  0.00    +0.000 A 
ATOM      9  C   UNL     1       5.546   3.286  12.440  0.00  0.00    +0.000 A 
ATOM     10  C   UNL     1       6.780   3.619  11.884  0.00  0.00    +0.000 A 
ATOM     11  C   UNL     1       7.625   4.505  12.549  0.00  0.00    +0.000 A 
ATOM     12  C   UNL     1       7.236   5.063  13.770  0.00  0.00    +0.000 A 
ENDBRANCH   4   7
ENDBRANCH   1   2
BRANCH   1  13
ATOM     13  N   UNL     1       2.733   6.655  18.838  0.00  0.00    +0.000 N 
ATOM     14  C   UNL     1       2.147   6.859  20.041  0.00  0.00    +0.000 C 
ATOM     15  O   UNL     1       1.972   5.994  20.890  0.00  0.00    +0.000 OA
ATOM     16  H   UNL     1       2.702   7.423  18.175  0.00  0.00    +0.000 HD
BRANCH  14  17
ATOM     17  O   UNL     1       1.734   8.146  20.120  0.00  0.00    +0.000 OA
BRANCH  17  18
ATOM     18  C   UNL     1       1.607   8.824  18.866  0.00  0.00    +0.000 C 
BRANCH  18  19
ATOM     19  C   UNL     1       0.437   9.775  18.944  0.00  0.00    +0.000 A 
ATOM     20  C   UNL     1       0.183  10.506  20.111  0.00  0.00    +0.000 A 
ATOM     21  C   UNL     1      -0.936  11.334  20.195  0.00  0.00    +0.000 A 
ATOM     22  C   UNL     1      -1.812  11.439  19.114  0.00  0.00    +0.000 A 
ATOM     23  C   UNL     1      -1.563  10.724  17.945  0.00  0.00    +0.000 A 
ATOM     24  C   UNL     1      -0.443   9.898  17.858  0.00  0.00    +0.000 A 
ENDBRANCH  18  19
ENDBRANCH  17  18
ENDBRANCH  14  17
ENDBRANCH   1  13
BRANCH   1  25
ATOM     25  C   UNL     1       1.847   4.710  17.620  0.00  0.00    +0.000 C 
BRANCH  25  26
ATOM     26  C   UNL     1       1.397   3.325  18.110  0.00  0.00    +0.000 C 
BRANCH  26  27
ATOM     27  C   UNL     1       0.926   3.243  19.568  0.00  0.00    +0.000 C 
BRANCH  27  28
ATOM     28  C   UNL     1       1.807   2.315  20.396  0.00  0.00    +0.000 C 
BRANCH  28  29
ATOM     29  N   UNL     1       3.094   2.963  20.703  0.00  0.00    +0.000 NA
ATOM     30  H   UNL     1       3.096   3.966  20.516  0.00  0.00    +0.000 HD
BRANCH  29  31
ATOM     31  S   UNL     1       4.436   2.289  19.965  0.00  0.00    +0.000 S 
ATOM     32  O   UNL     1       5.336   3.349  19.601  0.00  0.00    +0.000 OA
ATOM     33  O   UNL     1       3.986   1.293  19.027  0.00  0.00    +0.000 OA
BRANCH  31  34
ATOM     34  N   UNL     1       5.087   1.478  21.256  0.00  0.00    +0.000 NA
ATOM     35  H   UNL     1       5.501   2.146  21.905  0.00  0.00    +0.000 HD
ATOM     36  H   UNL     1       5.786   0.796  20.958  0.00  0.00    +0.000 HD
ENDBRANCH  31  34
ENDBRANCH  29  31
ENDBRANCH  28  29
ENDBRANCH  27  28
ENDBRANCH  26  27
ENDBRANCH  25  26
ENDBRANCH   1  25
TORSDOF 13
ENDMDL
MODEL 3
REMARK VINA RESULT:      -7.5      4.859     10.973
REMARK  Name = 
REMARK  13 active torsions:
REMARK  status: ('A' for Active; 'I' for Inactive)
REMARK    1  A    between atoms: N_1  and  S_2
REMARK    2  A    between atoms: S_2  and  N_5
REMARK    3  A    between atoms: N_5  and  C_6
REMARK    4  A    between atoms: C_6  and  C_7
REMARK    5  A    between atoms: C_7  and  C_8
REMARK    6  A    between atoms: C_8  and  C_9
REMARK    7  A    between atoms: C_9  and  C_10
REMARK    8  A    between atoms: C_10  and  N_11
REMARK    9  A    between atoms: C_10  and  C_22
REMARK   10  A    between atoms: C_12  and  O_14
REMARK   11  A    between atoms: O_14  and  C_15
REMARK   12  A    between atoms: C_15  and  C_16
REMARK   13  A    between atoms: C_24  and  C_25
REMARK                            x       y       z     vdW  Elec       q    Type
REMARK                         _______ _______ _______ _____ _____    ______ ____
ROOT
ATOM      1  C   UNL     1       0.410  10.169  19.229  0.00  0.00    +0.000 C 
ENDROOT
BRANCH   1   2
ATOM      2  C   UNL     1      -0.077  10.381  20.648  0.00  0.00    +0.000 A 
ATOM      3  N   UNL     1      -0.657  11.488  21.079  0.00  0.00    +0.000 NA
ATOM      4  C   UNL     1      -1.056  11.338  22.401  0.00  0.00    +0.000 A 
ATOM      5  C   UNL     1      -0.765  10.107  22.956  0.00  0.00    +0.000 A 
ATOM      6  S   UNL     1       0.006   9.105  21.802  0.00  0.00    +0.000 S 
BRANCH   4   7
ATOM      7  C   UNL     1      -1.767  12.396  23.109  0.00  0.00    +0.000 A 
ATOM      8  C   UNL     1      -3.085  12.184  23.534  0.00  0.00    +0.000 A 
ATOM      9  C   UNL     1      -3.779  13.180  24.227  0.00  0.00    +0.000 A 
ATOM     10  C   UNL     1      -3.163  14.402  24.495  0.00  0.00    +0.000 A 
ATOM     11  C   UNL     1      -1.854  14.626  24.075  0.00  0.00    +0.000 A 
ATOM     12  C   UNL     1      -1.157  13.629  23.387  0.00  0.00    +0.000 A 
ENDBRANCH   4   7
ENDBRANCH   1   2
BRANCH   1  13
ATOM     13  N   UNL     1       1.385   9.087  19.293  0.00  0.00    +0.000 N 
ATOM     14  C   UNL     1       2.153   8.711  18.243  0.00  0.00    +0.000 C 
ATOM     15  O   UNL     1       2.233   9.315  17.182  0.00  0.00    +0.000 OA
ATOM     16  H   UNL     1       1.310   8.434  20.065  0.00  0.00    +0.000 HD
BRANCH  14  17
ATOM     17  O   UNL     1       2.761   7.537  18.538  0.00  0.00    +0.000 OA
BRANCH  17  18
ATOM     18  C   UNL     1       2.355   6.933  19.770  0.00  0.00    +0.000 C 
BRANCH  18  19
ATOM     19  C   UNL     1       1.949   5.505  19.501  0.00  0.00    +0.000 A 
ATOM     20  C   UNL     1       2.053   4.960  18.215  0.00  0.00    +0.000 A 
ATOM     21  C   UNL     1       1.616   3.659  17.963  0.00  0.00    +0.000 A 
ATOM     22  C   UNL     1       1.072   2.892  18.992  0.00  0.00    +0.000 A 
ATOM     23  C   UNL     1       0.973   3.420  20.277  0.00  0.00    +0.000 A 
ATOM     24  C   UNL     1       1.412   4.719  20.532  0.00  0.00    +0.000 A 
ENDBRANCH  18  19
ENDBRANCH  17  18
ENDBRANCH  14  17
ENDBRANCH   1  13
BRANCH   1  25
ATOM     25  C   UNL     1      -0.729   9.795  18.255  0.00  0.00    +0.000 C 
BRANCH  25  26
ATOM     26  C   UNL     1      -1.823  10.850  18.025  0.00  0.00    +0.000 C 
BRANCH  26  27
ATOM     27  C   UNL     1      -2.559  10.778  16.681  0.00  0.00    +0.000 C 
BRANCH  27  28
ATOM     28  C   UNL     1      -4.002  11.259  16.800  0.00  0.00    +0.000 C 
BRANCH  28  29
ATOM     29  N   UNL     1      -4.636  10.695  18.004  0.00  0.00    +0.000 NA
ATOM     30  H   UNL     1      -4.908   9.717  17.896  0.00  0.00    +0.000 HD
BRANCH  29  31
ATOM     31  S   UNL     1      -5.954  11.543  18.589  0.00  0.00    +0.000 S 
ATOM     32  O   UNL     1      -6.383  12.472  17.579  0.00  0.00    +0.000 OA
ATOM     33  O   UNL     1      -5.672  11.941  19.944  0.00  0.00    +0.000 OA
BRANCH  31  34
ATOM     34  N   UNL     1      -7.065  10.314  18.667  0.00  0.00    +0.000 NA
ATOM     35  H   UNL     1      -7.532  10.220  17.766  0.00  0.00    +0.000 HD
ATOM     36  H   UNL     1      -7.750  10.474  19.406  0.00  0.00    +0.000 HD
ENDBRANCH  31  34
ENDBRANCH  29  31
ENDBRANCH  28  29
ENDBRANCH  27  28
ENDBRANCH  26  27
ENDBRANCH  25  26
ENDBRANCH   1  25
TORSDOF 13
ENDMDL
MODEL 4
REMARK VINA RESULT:      -7.4      1.044      1.188
REMARK  Name = 
REMARK  13 active torsions:
REMARK  status: ('A' for Active; 'I' for Inactive)
REMARK    1  A    between atoms: N_1  and  S_2
REMARK    2  A    between atoms: S_2  and  N_5
REMARK    3  A    between atoms: N_5  and  C_6
REMARK    4  A    between atoms: C_6  and  C_7
REMARK    5  A    between atoms: C_7  and  C_8
REMARK    6  A    between atoms: C_8  and  C_9
REMARK    7  A    between atoms: C_9  and  C_10
REMARK    8  A    between atoms: C_10  and  N_11
REMARK    9  A    between atoms: C_10  and  C_22
REMARK   10  A    between atoms: C_12  and  O_14
REMARK   11  A    between atoms: O_14  and  C_15
REMARK   12  A    between atoms: C_15  and  C_16
REMARK   13  A    between atoms: C_24  and  C_25
REMARK                            x       y       z     vdW  Elec       q    Type
REMARK                         _______ _______ _______ _____ _____    ______ ____
ROOT
ATOM      1  C   UNL     1       3.447   6.143  18.177  0.00  0.00    +0.000 C 
ENDROOT
BRANCH   1   2
ATOM      2  C   UNL     1       4.724   5.901  17.398  0.00  0.00    +0.000 A 
ATOM      3  N   UNL     1       4.769   5.357  16.193  0.00  0.00    +0.000 NA
ATOM      4  C   UNL     1       6.074   5.346  15.720  0.00  0.00    +0.000 A 
ATOM      5  C   UNL     1       7.007   5.885  16.585  0.00  0.00    +0.000 A 
ATOM      6  S   UNL     1       6.240   6.436  18.013  0.00  0.00    +0.000 S 
BRANCH   4   7
ATOM      7  C   UNL     1       6.402   4.842  14.392  0.00  0.00    +0.000 A 
ATOM      8  C   UNL     1       5.607   3.845  13.811  0.00  0.00    +0.000 A 
ATOM      9  C   UNL     1       5.896   3.359  12.532  0.00  0.00    +0.000 A 
ATOM     10  C   UNL     1       6.988   3.860  11.826  0.00  0.00    +0.000 A 
ATOM     11  C   UNL     1       7.788   4.848  12.394  0.00  0.00    +0.000 A 
ATOM     12  C   UNL     1       7.497   5.340  13.670  0.00  0.00    +0.000 A 
ENDBRANCH   4   7
ENDBRANCH   1   2
BRANCH   1  13
ATOM     13  N   UNL     1       2.969   7.460  17.772  0.00  0.00    +0.000 N 
ATOM     14  C   UNL     1       2.194   8.247  18.554  0.00  0.00    +0.000 C 
ATOM     15  O   UNL     1       1.930   8.023  19.729  0.00  0.00    +0.000 OA
ATOM     16  H   UNL     1       3.006   7.687  16.784  0.00  0.00    +0.000 HD
BRANCH  14  17
ATOM     17  O   UNL     1       1.714   9.273  17.813  0.00  0.00    +0.000 OA
BRANCH  17  18
ATOM     18  C   UNL     1       2.045  10.579  18.293  0.00  0.00    +0.000 C 
BRANCH  18  19
ATOM     19  C   UNL     1       0.771  11.297  18.668  0.00  0.00    +0.000 A 
ATOM     20  C   UNL     1      -0.381  10.581  19.013  0.00  0.00    +0.000 A 
ATOM     21  C   UNL     1      -1.571  11.252  19.296  0.00  0.00    +0.000 A 
ATOM     22  C   UNL     1      -1.620  12.644  19.236  0.00  0.00    +0.000 A 
ATOM     23  C   UNL     1      -0.478  13.368  18.903  0.00  0.00    +0.000 A 
ATOM     24  C   UNL     1       0.713  12.699  18.623  0.00  0.00    +0.000 A 
ENDBRANCH  18  19
ENDBRANCH  17  18
ENDBRANCH  14  17
ENDBRANCH   1  13
BRANCH   1  25
ATOM     25  C   UNL     1       2.363   5.079  17.897  0.00  0.00    +0.000 C 
BRANCH  25  26
ATOM     26  C   UNL     1       1.591   4.536  19.110  0.00  0.00    +0.000 C 
BRANCH  26  27
ATOM     27  C   UNL     1       1.255   3.039  19.082  0.00  0.00    +0.000 C 
BRANCH  27  28
ATOM     28  C   UNL     1       1.742   2.326  20.339  0.00  0.00    +0.000 C 
BRANCH  28  29
ATOM     29  N   UNL     1       3.054   2.852  20.756  0.00  0.00    +0.000 NA
ATOM     30  H   UNL     1       3.101   3.872  20.747  0.00  0.00    +0.000 HD
BRANCH  29  31
ATOM     31  S   UNL     1       4.370   2.259  19.910  0.00  0.00    +0.000 S 
ATOM     32  O   UNL     1       5.191   3.368  19.508  0.00  0.00    +0.000 OA
ATOM     33  O   UNL     1       3.901   1.261  18.983  0.00  0.00    +0.000 OA
BRANCH  31  34
ATOM     34  N   UNL     1       5.148   1.455  21.134  0.00  0.00    +0.000 NA
ATOM     35  H   UNL     1       4.778   0.508  21.209  0.00  0.00    +0.000 HD
ATOM     36  H   UNL     1       5.053   1.943  22.024  0.00  0.00    +0.000 HD
ENDBRANCH  31  34
ENDBRANCH  29  31
ENDBRANCH  28  29
ENDBRANCH  27  28
ENDBRANCH  26  27
ENDBRANCH  25  26
ENDBRANCH   1  25
TORSDOF 13
ENDMDL
MODEL 5
REMARK VINA RESULT:      -7.4      0.557      1.315
REMARK  Name = 
REMARK  13 active torsions:
REMARK  status: ('A' for Active; 'I' for Inactive)
REMARK    1  A    between atoms: N_1  and  S_2
REMARK    2  A    between atoms: S_2  and  N_5
REMARK    3  A    between atoms: N_5  and  C_6
REMARK    4  A    between atoms: C_6  and  C_7
REMARK    5  A    between atoms: C_7  and  C_8
REMARK    6  A    between atoms: C_8  and  C_9
REMARK    7  A    between atoms: C_9  and  C_10
REMARK    8  A    between atoms: C_10  and  N_11
REMARK    9  A    between atoms: C_10  and  C_22
REMARK   10  A    between atoms: C_12  and  O_14
REMARK   11  A    between atoms: O_14  and  C_15
REMARK   12  A    between atoms: C_15  and  C_16
REMARK   13  A    between atoms: C_24  and  C_25
REMARK                            x       y       z     vdW  Elec       q    Type
REMARK                         _______ _______ _______ _____ _____    ______ ____
ROOT
ATOM      1  C   UNL     1       3.379   5.948  18.253  0.00  0.00    +0.000 C 
ENDROOT
BRANCH   1   2
ATOM      2  C   UNL     1       4.658   5.735  17.469  0.00  0.00    +0.000 A 
ATOM      3  N   UNL     1       4.707   5.235  16.245  0.00  0.00    +0.000 NA
ATOM      4  C   UNL     1       6.014   5.241  15.776  0.00  0.00    +0.000 A 
ATOM      5  C   UNL     1       6.944   5.748  16.663  0.00  0.00    +0.000 A 
ATOM      6  S   UNL     1       6.173   6.247  18.108  0.00  0.00    +0.000 S 
BRANCH   4   7
ATOM      7  C   UNL     1       6.345   4.787  14.431  0.00  0.00    +0.000 A 
ATOM      8  C   UNL     1       7.435   5.351  13.755  0.00  0.00    +0.000 A 
ATOM      9  C   UNL     1       7.778   4.919  12.470  0.00  0.00    +0.000 A 
ATOM     10  C   UNL     1       7.028   3.924  11.846  0.00  0.00    +0.000 A 
ATOM     11  C   UNL     1       5.940   3.357  12.506  0.00  0.00    +0.000 A 
ATOM     12  C   UNL     1       5.600   3.784  13.793  0.00  0.00    +0.000 A 
ENDBRANCH   4   7
ENDBRANCH   1   2
BRANCH   1  13
ATOM     13  N   UNL     1       3.057   7.365  18.123  0.00  0.00    +0.000 N 
ATOM     14  C   UNL     1       2.255   8.030  18.987  0.00  0.00    +0.000 C 
ATOM     15  O   UNL     1       1.832   7.576  20.043  0.00  0.00    +0.000 OA
ATOM     16  H   UNL     1       3.232   7.805  17.226  0.00  0.00    +0.000 HD
BRANCH  14  17
ATOM     17  O   UNL     1       1.950   9.241  18.465  0.00  0.00    +0.000 OA
BRANCH  17  18
ATOM     18  C   UNL     1       0.681   9.320  17.808  0.00  0.00    +0.000 C 
BRANCH  18  19
ATOM     19  C   UNL     1      -0.153  10.379  18.487  0.00  0.00    +0.000 A 
ATOM     20  C   UNL     1      -1.530  10.470  18.247  0.00  0.00    +0.000 A 
ATOM     21  C   UNL     1      -2.281  11.491  18.830  0.00  0.00    +0.000 A 
ATOM     22  C   UNL     1      -1.664  12.429  19.657  0.00  0.00    +0.000 A 
ATOM     23  C   UNL     1      -0.298  12.342  19.911  0.00  0.00    +0.000 A 
ATOM     24  C   UNL     1       0.455  11.321  19.332  0.00  0.00    +0.000 A 
ENDBRANCH  18  19
ENDBRANCH  17  18
ENDBRANCH  14  17
ENDBRANCH   1  13
BRANCH   1  25
ATOM     25  C   UNL     1       2.205   5.091  17.729  0.00  0.00    +0.000 C 
BRANCH  25  26
ATOM     26  C   UNL     1       1.525   4.153  18.739  0.00  0.00    +0.000 C 
BRANCH  26  27
ATOM     27  C   UNL     1       1.591   2.654  18.417  0.00  0.00    +0.000 C 
BRANCH  27  28
ATOM     28  C   UNL     1       2.997   2.223  18.012  0.00  0.00    +0.000 C 
BRANCH  28  29
ATOM     29  N   UNL     1       3.580   1.336  19.033  0.00  0.00    +0.000 NA
ATOM     30  H   UNL     1       2.883   0.775  19.526  0.00  0.00    +0.000 HD
BRANCH  29  31
ATOM     31  S   UNL     1       4.549   2.086  20.172  0.00  0.00    +0.000 S 
ATOM     32  O   UNL     1       5.043   3.314  19.612  0.00  0.00    +0.000 OA
ATOM     33  O   UNL     1       5.413   1.094  20.758  0.00  0.00    +0.000 OA
BRANCH  31  34
ATOM     34  N   UNL     1       3.402   2.461  21.311  0.00  0.00    +0.000 NA
ATOM     35  H   UNL     1       2.721   1.704  21.371  0.00  0.00    +0.000 HD
ATOM     36  H   UNL     1       2.933   3.341  21.096  0.00  0.00    +0.000 HD
ENDBRANCH  31  34
ENDBRANCH  29  31
ENDBRANCH  28  29
ENDBRANCH  27  28
ENDBRANCH  26  27
ENDBRANCH  25  26
ENDBRANCH   1  25
TORSDOF 13
ENDMDL
MODEL 6
REMARK VINA RESULT:      -7.4      4.286      9.629
REMARK  Name = 
REMARK  13 active torsions:
REMARK  status: ('A' for Active; 'I' for Inactive)
REMARK    1  A    between atoms: N_1  and  S_2
REMARK    2  A    between atoms: S_2  and  N_5
REMARK    3  A    between atoms: N_5  and  C_6
REMARK    4  A    between atoms: C_6  and  C_7
REMARK    5  A    between atoms: C_7  and  C_8
REMARK    6  A    between atoms: C_8  and  C_9
REMARK    7  A    between atoms: C_9  and  C_10
REMARK    8  A    between atoms: C_10  and  N_11
REMARK    9  A    between atoms: C_10  and  C_22
REMARK   10  A    between atoms: C_12  and  O_14
REMARK   11  A    between atoms: O_14  and  C_15
REMARK   12  A    between atoms: C_15  and  C_16
REMARK   13  A    between atoms: C_24  and  C_25
REMARK                            x       y       z     vdW  Elec       q    Type
REMARK                         _______ _______ _______ _____ _____    ______ ____
ROOT
ATOM      1  C   UNL     1       6.535   6.582  17.434  0.00  0.00    +0.000 C 
ENDROOT
BRANCH   1   2
ATOM      2  C   UNL     1       5.075   6.386  17.788  0.00  0.00    +0.000 A 
ATOM      3  N   UNL     1       4.611   5.376  18.506  0.00  0.00    +0.000 NA
ATOM      4  C   UNL     1       3.248   5.525  18.720  0.00  0.00    +0.000 A 
ATOM      5  C   UNL     1       2.694   6.657  18.153  0.00  0.00    +0.000 A 
ATOM      6  S   UNL     1       3.901   7.567  17.350  0.00  0.00    +0.000 S 
BRANCH   4   7
ATOM      7  C   UNL     1       2.492   4.573  19.525  0.00  0.00    +0.000 A 
ATOM      8  C   UNL     1       1.488   3.800  18.926  0.00  0.00    +0.000 A 
ATOM      9  C   UNL     1       0.761   2.871  19.678  0.00  0.00    +0.000 A 
ATOM     10  C   UNL     1       1.026   2.713  21.037  0.00  0.00    +0.000 A 
ATOM     11  C   UNL     1       2.019   3.478  21.644  0.00  0.00    +0.000 A 
ATOM     12  C   UNL     1       2.750   4.403  20.893  0.00  0.00    +0.000 A 
ENDBRANCH   4   7
ENDBRANCH   1   2
BRANCH   1  13
ATOM     13  N   UNL     1       6.716   5.983  16.117  0.00  0.00    +0.000 N 
ATOM     14  C   UNL     1       7.428   4.852  15.902  0.00  0.00    +0.000 C 
ATOM     15  O   UNL     1       7.870   4.125  16.781  0.00  0.00    +0.000 OA
ATOM     16  H   UNL     1       6.516   6.562  15.309  0.00  0.00    +0.000 HD
BRANCH  14  17
ATOM     17  O   UNL     1       7.620   4.697  14.570  0.00  0.00    +0.000 OA
BRANCH  17  18
ATOM     18  C   UNL     1       6.474   4.958  13.754  0.00  0.00    +0.000 C 
BRANCH  18  19
ATOM     19  C   UNL     1       6.349   3.859  12.726  0.00  0.00    +0.000 A 
ATOM     20  C   UNL     1       5.097   3.329  12.392  0.00  0.00    +0.000 A 
ATOM     21  C   UNL     1       4.998   2.270  11.488  0.00  0.00    +0.000 A 
ATOM     22  C   UNL     1       6.148   1.733  10.911  0.00  0.00    +0.000 A 
ATOM     23  C   UNL     1       7.398   2.260  11.228  0.00  0.00    +0.000 A 
ATOM     24  C   UNL     1       7.499   3.320  12.129  0.00  0.00    +0.000 A 
ENDBRANCH  18  19
ENDBRANCH  17  18
ENDBRANCH  14  17
ENDBRANCH   1  13
BRANCH   1  25
ATOM     25  C   UNL     1       6.949   8.069  17.398  0.00  0.00    +0.000 C 
BRANCH  25  26
ATOM     26  C   UNL     1       8.235   8.452  18.147  0.00  0.00    +0.000 C 
BRANCH  26  27
ATOM     27  C   UNL     1       8.659   9.924  18.053  0.00  0.00    +0.000 C 
BRANCH  27  28
ATOM     28  C   UNL     1       9.433  10.370  19.289  0.00  0.00    +0.000 C 
BRANCH  28  29
ATOM     29  N   UNL     1       9.204  11.801  19.553  0.00  0.00    +0.000 NA
ATOM     30  H   UNL     1       8.943  12.329  18.719  0.00  0.00    +0.000 HD
BRANCH  29  31
ATOM     31  S   UNL     1      10.462  12.605  20.308  0.00  0.00    +0.000 S 
ATOM     32  O   UNL     1      10.628  13.886  19.678  0.00  0.00    +0.000 OA
ATOM     33  O   UNL     1      11.550  11.679  20.488  0.00  0.00    +0.000 OA
BRANCH  31  34
ATOM     34  N   UNL     1       9.781  12.847  21.801  0.00  0.00    +0.000 NA
ATOM     35  H   UNL     1       9.047  13.551  21.731  0.00  0.00    +0.000 HD
ATOM     36  H   UNL     1      10.478  13.131  22.491  0.00  0.00    +0.000 HD
ENDBRANCH  31  34
ENDBRANCH  29  31
ENDBRANCH  28  29
ENDBRANCH  27  28
ENDBRANCH  26  27
ENDBRANCH  25  26
ENDBRANCH   1  25
TORSDOF 13
ENDMDL
MODEL 7
REMARK VINA RESULT:      -7.4      5.214     11.293
REMARK  Name = 
REMARK  13 active torsions:
REMARK  status: ('A' for Active; 'I' for Inactive)
REMARK    1  A    between atoms: N_1  and  S_2
REMARK    2  A    between atoms: S_2  and  N_5
REMARK    3  A    between atoms: N_5  and  C_6
REMARK    4  A    between atoms: C_6  and  C_7
REMARK    5  A    between atoms: C_7  and  C_8
REMARK    6  A    between atoms: C_8  and  C_9
REMARK    7  A    between atoms: C_9  and  C_10
REMARK    8  A    between atoms: C_10  and  N_11
REMARK    9  A    between atoms: C_10  and  C_22
REMARK   10  A    between atoms: C_12  and  O_14
REMARK   11  A    between atoms: O_14  and  C_15
REMARK   12  A    between atoms: C_15  and  C_16
REMARK   13  A    between atoms: C_24  and  C_25
REMARK                            x       y       z     vdW  Elec       q    Type
REMARK                         _______ _______ _______ _____ _____    ______ ____
ROOT
ATOM      1  C   UNL     1       0.131  10.430  19.131  0.00  0.00    +0.000 C 
ENDROOT
BRANCH   1   2
ATOM      2  C   UNL     1      -0.262  10.596  20.585  0.00  0.00    +0.000 A 
ATOM      3  N   UNL     1      -0.882  11.657  21.072  0.00  0.00    +0.000 NA
ATOM      4  C   UNL     1      -1.171  11.469  22.417  0.00  0.00    +0.000 A 
ATOM      5  C   UNL     1      -0.757  10.256  22.933  0.00  0.00    +0.000 A 
ATOM      6  S   UNL     1      -0.008   9.319  21.712  0.00  0.00    +0.000 S 
BRANCH   4   7
ATOM      7  C   UNL     1      -1.897  12.469  23.190  0.00  0.00    +0.000 A 
ATOM      8  C   UNL     1      -3.186  12.183  23.660  0.00  0.00    +0.000 A 
ATOM      9  C   UNL     1      -3.894  13.124  24.416  0.00  0.00    +0.000 A 
ATOM     10  C   UNL     1      -3.322  14.363  24.700  0.00  0.00    +0.000 A 
ATOM     11  C   UNL     1      -2.043  14.660  24.235  0.00  0.00    +0.000 A 
ATOM     12  C   UNL     1      -1.332  13.719  23.485  0.00  0.00    +0.000 A 
ENDBRANCH   4   7
ENDBRANCH   1   2
BRANCH   1  13
ATOM     13  N   UNL     1       0.969   9.238  19.071  0.00  0.00    +0.000 N 
ATOM     14  C   UNL     1       1.963   9.067  18.168  0.00  0.00    +0.000 C 
ATOM     15  O   UNL     1       2.373   9.933  17.406  0.00  0.00    +0.000 OA
ATOM     16  H   UNL     1       0.637   8.409  19.553  0.00  0.00    +0.000 HD
BRANCH  14  17
ATOM     17  O   UNL     1       2.377   7.779  18.205  0.00  0.00    +0.000 OA
BRANCH  17  18
ATOM     18  C   UNL     1       2.404   7.183  19.506  0.00  0.00    +0.000 C 
BRANCH  18  19
ATOM     19  C   UNL     1       1.945   5.750  19.394  0.00  0.00    +0.000 A 
ATOM     20  C   UNL     1       1.394   5.085  20.497  0.00  0.00    +0.000 A 
ATOM     21  C   UNL     1       1.031   3.741  20.402  0.00  0.00    +0.000 A 
ATOM     22  C   UNL     1       1.216   3.050  19.205  0.00  0.00    +0.000 A 
ATOM     23  C   UNL     1       1.753   3.703  18.099  0.00  0.00    +0.000 A 
ATOM     24  C   UNL     1       2.113   5.047  18.191  0.00  0.00    +0.000 A 
ENDBRANCH  18  19
ENDBRANCH  17  18
ENDBRANCH  14  17
ENDBRANCH   1  13
BRANCH   1  25
ATOM     25  C   UNL     1      -1.087  10.266  18.195  0.00  0.00    +0.000 C 
BRANCH  25  26
ATOM     26  C   UNL     1      -1.850  11.545  17.816  0.00  0.00    +0.000 C 
BRANCH  26  27
ATOM     27  C   UNL     1      -3.364  11.394  17.615  0.00  0.00    +0.000 C 
BRANCH  27  28
ATOM     28  C   UNL     1      -4.150  11.962  18.792  0.00  0.00    +0.000 C 
BRANCH  28  29
ATOM     29  N   UNL     1      -5.376  12.628  18.320  0.00  0.00    +0.000 NA
ATOM     30  H   UNL     1      -5.398  13.627  18.528  0.00  0.00    +0.000 HD
BRANCH  29  31
ATOM     31  S   UNL     1      -6.813  11.951  18.848  0.00  0.00    +0.000 S 
ATOM     32  O   UNL     1      -6.847  10.575  18.434  0.00  0.00    +0.000 OA
ATOM     33  O   UNL     1      -7.881  12.876  18.567  0.00  0.00    +0.000 OA
BRANCH  31  34
ATOM     34  N   UNL     1      -6.555  11.992  20.486  0.00  0.00    +0.000 NA
ATOM     35  H   UNL     1      -5.649  12.418  20.678  0.00  0.00    +0.000 HD
ATOM     36  H   UNL     1      -6.602  11.060  20.897  0.00  0.00    +0.000 HD
ENDBRANCH  31  34
ENDBRANCH  29  31
ENDBRANCH  28  29
ENDBRANCH  27  28
ENDBRANCH  26  27
ENDBRANCH  25  26
ENDBRANCH   1  25
TORSDOF 13
ENDMDL
MODEL 8
REMARK VINA RESULT:      -7.4      3.746      7.604
REMARK  Name = 
REMARK  13 active torsions:
REMARK  status: ('A' for Active; 'I' for Inactive)
REMARK    1  A    between atoms: N_1  and  S_2
REMARK    2  A    between atoms: S_2  and  N_5
REMARK    3  A    between atoms: N_5  and  C_6
REMARK    4  A    between atoms: C_6  and  C_7
REMARK    5  A    between atoms: C_7  and  C_8
REMARK    6  A    between atoms: C_8  and  C_9
REMARK    7  A    between atoms: C_9  and  C_10
REMARK    8  A    between atoms: C_10  and  N_11
REMARK    9  A    between atoms: C_10  and  C_22
REMARK   10  A    between atoms: C_12  and  O_14
REMARK   11  A    between atoms: O_14  and  C_15
REMARK   12  A    between atoms: C_15  and  C_16
REMARK   13  A    between atoms: C_24  and  C_25
REMARK                            x       y       z     vdW  Elec       q    Type
REMARK                         _______ _______ _______ _____ _____    ______ ____
ROOT
ATOM      1  C   UNL     1       5.407   6.562  16.560  0.00  0.00    +0.000 C 
ENDROOT
BRANCH   1   2
ATOM      2  C   UNL     1       6.591   7.118  17.325  0.00  0.00    +0.000 A 
ATOM      3  N   UNL     1       6.965   8.387  17.300  0.00  0.00    +0.000 NA
ATOM      4  C   UNL     1       8.032   8.590  18.164  0.00  0.00    +0.000 A 
ATOM      5  C   UNL     1       8.455   7.460  18.837  0.00  0.00    +0.000 A 
ATOM      6  S   UNL     1       7.491   6.115  18.397  0.00  0.00    +0.000 S 
BRANCH   4   7
ATOM      7  C   UNL     1       8.612   9.913  18.365  0.00  0.00    +0.000 A 
ATOM      8  C   UNL     1       8.240  10.970  17.524  0.00  0.00    +0.000 A 
ATOM      9  C   UNL     1       8.774  12.249  17.709  0.00  0.00    +0.000 A 
ATOM     10  C   UNL     1       9.691  12.481  18.732  0.00  0.00    +0.000 A 
ATOM     11  C   UNL     1      10.072  11.437  19.573  0.00  0.00    +0.000 A 
ATOM     12  C   UNL     1       9.535  10.159  19.393  0.00  0.00    +0.000 A 
ENDBRANCH   4   7
ENDBRANCH   1   2
BRANCH   1  13
ATOM     13  N   UNL     1       5.177   5.223  17.089  0.00  0.00    +0.000 N 
ATOM     14  C   UNL     1       4.967   4.137  16.308  0.00  0.00    +0.000 C 
ATOM     15  O   UNL     1       5.091   4.116  15.090  0.00  0.00    +0.000 OA
ATOM     16  H   UNL     1       4.918   5.144  18.066  0.00  0.00    +0.000 HD
BRANCH  14  17
ATOM     17  O   UNL     1       4.540   3.112  17.081  0.00  0.00    +0.000 OA
BRANCH  17  18
ATOM     18  C   UNL     1       4.583   3.352  18.491  0.00  0.00    +0.000 C 
BRANCH  18  19
ATOM     19  C   UNL     1       3.188   3.218  19.051  0.00  0.00    +0.000 A 
ATOM     20  C   UNL     1       2.185   2.562  18.327  0.00  0.00    +0.000 A 
ATOM     21  C   UNL     1       0.883   2.498  18.825  0.00  0.00    +0.000 A 
ATOM     22  C   UNL     1       0.572   3.090  20.048  0.00  0.00    +0.000 A 
ATOM     23  C   UNL     1       1.564   3.737  20.782  0.00  0.00    +0.000 A 
ATOM     24  C   UNL     1       2.866   3.798  20.288  0.00  0.00    +0.000 A 
ENDBRANCH  18  19
ENDBRANCH  17  18
ENDBRANCH  14  17
ENDBRANCH   1  13
BRANCH   1  25
ATOM     25  C   UNL     1       4.133   7.419  16.723  0.00  0.00    +0.000 C 
BRANCH  25  26
ATOM     26  C   UNL     1       3.242   7.117  17.938  0.00  0.00    +0.000 C 
BRANCH  26  27
ATOM     27  C   UNL     1       1.910   7.877  18.005  0.00  0.00    +0.000 C 
BRANCH  27  28
ATOM     28  C   UNL     1       2.110   9.382  17.860  0.00  0.00    +0.000 C 
BRANCH  28  29
ATOM     29  N   UNL     1       0.811  10.066  17.739  0.00  0.00    +0.000 NA
ATOM     30  H   UNL     1       0.625  10.416  16.798  0.00  0.00    +0.000 HD
BRANCH  29  31
ATOM     31  S   UNL     1       0.549  11.313  18.823  0.00  0.00    +0.000 S 
ATOM     32  O   UNL     1       1.739  12.118  18.888  0.00  0.00    +0.000 OA
ATOM     33  O   UNL     1      -0.089  10.770  19.995  0.00  0.00    +0.000 OA
BRANCH  31  34
ATOM     34  N   UNL     1      -0.608  12.165  17.994  0.00  0.00    +0.000 NA
ATOM     35  H   UNL     1      -0.301  13.130  17.876  0.00  0.00    +0.000 HD
ATOM     36  H   UNL     1      -1.509  12.137  18.471  0.00  0.00    +0.000 HD
ENDBRANCH  31  34
ENDBRANCH  29  31
ENDBRANCH  28  29
ENDBRANCH  27  28
ENDBRANCH  26  27
ENDBRANCH  25  26
ENDBRANCH   1  25
TORSDOF 13
ENDMDL
MODEL 9
REMARK VINA RESULT:      -7.3      0.711      1.398
REMARK  Name = 
REMARK  13 active torsions:
REMARK  status: ('A' for Active; 'I' for Inactive)
REMARK    1  A    between atoms: N_1  and  S_2
REMARK    2  A    between atoms: S_2  and  N_5
REMARK    3  A    between atoms: N_5  and  C_6
REMARK    4  A    between atoms: C_6  and  C_7
REMARK    5  A    between atoms: C_7  and  C_8
REMARK    6  A    between atoms: C_8  and  C_9
REMARK    7  A    between atoms: C_9  and  C_10
REMARK    8  A    between atoms: C_10  and  N_11
REMARK    9  A    between atoms: C_10  and  C_22
REMARK   10  A    between atoms: C_12  and  O_14
REMARK   11  A    between atoms: O_14  and  C_15
REMARK   12  A    between atoms: C_15  and  C_16
REMARK   13  A    between atoms: C_24  and  C_25
REMARK                            x       y       z     vdW  Elec       q    Type
REMARK                         _______ _______ _______ _____ _____    ______ ____
ROOT
ATOM      1  C   UNL     1       3.293   5.985  18.325  0.00  0.00    +0.000 C 
ENDROOT
BRANCH   1   2
ATOM      2  C   UNL     1       4.562   5.856  17.509  0.00  0.00    +0.000 A 
ATOM      3  N   UNL     1       4.633   5.260  16.330  0.00  0.00    +0.000 NA
ATOM      4  C   UNL     1       5.914   5.379  15.808  0.00  0.00    +0.000 A 
ATOM      5  C   UNL     1       6.803   6.068  16.610  0.00  0.00    +0.000 A 
ATOM      6  S   UNL     1       6.024   6.597  18.039  0.00  0.00    +0.000 S 
BRANCH   4   7
ATOM      7  C   UNL     1       6.255   4.851  14.493  0.00  0.00    +0.000 A 
ATOM      8  C   UNL     1       7.420   5.288  13.849  0.00  0.00    +0.000 A 
ATOM      9  C   UNL     1       7.772   4.783  12.593  0.00  0.00    +0.000 A 
ATOM     10  C   UNL     1       6.957   3.842  11.966  0.00  0.00    +0.000 A 
ATOM     11  C   UNL     1       5.794   3.402  12.594  0.00  0.00    +0.000 A 
ATOM     12  C   UNL     1       5.444   3.902  13.852  0.00  0.00    +0.000 A 
ENDBRANCH   4   7
ENDBRANCH   1   2
BRANCH   1  13
ATOM     13  N   UNL     1       2.907   7.389  18.254  0.00  0.00    +0.000 N 
ATOM     14  C   UNL     1       2.185   8.015  19.213  0.00  0.00    +0.000 C 
ATOM     15  O   UNL     1       1.903   7.535  20.303  0.00  0.00    +0.000 OA
ATOM     16  H   UNL     1       2.962   7.844  17.349  0.00  0.00    +0.000 HD
BRANCH  14  17
ATOM     17  O   UNL     1       1.778   9.219  18.746  0.00  0.00    +0.000 OA
BRANCH  17  18
ATOM     18  C   UNL     1       0.747   9.172  17.755  0.00  0.00    +0.000 C 
BRANCH  18  19
ATOM     19  C   UNL     1      -0.374  10.090  18.176  0.00  0.00    +0.000 A 
ATOM     20  C   UNL     1      -0.263  10.876  19.330  0.00  0.00    +0.000 A 
ATOM     21  C   UNL     1      -1.330  11.673  19.746  0.00  0.00    +0.000 A 
ATOM     22  C   UNL     1      -2.516  11.692  19.014  0.00  0.00    +0.000 A 
ATOM     23  C   UNL     1      -2.635  10.922  17.859  0.00  0.00    +0.000 A 
ATOM     24  C   UNL     1      -1.569  10.128  17.440  0.00  0.00    +0.000 A 
ENDBRANCH  18  19
ENDBRANCH  17  18
ENDBRANCH  14  17
ENDBRANCH   1  13
BRANCH   1  25
ATOM     25  C   UNL     1       2.146   5.096  17.795  0.00  0.00    +0.000 C 
BRANCH  25  26
ATOM     26  C   UNL     1       1.388   4.248  18.829  0.00  0.00    +0.000 C 
BRANCH  26  27
ATOM     27  C   UNL     1       1.115   2.790  18.437  0.00  0.00    +0.000 C 
BRANCH  27  28
ATOM     28  C   UNL     1       1.874   1.812  19.328  0.00  0.00    +0.000 C 
BRANCH  28  29
ATOM     29  N   UNL     1       3.277   1.700  18.892  0.00  0.00    +0.000 NA
ATOM     30  H   UNL     1       3.540   0.752  18.619  0.00  0.00    +0.000 HD
BRANCH  29  31
ATOM     31  S   UNL     1       4.417   2.267  19.978  0.00  0.00    +0.000 S 
ATOM     32  O   UNL     1       5.203   1.155  20.436  0.00  0.00    +0.000 OA
ATOM     33  O   UNL     1       3.769   3.187  20.877  0.00  0.00    +0.000 OA
BRANCH  31  34
ATOM     34  N   UNL     1       5.353   3.174  18.951  0.00  0.00    +0.000 NA
ATOM     35  H   UNL     1       4.813   3.414  18.120  0.00  0.00    +0.000 HD
ATOM     36  H   UNL     1       6.206   2.681  18.687  0.00  0.00    +0.000 HD
ENDBRANCH  31  34
ENDBRANCH  29  31
ENDBRANCH  28  29
ENDBRANCH  27  28
ENDBRANCH  26  27
ENDBRANCH  25  26
ENDBRANCH   1  25
TORSDOF 13
ENDMDL
