MODEL 1
REMARK VINA RESULT:      -6.7      0.000      0.000
REMARK  Name = 
REMARK  6 active torsions:
REMARK  status: ('A' for Active; 'I' for Inactive)
REMARK    1  A    between atoms: C_1  and  C_2
REMARK    2  A    between atoms: C_2  and  C_3
REMARK    3  A    between atoms: C_2  and  N_19
REMARK    4  A    between atoms: C_5  and  O_6
REMARK    5  A    between atoms: N_19  and  C_20
REMARK    6  A    between atoms: N_19  and  C_21
REMARK                            x       y       z     vdW  Elec       q    Type
REMARK                         _______ _______ _______ _____ _____    ______ ____
ROOT
ATOM      1  C   UNL     1       3.715   4.261  18.954  0.00  0.00    +0.000 A 
ATOM      2  C   UNL     1       4.561   3.595  18.033  0.00  0.00    +0.000 A 
ATOM      3  C   UNL     1       4.993   4.183  16.852  0.00  0.00    +0.000 A 
ATOM      4  C   UNL     1       4.622   5.477  16.567  0.00  0.00    +0.000 A 
ATOM      5  C   UNL     1       3.811   6.196  17.436  0.00  0.00    +0.000 A 
ATOM      6  O   UNL     1       3.598   7.461  17.109  0.00  0.00    +0.000 OA
ATOM      7  C   UNL     1       2.914   8.301  17.849  0.00  0.00    +0.000 A 
ATOM      8  O   UNL     1       2.821   9.463  17.485  0.00  0.00    +0.000 OA
ATOM      9  C   UNL     1       2.279   7.860  19.015  0.00  0.00    +0.000 A 
ATOM     10  C   UNL     1       1.538   8.773  19.794  0.00  0.00    +0.000 A 
ATOM     11  C   UNL     1       0.848   8.345  20.917  0.00  0.00    +0.000 A 
ATOM     12  C   UNL     1       0.841   7.001  21.243  0.00  0.00    +0.000 A 
ATOM     13  C   UNL     1       1.580   6.087  20.494  0.00  0.00    +0.000 A 
ATOM     14  C   UNL     1       2.386   6.484  19.395  0.00  0.00    +0.000 A 
ATOM     15  C   UNL     1       3.267   5.618  18.633  0.00  0.00    +0.000 A 
ENDROOT
BRANCH   1  17
ATOM     16  C   UNL     1       4.422   2.217  20.209  0.00  0.00    +0.000 C 
ATOM     17  C   UNL     1       3.484   3.445  20.252  0.00  0.00    +0.000 C 
BRANCH  17  18
ATOM     18  N   UNL     1       2.056   3.031  20.420  0.00  0.00    +0.000 NA
ATOM     19  C   UNL     1       1.646   2.003  19.437  0.00  0.00    +0.000 C 
ATOM     20  C   UNL     1       1.750   2.507  21.765  0.00  0.00    +0.000 C 
ENDBRANCH  17  18
ENDBRANCH   1  17
BRANCH   3  21
ATOM     21  O   UNL     1       5.801   3.521  15.999  0.00  0.00    +0.000 OA
ATOM     22  H   UNL     1       6.745   3.715  15.925  0.00  0.00    +0.000 HD
ENDBRANCH   3  21
TORSDOF 3
ENDMDL
MODEL 2
REMARK VINA RESULT:      -6.4      2.562      4.187
REMARK  Name = 
REMARK  6 active torsions:
REMARK  status: ('A' for Active; 'I' for Inactive)
REMARK    1  A    between atoms: C_1  and  C_2
REMARK    2  A    between atoms: C_2  and  C_3
REMARK    3  A    between atoms: C_2  and  N_19
REMARK    4  A    between atoms: C_5  and  O_6
REMARK    5  A    between atoms: N_19  and  C_20
REMARK    6  A    between atoms: N_19  and  C_21
REMARK                            x       y       z     vdW  Elec       q    Type
REMARK                         _______ _______ _______ _____ _____    ______ ____
ROOT
ATOM      1  C   UNL     1       3.201   5.072  18.757  0.00  0.00    +0.000 A 
ATOM      2  C   UNL     1       3.339   3.820  19.403  0.00  0.00    +0.000 A 
ATOM      3  C   UNL     1       2.834   3.571  20.673  0.00  0.00    +0.000 A 
ATOM      4  C   UNL     1       2.139   4.562  21.328  0.00  0.00    +0.000 A 
ATOM      5  C   UNL     1       1.948   5.807  20.744  0.00  0.00    +0.000 A 
ATOM      6  O   UNL     1       1.182   6.648  21.422  0.00  0.00    +0.000 OA
ATOM      7  C   UNL     1       0.844   7.839  20.987  0.00  0.00    +0.000 A 
ATOM      8  O   UNL     1       0.088   8.519  21.663  0.00  0.00    +0.000 OA
ATOM      9  C   UNL     1       1.367   8.328  19.785  0.00  0.00    +0.000 A 
ATOM     10  C   UNL     1       1.001   9.614  19.337  0.00  0.00    +0.000 A 
ATOM     11  C   UNL     1       1.558  10.144  18.182  0.00  0.00    +0.000 A 
ATOM     12  C   UNL     1       2.521   9.426  17.498  0.00  0.00    +0.000 A 
ATOM     13  C   UNL     1       2.883   8.148  17.917  0.00  0.00    +0.000 A 
ATOM     14  C   UNL     1       2.273   7.515  19.032  0.00  0.00    +0.000 A 
ATOM     15  C   UNL     1       2.513   6.152  19.469  0.00  0.00    +0.000 A 
ENDROOT
BRANCH   1  17
ATOM     16  C   UNL     1       3.703   3.590  16.806  0.00  0.00    +0.000 C 
ATOM     17  C   UNL     1       3.730   5.055  17.299  0.00  0.00    +0.000 C 
BRANCH  17  18
ATOM     18  N   UNL     1       5.104   5.640  17.184  0.00  0.00    +0.000 NA
ATOM     19  C   UNL     1       6.167   4.620  17.319  0.00  0.00    +0.000 C 
ATOM     20  C   UNL     1       5.332   6.356  15.914  0.00  0.00    +0.000 C 
ENDBRANCH  17  18
ENDBRANCH   1  17
BRANCH   3  21
ATOM     21  O   UNL     1       2.981   2.365  21.257  0.00  0.00    +0.000 OA
ATOM     22  H   UNL     1       3.803   2.097  21.690  0.00  0.00    +0.000 HD
ENDBRANCH   3  21
TORSDOF 3
ENDMDL
MODEL 3
REMARK VINA RESULT:      -6.1      7.321      9.673
REMARK  Name = 
REMARK  6 active torsions:
REMARK  status: ('A' for Active; 'I' for Inactive)
REMARK    1  A    between atoms: C_1  and  C_2
REMARK    2  A    between atoms: C_2  and  C_3
REMARK    3  A    between atoms: C_2  and  N_19
REMARK    4  A    between atoms: C_5  and  O_6
REMARK    5  A    between atoms: N_19  and  C_20
REMARK    6  A    between atoms: N_19  and  C_21
REMARK                            x       y       z     vdW  Elec       q    Type
REMARK                         _______ _______ _______ _____ _____    ______ ____
ROOT
ATOM      1  C   UNL     1      -4.313  11.578  18.087  0.00  0.00    +0.000 A 
ATOM      2  C   UNL     1      -4.574  11.132  16.768  0.00  0.00    +0.000 A 
ATOM      3  C   UNL     1      -3.582  10.631  15.936  0.00  0.00    +0.000 A 
ATOM      4  C   UNL     1      -2.294  10.525  16.409  0.00  0.00    +0.000 A 
ATOM      5  C   UNL     1      -1.972  10.924  17.700  0.00  0.00    +0.000 A 
ATOM      6  O   UNL     1      -0.727  10.686  18.080  0.00  0.00    +0.000 OA
ATOM      7  C   UNL     1      -0.272  10.937  19.285  0.00  0.00    +0.000 A 
ATOM      8  O   UNL     1       0.880  10.630  19.554  0.00  0.00    +0.000 OA
ATOM      9  C   UNL     1      -1.084  11.573  20.230  0.00  0.00    +0.000 A 
ATOM     10  C   UNL     1      -0.576  11.845  21.517  0.00  0.00    +0.000 A 
ATOM     11  C   UNL     1      -1.342  12.531  22.447  0.00  0.00    +0.000 A 
ATOM     12  C   UNL     1      -2.592  13.002  22.089  0.00  0.00    +0.000 A 
ATOM     13  C   UNL     1      -3.116  12.728  20.827  0.00  0.00    +0.000 A 
ATOM     14  C   UNL     1      -2.420  11.944  19.870  0.00  0.00    +0.000 A 
ATOM     15  C   UNL     1      -2.935  11.524  18.580  0.00  0.00    +0.000 A 
ENDROOT
BRANCH   1  17
ATOM     16  C   UNL     1      -6.631  10.828  18.652  0.00  0.00    +0.000 C 
ATOM     17  C   UNL     1      -5.604  11.966  18.854  0.00  0.00    +0.000 C 
BRANCH  17  18
ATOM     18  N   UNL     1      -6.159  13.282  18.407  0.00  0.00    +0.000 NA
ATOM     19  C   UNL     1      -7.524  13.160  17.847  0.00  0.00    +0.000 C 
ATOM     20  C   UNL     1      -6.209  14.293  19.482  0.00  0.00    +0.000 C 
ENDBRANCH  17  18
ENDBRANCH   1  17
BRANCH   3  21
ATOM     21  O   UNL     1      -3.867  10.211  14.686  0.00  0.00    +0.000 OA
ATOM     22  H   UNL     1      -3.243   9.696  14.159  0.00  0.00    +0.000 HD
ENDBRANCH   3  21
TORSDOF 3
ENDMDL
MODEL 4
REMARK VINA RESULT:      -6.1      2.525      4.216
REMARK  Name = 
REMARK  6 active torsions:
REMARK  status: ('A' for Active; 'I' for Inactive)
REMARK    1  A    between atoms: C_1  and  C_2
REMARK    2  A    between atoms: C_2  and  C_3
REMARK    3  A    between atoms: C_2  and  N_19
REMARK    4  A    between atoms: C_5  and  O_6
REMARK    5  A    between atoms: N_19  and  C_20
REMARK    6  A    between atoms: N_19  and  C_21
REMARK                            x       y       z     vdW  Elec       q    Type
REMARK                         _______ _______ _______ _____ _____    ______ ____
ROOT
ATOM      1  C   UNL     1       4.535   4.737  18.020  0.00  0.00    +0.000 A 
ATOM      2  C   UNL     1       4.945   3.456  18.461  0.00  0.00    +0.000 A 
ATOM      3  C   UNL     1       4.505   2.897  19.653  0.00  0.00    +0.000 A 
ATOM      4  C   UNL     1       3.605   3.589  20.432  0.00  0.00    +0.000 A 
ATOM      5  C   UNL     1       3.144   4.841  20.048  0.00  0.00    +0.000 A 
ATOM      6  O   UNL     1       2.209   5.371  20.822  0.00  0.00    +0.000 OA
ATOM      7  C   UNL     1       1.617   6.515  20.571  0.00  0.00    +0.000 A 
ATOM      8  O   UNL     1       0.727   6.891  21.318  0.00  0.00    +0.000 OA
ATOM      9  C   UNL     1       2.022   7.298  19.485  0.00  0.00    +0.000 A 
ATOM     10  C   UNL     1       1.381   8.529  19.235  0.00  0.00    +0.000 A 
ATOM     11  C   UNL     1       1.809   9.351  18.204  0.00  0.00    +0.000 A 
ATOM     12  C   UNL     1       2.910   8.985  17.452  0.00  0.00    +0.000 A 
ATOM     13  C   UNL     1       3.545   7.765  17.674  0.00  0.00    +0.000 A 
ATOM     14  C   UNL     1       3.088   6.838  18.647  0.00  0.00    +0.000 A 
ATOM     15  C   UNL     1       3.623   5.508  18.868  0.00  0.00    +0.000 A 
ENDROOT
BRANCH   1  17
ATOM     16  C   UNL     1       4.559   3.977  15.637  0.00  0.00    +0.000 C 
ATOM     17  C   UNL     1       5.059   5.078  16.601  0.00  0.00    +0.000 C 
BRANCH  17  18
ATOM     18  N   UNL     1       6.551   5.199  16.557  0.00  0.00    +0.000 NA
ATOM     19  C   UNL     1       7.096   4.984  15.199  0.00  0.00    +0.000 C 
ATOM     20  C   UNL     1       7.048   6.504  17.035  0.00  0.00    +0.000 C 
ENDBRANCH  17  18
ENDBRANCH   1  17
BRANCH   3  21
ATOM     21  O   UNL     1       4.914   1.672  20.042  0.00  0.00    +0.000 OA
ATOM     22  H   UNL     1       5.704   1.538  20.581  0.00  0.00    +0.000 HD
ENDBRANCH   3  21
TORSDOF 3
ENDMDL
MODEL 5
REMARK VINA RESULT:      -6.0      6.130      8.759
REMARK  Name = 
REMARK  6 active torsions:
REMARK  status: ('A' for Active; 'I' for Inactive)
REMARK    1  A    between atoms: C_1  and  C_2
REMARK    2  A    between atoms: C_2  and  C_3
REMARK    3  A    between atoms: C_2  and  N_19
REMARK    4  A    between atoms: C_5  and  O_6
REMARK    5  A    between atoms: N_19  and  C_20
REMARK    6  A    between atoms: N_19  and  C_21
REMARK                            x       y       z     vdW  Elec       q    Type
REMARK                         _______ _______ _______ _____ _____    ______ ____
ROOT
ATOM      1  C   UNL     1      -0.633  10.978  20.258  0.00  0.00    +0.000 A 
ATOM      2  C   UNL     1      -0.239  11.505  21.512  0.00  0.00    +0.000 A 
ATOM      3  C   UNL     1      -0.986  12.456  22.194  0.00  0.00    +0.000 A 
ATOM      4  C   UNL     1      -2.177  12.890  21.659  0.00  0.00    +0.000 A 
ATOM      5  C   UNL     1      -2.634  12.399  20.443  0.00  0.00    +0.000 A 
ATOM      6  O   UNL     1      -3.837  12.813  20.072  0.00  0.00    +0.000 OA
ATOM      7  C   UNL     1      -4.448  12.399  18.988  0.00  0.00    +0.000 A 
ATOM      8  O   UNL     1      -5.580  12.799  18.763  0.00  0.00    +0.000 OA
ATOM      9  C   UNL     1      -3.799  11.540  18.094  0.00  0.00    +0.000 A 
ATOM     10  C   UNL     1      -4.467  11.113  16.928  0.00  0.00    +0.000 A 
ATOM     11  C   UNL     1      -3.821  10.314  15.997  0.00  0.00    +0.000 A 
ATOM     12  C   UNL     1      -2.492   9.982  16.189  0.00  0.00    +0.000 A 
ATOM     13  C   UNL     1      -1.822  10.382  17.343  0.00  0.00    +0.000 A 
ATOM     14  C   UNL     1      -2.462  11.114  18.376  0.00  0.00    +0.000 A 
ATOM     15  C   UNL     1      -1.871  11.475  19.651  0.00  0.00    +0.000 A 
ENDROOT
BRANCH   1  17
ATOM     16  C   UNL     1       0.666   8.972  20.995  0.00  0.00    +0.000 C 
ATOM     17  C   UNL     1       0.296   9.838  19.768  0.00  0.00    +0.000 C 
BRANCH  17  18
ATOM     18  N   UNL     1       1.522  10.356  19.081  0.00  0.00    +0.000 NA
ATOM     19  C   UNL     1       1.879   9.561  17.885  0.00  0.00    +0.000 C 
ATOM     20  C   UNL     1       1.406  11.766  18.661  0.00  0.00    +0.000 C 
ENDBRANCH  17  18
ENDBRANCH   1  17
BRANCH   3  21
ATOM     21  O   UNL     1      -0.582  12.933  23.389  0.00  0.00    +0.000 OA
ATOM     22  H   UNL     1       0.084  13.629  23.469  0.00  0.00    +0.000 HD
ENDBRANCH   3  21
TORSDOF 3
ENDMDL
MODEL 6
REMARK VINA RESULT:      -6.0      7.098      9.792
REMARK  Name = 
REMARK  6 active torsions:
REMARK  status: ('A' for Active; 'I' for Inactive)
REMARK    1  A    between atoms: C_1  and  C_2
REMARK    2  A    between atoms: C_2  and  C_3
REMARK    3  A    between atoms: C_2  and  N_19
REMARK    4  A    between atoms: C_5  and  O_6
REMARK    5  A    between atoms: N_19  and  C_20
REMARK    6  A    between atoms: N_19  and  C_21
REMARK                            x       y       z     vdW  Elec       q    Type
REMARK                         _______ _______ _______ _____ _____    ______ ____
ROOT
ATOM      1  C   UNL     1      -2.514  11.551  18.256  0.00  0.00    +0.000 A 
ATOM      2  C   UNL     1      -2.143  10.981  17.013  0.00  0.00    +0.000 A 
ATOM      3  C   UNL     1      -3.059  10.730  16.001  0.00  0.00    +0.000 A 
ATOM      4  C   UNL     1      -4.379  11.073  16.183  0.00  0.00    +0.000 A 
ATOM      5  C   UNL     1      -4.808  11.655  17.369  0.00  0.00    +0.000 A 
ATOM      6  O   UNL     1      -6.077  12.033  17.397  0.00  0.00    +0.000 OA
ATOM      7  C   UNL     1      -6.630  12.658  18.409  0.00  0.00    +0.000 A 
ATOM      8  O   UNL     1      -7.794  13.013  18.315  0.00  0.00    +0.000 OA
ATOM      9  C   UNL     1      -5.904  12.881  19.584  0.00  0.00    +0.000 A 
ATOM     10  C   UNL     1      -6.516  13.545  20.667  0.00  0.00    +0.000 A 
ATOM     11  C   UNL     1      -5.837  13.720  21.863  0.00  0.00    +0.000 A 
ATOM     12  C   UNL     1      -4.569  13.189  22.011  0.00  0.00    +0.000 A 
ATOM     13  C   UNL     1      -3.942  12.545  20.947  0.00  0.00    +0.000 A 
ATOM     14  C   UNL     1      -4.549  12.425  19.669  0.00  0.00    +0.000 A 
ATOM     15  C   UNL     1      -3.927  11.868  18.483  0.00  0.00    +0.000 A 
ENDROOT
BRANCH   1  17
ATOM     16  C   UNL     1      -0.667  13.183  18.680  0.00  0.00    +0.000 C 
ATOM     17  C   UNL     1      -1.295  11.855  19.164  0.00  0.00    +0.000 C 
BRANCH  17  18
ATOM     18  N   UNL     1      -0.289  10.746  19.158  0.00  0.00    +0.000 NA
ATOM     19  C   UNL     1       1.094  11.238  18.968  0.00  0.00    +0.000 C 
ATOM     20  C   UNL     1      -0.307   9.931  20.388  0.00  0.00    +0.000 C 
ENDBRANCH  17  18
ENDBRANCH   1  17
BRANCH   3  21
ATOM     21  O   UNL     1      -2.669  10.189  14.828  0.00  0.00    +0.000 OA
ATOM     22  H   UNL     1      -3.248   9.619  14.304  0.00  0.00    +0.000 HD
ENDBRANCH   3  21
TORSDOF 3
ENDMDL
MODEL 7
REMARK VINA RESULT:      -6.0      2.112      4.854
REMARK  Name = 
REMARK  6 active torsions:
REMARK  status: ('A' for Active; 'I' for Inactive)
REMARK    1  A    between atoms: C_1  and  C_2
REMARK    2  A    between atoms: C_2  and  C_3
REMARK    3  A    between atoms: C_2  and  N_19
REMARK    4  A    between atoms: C_5  and  O_6
REMARK    5  A    between atoms: N_19  and  C_20
REMARK    6  A    between atoms: N_19  and  C_21
REMARK                            x       y       z     vdW  Elec       q    Type
REMARK                         _______ _______ _______ _____ _____    ______ ____
ROOT
ATOM      1  C   UNL     1       3.505   6.614  18.576  0.00  0.00    +0.000 A 
ATOM      2  C   UNL     1       4.494   7.288  17.818  0.00  0.00    +0.000 A 
ATOM      3  C   UNL     1       5.752   6.751  17.580  0.00  0.00    +0.000 A 
ATOM      4  C   UNL     1       6.053   5.498  18.064  0.00  0.00    +0.000 A 
ATOM      5  C   UNL     1       5.123   4.773  18.796  0.00  0.00    +0.000 A 
ATOM      6  O   UNL     1       5.486   3.543  19.127  0.00  0.00    +0.000 OA
ATOM      7  C   UNL     1       4.707   2.698  19.760  0.00  0.00    +0.000 A 
ATOM      8  O   UNL     1       5.116   1.566  19.970  0.00  0.00    +0.000 OA
ATOM      9  C   UNL     1       3.444   3.100  20.209  0.00  0.00    +0.000 A 
ATOM     10  C   UNL     1       2.624   2.182  20.896  0.00  0.00    +0.000 A 
ATOM     11  C   UNL     1       1.397   2.578  21.407  0.00  0.00    +0.000 A 
ATOM     12  C   UNL     1       1.002   3.898  21.290  0.00  0.00    +0.000 A 
ATOM     13  C   UNL     1       1.793   4.815  20.600  0.00  0.00    +0.000 A 
ATOM     14  C   UNL     1       3.010   4.443  19.969  0.00  0.00    +0.000 A 
ATOM     15  C   UNL     1       3.836   5.305  19.145  0.00  0.00    +0.000 A 
ENDROOT
BRANCH   1  17
ATOM     16  C   UNL     1       1.984   8.060  17.216  0.00  0.00    +0.000 C 
ATOM     17  C   UNL     1       2.146   7.360  18.585  0.00  0.00    +0.000 C 
BRANCH  17  18
ATOM     18  N   UNL     1       2.042   8.342  19.711  0.00  0.00    +0.000 NA
ATOM     19  C   UNL     1       1.329   9.578  19.320  0.00  0.00    +0.000 C 
ATOM     20  C   UNL     1       1.366   7.796  20.904  0.00  0.00    +0.000 C 
ENDBRANCH  17  18
ENDBRANCH   1  17
BRANCH   3  21
ATOM     21  O   UNL     1       6.668   7.420  16.851  0.00  0.00    +0.000 OA
ATOM     22  H   UNL     1       7.565   7.582  17.172  0.00  0.00    +0.000 HD
ENDBRANCH   3  21
TORSDOF 3
ENDMDL
MODEL 8
REMARK VINA RESULT:      -6.0      6.022      8.565
REMARK  Name = 
REMARK  6 active torsions:
REMARK  status: ('A' for Active; 'I' for Inactive)
REMARK    1  A    between atoms: C_1  and  C_2
REMARK    2  A    between atoms: C_2  and  C_3
REMARK    3  A    between atoms: C_2  and  N_19
REMARK    4  A    between atoms: C_5  and  O_6
REMARK    5  A    between atoms: N_19  and  C_20
REMARK    6  A    between atoms: N_19  and  C_21
REMARK                            x       y       z     vdW  Elec       q    Type
REMARK                         _______ _______ _______ _____ _____    ______ ____
ROOT
ATOM      1  C   UNL     1      -1.242  11.388  19.826  0.00  0.00    +0.000 A 
ATOM      2  C   UNL     1       0.031  10.766  19.818  0.00  0.00    +0.000 A 
ATOM      3  C   UNL     1       0.455   9.940  18.787  0.00  0.00    +0.000 A 
ATOM      4  C   UNL     1      -0.369   9.735  17.704  0.00  0.00    +0.000 A 
ATOM      5  C   UNL     1      -1.621  10.331  17.636  0.00  0.00    +0.000 A 
ATOM      6  O   UNL     1      -2.286  10.143  16.506  0.00  0.00    +0.000 OA
ATOM      7  C   UNL     1      -3.451  10.687  16.247  0.00  0.00    +0.000 A 
ATOM      8  O   UNL     1      -3.958  10.496  15.152  0.00  0.00    +0.000 OA
ATOM      9  C   UNL     1      -4.110  11.445  17.220  0.00  0.00    +0.000 A 
ATOM     10  C   UNL     1      -5.367  12.015  16.928  0.00  0.00    +0.000 A 
ATOM     11  C   UNL     1      -6.067  12.715  17.899  0.00  0.00    +0.000 A 
ATOM     12  C   UNL     1      -5.552  12.807  19.179  0.00  0.00    +0.000 A 
ATOM     13  C   UNL     1      -4.304  12.264  19.481  0.00  0.00    +0.000 A 
ATOM     14  C   UNL     1      -3.499  11.625  18.502  0.00  0.00    +0.000 A 
ATOM     15  C   UNL     1      -2.150  11.130  18.705  0.00  0.00    +0.000 A 
ENDROOT
BRANCH   1  17
ATOM     16  C   UNL     1      -0.029  12.908  21.398  0.00  0.00    +0.000 C 
ATOM     17  C   UNL     1      -1.425  12.364  21.017  0.00  0.00    +0.000 C 
BRANCH  17  18
ATOM     18  N   UNL     1      -2.091  11.714  22.190  0.00  0.00    +0.000 NA
ATOM     19  C   UNL     1      -1.123  11.068  23.104  0.00  0.00    +0.000 C 
ATOM     20  C   UNL     1      -2.908  12.646  22.992  0.00  0.00    +0.000 C 
ENDBRANCH  17  18
ENDBRANCH   1  17
BRANCH   3  21
ATOM     21  O   UNL     1       1.676   9.366  18.811  0.00  0.00    +0.000 OA
ATOM     22  H   UNL     1       2.290   9.428  18.068  0.00  0.00    +0.000 HD
ENDBRANCH   3  21
TORSDOF 3
ENDMDL
MODEL 9
REMARK VINA RESULT:      -6.0      2.503      5.076
REMARK  Name = 
REMARK  6 active torsions:
REMARK  status: ('A' for Active; 'I' for Inactive)
REMARK    1  A    between atoms: C_1  and  C_2
REMARK    2  A    between atoms: C_2  and  C_3
REMARK    3  A    between atoms: C_2  and  N_19
REMARK    4  A    between atoms: C_5  and  O_6
REMARK    5  A    between atoms: N_19  and  C_20
REMARK    6  A    between atoms: N_19  and  C_21
REMARK                            x       y       z     vdW  Elec       q    Type
REMARK                         _______ _______ _______ _____ _____    ______ ____
ROOT
ATOM      1  C   UNL     1       2.650   5.193  18.796  0.00  0.00    +0.000 A 
ATOM      2  C   UNL     1       1.565   4.295  18.949  0.00  0.00    +0.000 A 
ATOM      3  C   UNL     1       1.443   3.132  18.200  0.00  0.00    +0.000 A 
ATOM      4  C   UNL     1       2.426   2.808  17.292  0.00  0.00    +0.000 A 
ATOM      5  C   UNL     1       3.528   3.632  17.107  0.00  0.00    +0.000 A 
ATOM      6  O   UNL     1       4.456   3.173  16.282  0.00  0.00    +0.000 OA
ATOM      7  C   UNL     1       5.590   3.790  16.044  0.00  0.00    +0.000 A 
ATOM      8  O   UNL     1       6.405   3.256  15.308  0.00  0.00    +0.000 OA
ATOM      9  C   UNL     1       5.841   5.049  16.601  0.00  0.00    +0.000 A 
ATOM     10  C   UNL     1       7.060   5.702  16.326  0.00  0.00    +0.000 A 
ATOM     11  C   UNL     1       7.302   6.977  16.815  0.00  0.00    +0.000 A 
ATOM     12  C   UNL     1       6.317   7.633  17.528  0.00  0.00    +0.000 A 
ATOM     13  C   UNL     1       5.113   6.996  17.823  0.00  0.00    +0.000 A 
ATOM     14  C   UNL     1       4.850   5.656  17.436  0.00  0.00    +0.000 A 
ATOM     15  C   UNL     1       3.672   4.886  17.792  0.00  0.00    +0.000 A 
ENDROOT
BRANCH   1  17
ATOM     16  C   UNL     1       2.208   5.737  21.197  0.00  0.00    +0.000 C 
ATOM     17  C   UNL     1       2.627   6.342  19.837  0.00  0.00    +0.000 C 
BRANCH  17  18
ATOM     18  N   UNL     1       1.713   7.457  19.435  0.00  0.00    +0.000 NA
ATOM     19  C   UNL     1       1.458   8.407  20.541  0.00  0.00    +0.000 C 
ATOM     20  C   UNL     1       2.208   8.237  18.284  0.00  0.00    +0.000 C 
ENDBRANCH  17  18
ENDBRANCH   1  17
BRANCH   3  21
ATOM     21  O   UNL     1       0.397   2.298  18.374  0.00  0.00    +0.000 OA
ATOM     22  H   UNL     1      -0.453   2.438  17.936  0.00  0.00    +0.000 HD
ENDBRANCH   3  21
TORSDOF 3
ENDMDL
