MODEL 1
REMARK VINA RESULT:      -7.6      0.000      0.000
REMARK  Name = 
REMARK  5 active torsions:
REMARK  status: ('A' for Active; 'I' for Inactive)
REMARK    1  A    between atoms: C_7  and  C_8
REMARK    2  A    between atoms: C_12  and  N_13
REMARK    3  A    between atoms: N_13  and  C_14
REMARK    4  A    between atoms: N_19  and  C_20
REMARK    5  A    between atoms: C_20  and  C_21
REMARK                            x       y       z     vdW  Elec       q    Type
REMARK                         _______ _______ _______ _____ _____    ______ ____
ROOT
ATOM      1  C   UNL     1       1.465   6.794  20.916  0.00  0.00    +0.000 A 
ATOM      2  C   UNL     1       0.468   7.570  21.528  0.00  0.00    +0.000 A 
ATOM      3  N   UNL     1       0.226   8.710  20.877  0.00  0.00    +0.000 NA
ATOM      4  N   UNL     1       1.096   8.686  19.820  0.00  0.00    +0.000 N 
ATOM      5  C   UNL     1       1.260   9.668  18.817  0.00  0.00    +0.000 A 
ATOM      6  C   UNL     1       2.181   9.447  17.865  0.00  0.00    +0.000 A 
ATOM      7  C   UNL     1       2.961   8.164  17.907  0.00  0.00    +0.000 A 
ATOM      8  N   UNL     1       3.894   7.969  16.918  0.00  0.00    +0.000 N 
ATOM      9  N   UNL     1       2.769   7.245  18.822  0.00  0.00    +0.000 NA
ATOM     10  C   UNL     1       1.854   7.508  19.804  0.00  0.00    +0.000 A 
ATOM     11  H   UNL     1       4.327   8.777  16.486  0.00  0.00    +0.000 HD
ENDROOT
BRANCH   1  18
ATOM     12  O   UNL     1       0.237   2.286  18.401  0.00  0.00    +0.000 OA
ATOM     13  C   UNL     1       0.864   2.804  19.306  0.00  0.00    +0.000 C 
ATOM     14  N   UNL     1       1.687   2.155  20.191  0.00  0.00    +0.000 N 
ATOM     15  C   UNL     1       2.232   3.028  21.095  0.00  0.00    +0.000 C 
ATOM     16  O   UNL     1       3.002   2.779  22.006  0.00  0.00    +0.000 OA
ATOM     17  C   UNL     1       1.690   4.363  20.704  0.00  0.00    +0.000 C 
ATOM     18  C   UNL     1       1.963   5.522  21.310  0.00  0.00    +0.000 C 
ATOM     19  N   UNL     1       0.878   4.147  19.625  0.00  0.00    +0.000 N 
ATOM     20  H   UNL     1       1.859   1.166  20.176  0.00  0.00    +0.000 HD
ATOM     21  H   UNL     1       0.331   4.847  19.147  0.00  0.00    +0.000 HD
ENDBRANCH   1  18
BRANCH   5  22
ATOM     22  N   UNL     1       0.386  10.763  18.791  0.00  0.00    +0.000 N 
ATOM     23  H   UNL     1       0.943  11.596  18.555  0.00  0.00    +0.000 HD
BRANCH  22  24
ATOM     24  C   UNL     1      -0.765  10.679  17.867  0.00  0.00    +0.000 C 
ATOM     25  C   UNL     1      -2.047   9.948  18.139  0.00  0.00    +0.000 C 
ATOM     26  C   UNL     1      -2.013  11.444  18.228  0.00  0.00    +0.000 C 
ENDBRANCH  22  24
ENDBRANCH   5  22
BRANCH   8  27
ATOM     27  C   UNL     1       4.436   6.686  16.524  0.00  0.00    +0.000 C 
BRANCH  27  28
ATOM     28  C   UNL     1       5.618   6.285  17.365  0.00  0.00    +0.000 A 
ATOM     29  C   UNL     1       6.748   7.124  17.376  0.00  0.00    +0.000 A 
ATOM     30  C   UNL     1       7.862   6.816  18.156  0.00  0.00    +0.000 A 
ATOM     31  C   UNL     1       7.868   5.665  18.937  0.00  0.00    +0.000 A 
ATOM     32  C   UNL     1       6.760   4.816  18.930  0.00  0.00    +0.000 A 
ATOM     33  C   UNL     1       5.643   5.118  18.141  0.00  0.00    +0.000 A 
ATOM     34 CL   UNL     1       4.319   4.009  18.169  0.00  0.00    +0.000 Cl
ENDBRANCH  27  28
ENDBRANCH   8  27
TORSDOF 5
ENDMDL
MODEL 2
REMARK VINA RESULT:      -7.6      0.965      1.179
REMARK  Name = 
REMARK  5 active torsions:
REMARK  status: ('A' for Active; 'I' for Inactive)
REMARK    1  A    between atoms: C_7  and  C_8
REMARK    2  A    between atoms: C_12  and  N_13
REMARK    3  A    between atoms: N_13  and  C_14
REMARK    4  A    between atoms: N_19  and  C_20
REMARK    5  A    between atoms: C_20  and  C_21
REMARK                            x       y       z     vdW  Elec       q    Type
REMARK                         _______ _______ _______ _____ _____    ______ ____
ROOT
ATOM      1  C   UNL     1       1.440   6.914  20.816  0.00  0.00    +0.000 A 
ATOM      2  C   UNL     1       0.430   7.724  21.361  0.00  0.00    +0.000 A 
ATOM      3  N   UNL     1       0.221   8.837  20.656  0.00  0.00    +0.000 NA
ATOM      4  N   UNL     1       1.126   8.762  19.631  0.00  0.00    +0.000 N 
ATOM      5  C   UNL     1       1.332   9.699  18.593  0.00  0.00    +0.000 A 
ATOM      6  C   UNL     1       2.283   9.431  17.683  0.00  0.00    +0.000 A 
ATOM      7  C   UNL     1       3.050   8.144  17.806  0.00  0.00    +0.000 A 
ATOM      8  N   UNL     1       4.014   7.901  16.858  0.00  0.00    +0.000 N 
ATOM      9  N   UNL     1       2.819   7.267  18.751  0.00  0.00    +0.000 NA
ATOM     10  C   UNL     1       1.873   7.578  19.689  0.00  0.00    +0.000 A 
ATOM     11  H   UNL     1       4.469   8.686  16.408  0.00  0.00    +0.000 HD
ENDROOT
BRANCH   1  18
ATOM     12  O   UNL     1       0.268   2.315  18.445  0.00  0.00    +0.000 OA
ATOM     13  C   UNL     1       0.866   2.866  19.350  0.00  0.00    +0.000 C 
ATOM     14  N   UNL     1       1.651   2.249  20.291  0.00  0.00    +0.000 N 
ATOM     15  C   UNL     1       2.169   3.154  21.178  0.00  0.00    +0.000 C 
ATOM     16  O   UNL     1       2.904   2.937  22.126  0.00  0.00    +0.000 OA
ATOM     17  C   UNL     1       1.653   4.475  20.713  0.00  0.00    +0.000 C 
ATOM     18  C   UNL     1       1.913   5.657  21.281  0.00  0.00    +0.000 C 
ATOM     19  N   UNL     1       0.880   4.220  19.614  0.00  0.00    +0.000 N 
ATOM     20  H   UNL     1       1.815   1.258  20.323  0.00  0.00    +0.000 HD
ATOM     21  H   UNL     1       0.356   4.904  19.088  0.00  0.00    +0.000 HD
ENDBRANCH   1  18
BRANCH   5  22
ATOM     22  N   UNL     1       0.470  10.798  18.491  0.00  0.00    +0.000 N 
ATOM     23  H   UNL     1      -0.424  10.529  18.926  0.00  0.00    +0.000 HD
BRANCH  22  24
ATOM     24  C   UNL     1       0.931  12.069  19.090  0.00  0.00    +0.000 C 
ATOM     25  C   UNL     1       1.872  13.043  18.444  0.00  0.00    +0.000 C 
ATOM     26  C   UNL     1       0.406  13.354  18.501  0.00  0.00    +0.000 C 
ENDBRANCH  22  24
ENDBRANCH   5  22
BRANCH   8  27
ATOM     27  C   UNL     1       4.557   6.598  16.537  0.00  0.00    +0.000 C 
BRANCH  27  28
ATOM     28  C   UNL     1       5.708   6.225  17.432  0.00  0.00    +0.000 A 
ATOM     29  C   UNL     1       6.847   7.053  17.439  0.00  0.00    +0.000 A 
ATOM     30  C   UNL     1       7.933   6.770  18.266  0.00  0.00    +0.000 A 
ATOM     31  C   UNL     1       7.902   5.658  19.100  0.00  0.00    +0.000 A 
ATOM     32  C   UNL     1       6.784   4.821  19.099  0.00  0.00    +0.000 A 
ATOM     33  C   UNL     1       5.696   5.096  18.263  0.00  0.00    +0.000 A 
ATOM     34 CL   UNL     1       4.358   4.004  18.302  0.00  0.00    +0.000 Cl
ENDBRANCH  27  28
ENDBRANCH   8  27
TORSDOF 5
ENDMDL
MODEL 3
REMARK VINA RESULT:      -7.5      2.740      5.140
REMARK  Name = 
REMARK  5 active torsions:
REMARK  status: ('A' for Active; 'I' for Inactive)
REMARK    1  A    between atoms: C_7  and  C_8
REMARK    2  A    between atoms: C_12  and  N_13
REMARK    3  A    between atoms: N_13  and  C_14
REMARK    4  A    between atoms: N_19  and  C_20
REMARK    5  A    between atoms: C_20  and  C_21
REMARK                            x       y       z     vdW  Elec       q    Type
REMARK                         _______ _______ _______ _____ _____    ______ ____
ROOT
ATOM      1  C   UNL     1       3.606   6.854  17.754  0.00  0.00    +0.000 A 
ATOM      2  C   UNL     1       3.398   8.210  17.452  0.00  0.00    +0.000 A 
ATOM      3  N   UNL     1       2.583   8.814  18.319  0.00  0.00    +0.000 NA
ATOM      4  N   UNL     1       2.237   7.826  19.202  0.00  0.00    +0.000 N 
ATOM      5  C   UNL     1       1.378   7.932  20.320  0.00  0.00    +0.000 A 
ATOM      6  C   UNL     1       1.170   6.830  21.058  0.00  0.00    +0.000 A 
ATOM      7  C   UNL     1       1.879   5.563  20.672  0.00  0.00    +0.000 A 
ATOM      8  N   UNL     1       1.644   4.456  21.450  0.00  0.00    +0.000 N 
ATOM      9  N   UNL     1       2.704   5.492  19.656  0.00  0.00    +0.000 NA
ATOM     10  C   UNL     1       2.871   6.616  18.894  0.00  0.00    +0.000 A 
ATOM     11  H   UNL     1       0.760   4.377  21.938  0.00  0.00    +0.000 HD
ENDROOT
BRANCH   1  18
ATOM     12  O   UNL     1       8.307   5.218  19.592  0.00  0.00    +0.000 OA
ATOM     13  C   UNL     1       7.475   5.125  18.709  0.00  0.00    +0.000 C 
ATOM     14  N   UNL     1       7.553   4.306  17.611  0.00  0.00    +0.000 N 
ATOM     15  C   UNL     1       6.457   4.452  16.803  0.00  0.00    +0.000 C 
ATOM     16  O   UNL     1       6.215   3.874  15.757  0.00  0.00    +0.000 OA
ATOM     17  C   UNL     1       5.607   5.463  17.499  0.00  0.00    +0.000 C 
ATOM     18  C   UNL     1       4.423   5.911  17.072  0.00  0.00    +0.000 C 
ATOM     19  N   UNL     1       6.284   5.819  18.632  0.00  0.00    +0.000 N 
ATOM     20  H   UNL     1       8.322   3.687  17.426  0.00  0.00    +0.000 HD
ATOM     21  H   UNL     1       5.991   6.514  19.302  0.00  0.00    +0.000 HD
ENDBRANCH   1  18
BRANCH   5  22
ATOM     22  N   UNL     1       0.878   9.192  20.673  0.00  0.00    +0.000 N 
ATOM     23  H   UNL     1       0.535   9.639  19.812  0.00  0.00    +0.000 HD
BRANCH  22  24
ATOM     24  C   UNL     1      -0.194   9.225  21.691  0.00  0.00    +0.000 C 
ATOM     25  C   UNL     1      -0.000   9.530  23.147  0.00  0.00    +0.000 C 
ATOM     26  C   UNL     1      -0.595  10.568  22.245  0.00  0.00    +0.000 C 
ENDBRANCH  22  24
ENDBRANCH   5  22
BRANCH   8  27
ATOM     27  C   UNL     1       2.503   3.293  21.525  0.00  0.00    +0.000 C 
BRANCH  27  28
ATOM     28  C   UNL     1       2.873   2.769  20.164  0.00  0.00    +0.000 A 
ATOM     29  C   UNL     1       4.237   2.586  19.864  0.00  0.00    +0.000 A 
ATOM     30  C   UNL     1       4.638   2.081  18.629  0.00  0.00    +0.000 A 
ATOM     31  C   UNL     1       3.686   1.750  17.671  0.00  0.00    +0.000 A 
ATOM     32  C   UNL     1       2.329   1.934  17.947  0.00  0.00    +0.000 A 
ATOM     33  C   UNL     1       1.924   2.449  19.183  0.00  0.00    +0.000 A 
ATOM     34 CL   UNL     1       0.230   2.668  19.445  0.00  0.00    +0.000 Cl
ENDBRANCH  27  28
ENDBRANCH   8  27
TORSDOF 5
ENDMDL
MODEL 4
REMARK VINA RESULT:      -7.5      2.716      5.336
REMARK  Name = 
REMARK  5 active torsions:
REMARK  status: ('A' for Active; 'I' for Inactive)
REMARK    1  A    between atoms: C_7  and  C_8
REMARK    2  A    between atoms: C_12  and  N_13
REMARK    3  A    between atoms: N_13  and  C_14
REMARK    4  A    between atoms: N_19  and  C_20
REMARK    5  A    between atoms: C_20  and  C_21
REMARK                            x       y       z     vdW  Elec       q    Type
REMARK                         _______ _______ _______ _____ _____    ______ ____
ROOT
ATOM      1  C   UNL     1       3.039   7.845  17.577  0.00  0.00    +0.000 A 
ATOM      2  C   UNL     1       2.651   9.179  17.374  0.00  0.00    +0.000 A 
ATOM      3  N   UNL     1       1.910   9.661  18.375  0.00  0.00    +0.000 NA
ATOM      4  N   UNL     1       1.800   8.612  19.248  0.00  0.00    +0.000 N 
ATOM      5  C   UNL     1       1.104   8.585  20.478  0.00  0.00    +0.000 A 
ATOM      6  C   UNL     1       1.120   7.443  21.184  0.00  0.00    +0.000 A 
ATOM      7  C   UNL     1       1.893   6.275  20.640  0.00  0.00    +0.000 A 
ATOM      8  N   UNL     1       1.888   5.123  21.389  0.00  0.00    +0.000 N 
ATOM      9  N   UNL     1       2.566   6.329  19.517  0.00  0.00    +0.000 NA
ATOM     10  C   UNL     1       2.505   7.490  18.796  0.00  0.00    +0.000 A 
ATOM     11  H   UNL     1       1.097   4.932  21.991  0.00  0.00    +0.000 HD
ENDROOT
BRANCH   1  18
ATOM     12  O   UNL     1       8.266   7.238  18.261  0.00  0.00    +0.000 OA
ATOM     13  C   UNL     1       7.285   6.930  17.610  0.00  0.00    +0.000 C 
ATOM     14  N   UNL     1       7.264   6.062  16.547  0.00  0.00    +0.000 N 
ATOM     15  C   UNL     1       6.003   5.944  16.026  0.00  0.00    +0.000 C 
ATOM     16  O   UNL     1       5.642   5.257  15.086  0.00  0.00    +0.000 OA
ATOM     17  C   UNL     1       5.158   6.830  16.881  0.00  0.00    +0.000 C 
ATOM     18  C   UNL     1       3.843   7.021  16.742  0.00  0.00    +0.000 C 
ATOM     19  N   UNL     1       5.998   7.386  17.806  0.00  0.00    +0.000 N 
ATOM     20  H   UNL     1       8.074   5.582  16.197  0.00  0.00    +0.000 HD
ATOM     21  H   UNL     1       5.739   8.062  18.508  0.00  0.00    +0.000 HD
ENDBRANCH   1  18
BRANCH   5  22
ATOM     22  N   UNL     1       0.532   9.770  20.960  0.00  0.00    +0.000 N 
ATOM     23  H   UNL     1       0.119  10.261  20.155  0.00  0.00    +0.000 HD
BRANCH  22  24
ATOM     24  C   UNL     1      -0.491   9.637  22.019  0.00  0.00    +0.000 C 
ATOM     25  C   UNL     1      -0.228   9.703  23.494  0.00  0.00    +0.000 C 
ATOM     26  C   UNL     1      -0.857  10.873  22.800  0.00  0.00    +0.000 C 
ENDBRANCH  22  24
ENDBRANCH   5  22
BRANCH   8  27
ATOM     27  C   UNL     1       2.865   4.059  21.286  0.00  0.00    +0.000 C 
BRANCH  27  28
ATOM     28  C   UNL     1       2.796   3.348  19.962  0.00  0.00    +0.000 A 
ATOM     29  C   UNL     1       1.628   2.626  19.649  0.00  0.00    +0.000 A 
ATOM     30  C   UNL     1       1.498   1.968  18.427  0.00  0.00    +0.000 A 
ATOM     31  C   UNL     1       2.530   2.019  17.496  0.00  0.00    +0.000 A 
ATOM     32  C   UNL     1       3.699   2.722  17.793  0.00  0.00    +0.000 A 
ATOM     33  C   UNL     1       3.837   3.376  19.023  0.00  0.00    +0.000 A 
ATOM     34 CL   UNL     1       5.319   4.208  19.328  0.00  0.00    +0.000 Cl
ENDBRANCH  27  28
ENDBRANCH   8  27
TORSDOF 5
ENDMDL
MODEL 5
REMARK VINA RESULT:      -7.4      2.908      6.652
REMARK  Name = 
REMARK  5 active torsions:
REMARK  status: ('A' for Active; 'I' for Inactive)
REMARK    1  A    between atoms: C_7  and  C_8
REMARK    2  A    between atoms: C_12  and  N_13
REMARK    3  A    between atoms: N_13  and  C_14
REMARK    4  A    between atoms: N_19  and  C_20
REMARK    5  A    between atoms: C_20  and  C_21
REMARK                            x       y       z     vdW  Elec       q    Type
REMARK                         _______ _______ _______ _____ _____    ______ ____
ROOT
ATOM      1  C   UNL     1       2.985   7.357  18.516  0.00  0.00    +0.000 A 
ATOM      2  C   UNL     1       3.114   8.150  17.364  0.00  0.00    +0.000 A 
ATOM      3  N   UNL     1       3.993   7.656  16.490  0.00  0.00    +0.000 NA
ATOM      4  N   UNL     1       4.462   6.518  17.091  0.00  0.00    +0.000 N 
ATOM      5  C   UNL     1       5.428   5.616  16.590  0.00  0.00    +0.000 A 
ATOM      6  C   UNL     1       5.750   4.555  17.348  0.00  0.00    +0.000 A 
ATOM      7  C   UNL     1       5.049   4.377  18.666  0.00  0.00    +0.000 A 
ATOM      8  N   UNL     1       5.402   3.280  19.414  0.00  0.00    +0.000 N 
ATOM      9  N   UNL     1       4.127   5.201  19.096  0.00  0.00    +0.000 NA
ATOM     10  C   UNL     1       3.842   6.295  18.326  0.00  0.00    +0.000 A 
ATOM     11  H   UNL     1       6.334   2.897  19.314  0.00  0.00    +0.000 HD
ENDROOT
BRANCH   1  18
ATOM     12  O   UNL     1       0.018  11.706  19.173  0.00  0.00    +0.000 OA
ATOM     13  C   UNL     1       0.342  10.623  19.621  0.00  0.00    +0.000 C 
ATOM     14  N   UNL     1      -0.130  10.054  20.777  0.00  0.00    +0.000 N 
ATOM     15  C   UNL     1       0.448   8.833  21.003  0.00  0.00    +0.000 C 
ATOM     16  O   UNL     1       0.248   8.071  21.933  0.00  0.00    +0.000 OA
ATOM     17  C   UNL     1       1.364   8.629  19.842  0.00  0.00    +0.000 C 
ATOM     18  C   UNL     1       2.135   7.557  19.638  0.00  0.00    +0.000 C 
ATOM     19  N   UNL     1       1.246   9.743  19.059  0.00  0.00    +0.000 N 
ATOM     20  H   UNL     1      -0.807  10.486  21.379  0.00  0.00    +0.000 HD
ATOM     21  H   UNL     1       1.765   9.930  18.215  0.00  0.00    +0.000 HD
ENDBRANCH   1  18
BRANCH   5  22
ATOM     22  N   UNL     1       5.918   5.800  15.290  0.00  0.00    +0.000 N 
ATOM     23  H   UNL     1       6.526   6.630  15.306  0.00  0.00    +0.000 HD
BRANCH  22  24
ATOM     24  C   UNL     1       6.662   4.672  14.690  0.00  0.00    +0.000 C 
ATOM     25  C   UNL     1       6.199   3.848  13.524  0.00  0.00    +0.000 C 
ATOM     26  C   UNL     1       7.269   4.879  13.326  0.00  0.00    +0.000 C 
ENDBRANCH  22  24
ENDBRANCH   5  22
BRANCH   8  27
ATOM     27  C   UNL     1       4.597   2.695  20.466  0.00  0.00    +0.000 C 
BRANCH  27  28
ATOM     28  C   UNL     1       3.128   2.718  20.137  0.00  0.00    +0.000 A 
ATOM     29  C   UNL     1       2.258   3.409  21.003  0.00  0.00    +0.000 A 
ATOM     30  C   UNL     1       0.893   3.485  20.737  0.00  0.00    +0.000 A 
ATOM     31  C   UNL     1       0.370   2.874  19.602  0.00  0.00    +0.000 A 
ATOM     32  C   UNL     1       1.216   2.176  18.737  0.00  0.00    +0.000 A 
ATOM     33  C   UNL     1       2.587   2.090  19.006  0.00  0.00    +0.000 A 
ATOM     34 CL   UNL     1       3.567   1.194  17.902  0.00  0.00    +0.000 Cl
ENDBRANCH  27  28
ENDBRANCH   8  27
TORSDOF 5
ENDMDL
MODEL 6
REMARK VINA RESULT:      -7.4      5.390      8.196
REMARK  Name = 
REMARK  5 active torsions:
REMARK  status: ('A' for Active; 'I' for Inactive)
REMARK    1  A    between atoms: C_7  and  C_8
REMARK    2  A    between atoms: C_12  and  N_13
REMARK    3  A    between atoms: N_13  and  C_14
REMARK    4  A    between atoms: N_19  and  C_20
REMARK    5  A    between atoms: C_20  and  C_21
REMARK                            x       y       z     vdW  Elec       q    Type
REMARK                         _______ _______ _______ _____ _____    ______ ____
ROOT
ATOM      1  C   UNL     1      -4.559  12.288  19.310  0.00  0.00    +0.000 A 
ATOM      2  C   UNL     1      -5.742  12.238  18.555  0.00  0.00    +0.000 A 
ATOM      3  N   UNL     1      -5.577  11.643  17.372  0.00  0.00    +0.000 NA
ATOM      4  N   UNL     1      -4.249  11.307  17.346  0.00  0.00    +0.000 N 
ATOM      5  C   UNL     1      -3.546  10.658  16.306  0.00  0.00    +0.000 A 
ATOM      6  C   UNL     1      -2.235  10.424  16.485  0.00  0.00    +0.000 A 
ATOM      7  C   UNL     1      -1.603  10.841  17.783  0.00  0.00    +0.000 A 
ATOM      8  N   UNL     1      -0.262  10.586  17.932  0.00  0.00    +0.000 N 
ATOM      9  N   UNL     1      -2.279  11.405  18.753  0.00  0.00    +0.000 NA
ATOM     10  C   UNL     1      -3.604  11.669  18.535  0.00  0.00    +0.000 A 
ATOM     11  H   UNL     1       0.325  10.545  17.107  0.00  0.00    +0.000 HD
ENDROOT
BRANCH   1  18
ATOM     12  O   UNL     1      -7.916  11.440  23.331  0.00  0.00    +0.000 OA
ATOM     13  C   UNL     1      -6.880  11.964  22.968  0.00  0.00    +0.000 C 
ATOM     14  N   UNL     1      -6.031  12.701  23.755  0.00  0.00    +0.000 N 
ATOM     15  C   UNL     1      -4.960  13.161  23.035  0.00  0.00    +0.000 C 
ATOM     16  O   UNL     1      -4.028  13.839  23.432  0.00  0.00    +0.000 OA
ATOM     17  C   UNL     1      -5.174  12.629  21.658  0.00  0.00    +0.000 C 
ATOM     18  C   UNL     1      -4.363  12.822  20.613  0.00  0.00    +0.000 C 
ATOM     19  N   UNL     1      -6.345  11.923  21.696  0.00  0.00    +0.000 N 
ATOM     20  H   UNL     1      -6.185  12.882  24.730  0.00  0.00    +0.000 HD
ATOM     21  H   UNL     1      -6.787  11.468  20.912  0.00  0.00    +0.000 HD
ENDBRANCH   1  18
BRANCH   5  22
ATOM     22  N   UNL     1      -4.259  10.187  15.195  0.00  0.00    +0.000 N 
ATOM     23  H   UNL     1      -5.194  10.616  15.226  0.00  0.00    +0.000 HD
BRANCH  22  24
ATOM     24  C   UNL     1      -3.662  10.431  13.865  0.00  0.00    +0.000 C 
ATOM     25  C   UNL     1      -2.917   9.417  13.048  0.00  0.00    +0.000 C 
ATOM     26  C   UNL     1      -4.320   9.786  12.672  0.00  0.00    +0.000 C 
ENDBRANCH  22  24
ENDBRANCH   5  22
BRANCH   8  27
ATOM     27  C   UNL     1       0.436  10.510  19.198  0.00  0.00    +0.000 C 
BRANCH  27  28
ATOM     28  C   UNL     1       1.140   9.193  19.383  0.00  0.00    +0.000 A 
ATOM     29  C   UNL     1       1.834   8.645  18.287  0.00  0.00    +0.000 A 
ATOM     30  C   UNL     1       2.524   7.440  18.406  0.00  0.00    +0.000 A 
ATOM     31  C   UNL     1       2.535   6.761  19.620  0.00  0.00    +0.000 A 
ATOM     32  C   UNL     1       1.844   7.285  20.715  0.00  0.00    +0.000 A 
ATOM     33  C   UNL     1       1.142   8.491  20.596  0.00  0.00    +0.000 A 
ATOM     34 CL   UNL     1       0.295   9.066  21.987  0.00  0.00    +0.000 Cl
ENDBRANCH  27  28
ENDBRANCH   8  27
TORSDOF 5
ENDMDL
MODEL 7
REMARK VINA RESULT:      -7.2      2.990      6.723
REMARK  Name = 
REMARK  5 active torsions:
REMARK  status: ('A' for Active; 'I' for Inactive)
REMARK    1  A    between atoms: C_7  and  C_8
REMARK    2  A    between atoms: C_12  and  N_13
REMARK    3  A    between atoms: N_13  and  C_14
REMARK    4  A    between atoms: N_19  and  C_20
REMARK    5  A    between atoms: C_20  and  C_21
REMARK                            x       y       z     vdW  Elec       q    Type
REMARK                         _______ _______ _______ _____ _____    ______ ____
ROOT
ATOM      1  C   UNL     1       3.107   7.308  18.429  0.00  0.00    +0.000 A 
ATOM      2  C   UNL     1       3.316   8.141  17.318  0.00  0.00    +0.000 A 
ATOM      3  N   UNL     1       4.237   7.665  16.478  0.00  0.00    +0.000 NA
ATOM      4  N   UNL     1       4.653   6.497  17.061  0.00  0.00    +0.000 N 
ATOM      5  C   UNL     1       5.633   5.598  16.583  0.00  0.00    +0.000 A 
ATOM      6  C   UNL     1       5.894   4.504  17.318  0.00  0.00    +0.000 A 
ATOM      7  C   UNL     1       5.114   4.289  18.585  0.00  0.00    +0.000 A 
ATOM      8  N   UNL     1       5.405   3.160  19.310  0.00  0.00    +0.000 N 
ATOM      9  N   UNL     1       4.180   5.113  18.992  0.00  0.00    +0.000 NA
ATOM     10  C   UNL     1       3.958   6.239  18.249  0.00  0.00    +0.000 A 
ATOM     11  H   UNL     1       6.336   2.764  19.250  0.00  0.00    +0.000 HD
ENDROOT
BRANCH   1  18
ATOM     12  O   UNL     1       0.234  11.715  19.124  0.00  0.00    +0.000 OA
ATOM     13  C   UNL     1       0.498  10.600  19.535  0.00  0.00    +0.000 C 
ATOM     14  N   UNL     1      -0.061   9.992  20.630  0.00  0.00    +0.000 N 
ATOM     15  C   UNL     1       0.466   8.744  20.829  0.00  0.00    +0.000 C 
ATOM     16  O   UNL     1       0.187   7.944  21.706  0.00  0.00    +0.000 OA
ATOM     17  C   UNL     1       1.446   8.566  19.717  0.00  0.00    +0.000 C 
ATOM     18  C   UNL     1       2.196   7.481  19.506  0.00  0.00    +0.000 C 
ATOM     19  N   UNL     1       1.409   9.721  18.985  0.00  0.00    +0.000 N 
ATOM     20  H   UNL     1      -0.761  10.417  21.211  0.00  0.00    +0.000 HD
ATOM     21  H   UNL     1       1.985   9.932  18.184  0.00  0.00    +0.000 HD
ENDBRANCH   1  18
BRANCH   5  22
ATOM     22  N   UNL     1       6.202   5.821  15.323  0.00  0.00    +0.000 N 
ATOM     23  H   UNL     1       6.925   6.545  15.436  0.00  0.00    +0.000 HD
BRANCH  22  24
ATOM     24  C   UNL     1       6.796   4.653  14.639  0.00  0.00    +0.000 C 
ATOM     25  C   UNL     1       6.127   3.837  13.572  0.00  0.00    +0.000 C 
ATOM     26  C   UNL     1       7.200   4.814  13.196  0.00  0.00    +0.000 C 
ENDBRANCH  22  24
ENDBRANCH   5  22
BRANCH   8  27
ATOM     27  C   UNL     1       4.530   2.550  20.290  0.00  0.00    +0.000 C 
BRANCH  27  28
ATOM     28  C   UNL     1       3.095   2.534  19.839  0.00  0.00    +0.000 A 
ATOM     29  C   UNL     1       2.763   1.799  18.684  0.00  0.00    +0.000 A 
ATOM     30  C   UNL     1       1.445   1.728  18.234  0.00  0.00    +0.000 A 
ATOM     31  C   UNL     1       0.437   2.389  18.927  0.00  0.00    +0.000 A 
ATOM     32  C   UNL     1       0.749   3.131  20.067  0.00  0.00    +0.000 A 
ATOM     33  C   UNL     1       2.072   3.212  20.518  0.00  0.00    +0.000 A 
ATOM     34 CL   UNL     1       2.384   4.165  21.924  0.00  0.00    +0.000 Cl
ENDBRANCH  27  28
ENDBRANCH   8  27
TORSDOF 5
ENDMDL
MODEL 8
REMARK VINA RESULT:      -7.2      3.189      7.154
REMARK  Name = 
REMARK  5 active torsions:
REMARK  status: ('A' for Active; 'I' for Inactive)
REMARK    1  A    between atoms: C_7  and  C_8
REMARK    2  A    between atoms: C_12  and  N_13
REMARK    3  A    between atoms: N_13  and  C_14
REMARK    4  A    between atoms: N_19  and  C_20
REMARK    5  A    between atoms: C_20  and  C_21
REMARK                            x       y       z     vdW  Elec       q    Type
REMARK                         _______ _______ _______ _____ _____    ______ ____
ROOT
ATOM      1  C   UNL     1       5.010   5.001  18.992  0.00  0.00    +0.000 A 
ATOM      2  C   UNL     1       5.039   3.643  19.348  0.00  0.00    +0.000 A 
ATOM      3  N   UNL     1       3.949   3.259  20.015  0.00  0.00    +0.000 NA
ATOM      4  N   UNL     1       3.193   4.397  20.111  0.00  0.00    +0.000 N 
ATOM      5  C   UNL     1       1.935   4.545  20.737  0.00  0.00    +0.000 A 
ATOM      6  C   UNL     1       1.363   5.760  20.719  0.00  0.00    +0.000 A 
ATOM      7  C   UNL     1       2.079   6.879  20.016  0.00  0.00    +0.000 A 
ATOM      8  N   UNL     1       1.465   8.107  20.016  0.00  0.00    +0.000 N 
ATOM      9  N   UNL     1       3.226   6.714  19.405  0.00  0.00    +0.000 NA
ATOM     10  C   UNL     1       3.809   5.479  19.469  0.00  0.00    +0.000 A 
ATOM     11  H   UNL     1       0.842   8.345  20.779  0.00  0.00    +0.000 HD
ENDROOT
BRANCH   1  18
ATOM     12  O   UNL     1       6.516   3.762  14.057  0.00  0.00    +0.000 OA
ATOM     13  C   UNL     1       6.641   4.529  14.994  0.00  0.00    +0.000 C 
ATOM     14  N   UNL     1       7.458   5.631  15.029  0.00  0.00    +0.000 N 
ATOM     15  C   UNL     1       7.375   6.272  16.237  0.00  0.00    +0.000 C 
ATOM     16  O   UNL     1       7.964   7.279  16.592  0.00  0.00    +0.000 OA
ATOM     17  C   UNL     1       6.381   5.479  17.018  0.00  0.00    +0.000 C 
ATOM     18  C   UNL     1       5.977   5.746  18.263  0.00  0.00    +0.000 C 
ATOM     19  N   UNL     1       5.988   4.451  16.207  0.00  0.00    +0.000 N 
ATOM     20  H   UNL     1       8.043   5.920  14.267  0.00  0.00    +0.000 HD
ATOM     21  H   UNL     1       5.348   3.712  16.457  0.00  0.00    +0.000 HD
ENDBRANCH   1  18
BRANCH   5  22
ATOM     22  N   UNL     1       1.291   3.407  21.243  0.00  0.00    +0.000 N 
ATOM     23  H   UNL     1       0.661   3.720  21.994  0.00  0.00    +0.000 HD
BRANCH  22  24
ATOM     24  C   UNL     1       0.523   2.590  20.280  0.00  0.00    +0.000 C 
ATOM     25  C   UNL     1       0.485   2.802  18.796  0.00  0.00    +0.000 C 
ATOM     26  C   UNL     1       1.295   1.675  19.363  0.00  0.00    +0.000 C 
ENDBRANCH  22  24
ENDBRANCH   5  22
BRANCH   8  27
ATOM     27  C   UNL     1       1.742   9.178  19.082  0.00  0.00    +0.000 C 
BRANCH  27  28
ATOM     28  C   UNL     1       0.524  10.012  18.794  0.00  0.00    +0.000 A 
ATOM     29  C   UNL     1      -0.368   9.574  17.796  0.00  0.00    +0.000 A 
ATOM     30  C   UNL     1      -1.526  10.293  17.503  0.00  0.00    +0.000 A 
ATOM     31  C   UNL     1      -1.814  11.461  18.200  0.00  0.00    +0.000 A 
ATOM     32  C   UNL     1      -0.936  11.916  19.186  0.00  0.00    +0.000 A 
ATOM     33  C   UNL     1       0.232  11.201  19.476  0.00  0.00    +0.000 A 
ATOM     34 CL   UNL     1       1.280  11.837  20.694  0.00  0.00    +0.000 Cl
ENDBRANCH  27  28
ENDBRANCH   8  27
TORSDOF 5
ENDMDL
MODEL 9
REMARK VINA RESULT:      -7.2      1.428      1.611
REMARK  Name = 
REMARK  5 active torsions:
REMARK  status: ('A' for Active; 'I' for Inactive)
REMARK    1  A    between atoms: C_7  and  C_8
REMARK    2  A    between atoms: C_12  and  N_13
REMARK    3  A    between atoms: N_13  and  C_14
REMARK    4  A    between atoms: N_19  and  C_20
REMARK    5  A    between atoms: C_20  and  C_21
REMARK                            x       y       z     vdW  Elec       q    Type
REMARK                         _______ _______ _______ _____ _____    ______ ____
ROOT
ATOM      1  C   UNL     1       1.475   6.957  20.849  0.00  0.00    +0.000 A 
ATOM      2  C   UNL     1       0.597   7.928  21.356  0.00  0.00    +0.000 A 
ATOM      3  N   UNL     1       0.528   9.017  20.587  0.00  0.00    +0.000 NA
ATOM      4  N   UNL     1       1.393   8.757  19.557  0.00  0.00    +0.000 N 
ATOM      5  C   UNL     1       1.704   9.595  18.462  0.00  0.00    +0.000 A 
ATOM      6  C   UNL     1       2.589   9.145  17.558  0.00  0.00    +0.000 A 
ATOM      7  C   UNL     1       3.175   7.775  17.749  0.00  0.00    +0.000 A 
ATOM      8  N   UNL     1       4.076   7.346  16.805  0.00  0.00    +0.000 N 
ATOM      9  N   UNL     1       2.845   6.994  18.749  0.00  0.00    +0.000 NA
ATOM     10  C   UNL     1       1.971   7.488  19.678  0.00  0.00    +0.000 A 
ATOM     11  H   UNL     1       4.625   8.033  16.303  0.00  0.00    +0.000 HD
ENDROOT
BRANCH   1  18
ATOM     12  O   UNL     1       0.741   2.441  18.160  0.00  0.00    +0.000 OA
ATOM     13  C   UNL     1       1.125   2.956  19.194  0.00  0.00    +0.000 C 
ATOM     14  N   UNL     1       1.643   2.294  20.279  0.00  0.00    +0.000 N 
ATOM     15  C   UNL     1       1.966   3.166  21.285  0.00  0.00    +0.000 C 
ATOM     16  O   UNL     1       2.447   2.907  22.375  0.00  0.00    +0.000 OA
ATOM     17  C   UNL     1       1.621   4.513  20.742  0.00  0.00    +0.000 C 
ATOM     18  C   UNL     1       1.780   5.675  21.382  0.00  0.00    +0.000 C 
ATOM     19  N   UNL     1       1.123   4.304  19.486  0.00  0.00    +0.000 N 
ATOM     20  H   UNL     1       1.760   1.298  20.326  0.00  0.00    +0.000 HD
ATOM     21  H   UNL     1       0.763   5.015  18.867  0.00  0.00    +0.000 HD
ENDBRANCH   1  18
BRANCH   5  22
ATOM     22  N   UNL     1       0.998  10.796  18.305  0.00  0.00    +0.000 N 
ATOM     23  H   UNL     1       0.055  10.650  18.690  0.00  0.00    +0.000 HD
BRANCH  22  24
ATOM     24  C   UNL     1       1.587  12.004  18.921  0.00  0.00    +0.000 C 
ATOM     25  C   UNL     1       1.511  13.392  18.356  0.00  0.00    +0.000 C 
ATOM     26  C   UNL     1       0.645  13.016  19.520  0.00  0.00    +0.000 C 
ENDBRANCH  22  24
ENDBRANCH   5  22
BRANCH   8  27
ATOM     27  C   UNL     1       4.428   5.964  16.557  0.00  0.00    +0.000 C 
BRANCH  27  28
ATOM     28  C   UNL     1       5.722   5.578  17.221  0.00  0.00    +0.000 A 
ATOM     29  C   UNL     1       5.982   6.065  18.517  0.00  0.00    +0.000 A 
ATOM     30  C   UNL     1       7.153   5.721  19.190  0.00  0.00    +0.000 A 
ATOM     31  C   UNL     1       8.085   4.885  18.584  0.00  0.00    +0.000 A 
ATOM     32  C   UNL     1       7.849   4.401  17.295  0.00  0.00    +0.000 A 
ATOM     33  C   UNL     1       6.678   4.752  16.612  0.00  0.00    +0.000 A 
ATOM     34 CL   UNL     1       6.465   4.131  15.015  0.00  0.00    +0.000 Cl
ENDBRANCH  27  28
ENDBRANCH   8  27
TORSDOF 5
ENDMDL
