MODEL 1
REMARK VINA RESULT:      -7.0      0.000      0.000
REMARK  Name = 
REMARK  17 active torsions:
REMARK  status: ('A' for Active; 'I' for Inactive)
REMARK    1  A    between atoms: C_1  and  C_2
REMARK    2  A    between atoms: C_3  and  C_4
REMARK    3  A    between atoms: C_5  and  C_6
REMARK    4  A    between atoms: C_7  and  N_8
REMARK    5  A    between atoms: N_11  and  C_12
REMARK    6  A    between atoms: N_15  and  C_16
REMARK    7  A    between atoms: C_18  and  C_19
REMARK    8  A    between atoms: C_19  and  C_20
REMARK    9  A    between atoms: C_19  and  C_21
REMARK   10  A    between atoms: C_19  and  C_22
REMARK   11  A    between atoms: C_24  and  C_25
REMARK   12  A    between atoms: C_25  and  C_26
REMARK   13  A    between atoms: C_25  and  C_27
REMARK   14  A    between atoms: C_25  and  C_28
REMARK   15  A    between atoms: C_29  and  O_30
REMARK   16  A    between atoms: C_31  and  C_32
REMARK   17  A    between atoms: C_33  and  C_34
REMARK                            x       y       z     vdW  Elec       q    Type
REMARK                         _______ _______ _______ _____ _____    ______ ____
ROOT
ATOM      1  N   UNL     1      -1.510  13.988  21.057  0.00  0.00    +0.000 N 
ATOM      2  C   UNL     1      -0.611  15.097  21.103  0.00  0.00    +0.000 A 
ATOM      3  O   UNL     1       0.615  15.065  21.280  0.00  0.00    +0.000 OA
ATOM      4  N   UNL     1      -1.352  16.240  20.886  0.00  0.00    +0.000 N 
ATOM      5  C   UNL     1      -0.922  17.612  20.971  0.00  0.00    +0.000 C 
ATOM      6  C   UNL     1      -2.661  15.914  20.601  0.00  0.00    +0.000 A 
ATOM      7  O   UNL     1      -3.566  16.728  20.468  0.00  0.00    +0.000 OA
ATOM      8  N   UNL     1      -2.742  14.508  20.586  0.00  0.00    +0.000 N 
ENDROOT
BRANCH   1  15
ATOM      9  C   UNL     1       0.617   8.584  20.753  0.00  0.00    +0.000 C 
ATOM     10  C   UNL     1      -0.047   9.944  20.866  0.00  0.00    +0.000 A 
ATOM     11  C   UNL     1      -0.517  10.466  22.091  0.00  0.00    +0.000 A 
ATOM     12  C   UNL     1      -0.440   9.661  23.374  0.00  0.00    +0.000 C 
ATOM     13  C   UNL     1      -1.065  11.791  22.135  0.00  0.00    +0.000 A 
ATOM     14  C   UNL     1      -1.633  12.306  23.448  0.00  0.00    +0.000 C 
ATOM     15  C   UNL     1      -1.098  12.611  20.959  0.00  0.00    +0.000 A 
ATOM     16  C   UNL     1      -0.732  12.036  19.716  0.00  0.00    +0.000 A 
ATOM     17  C   UNL     1      -0.800  12.805  18.418  0.00  0.00    +0.000 C 
ATOM     18  C   UNL     1      -0.200  10.712  19.675  0.00  0.00    +0.000 A 
ATOM     19  C   UNL     1       0.272  10.099  18.369  0.00  0.00    +0.000 C 
ENDBRANCH   1  15
BRANCH   8  20
ATOM     20  C   UNL     1      -3.987  13.870  20.738  0.00  0.00    +0.000 A 
ATOM     21  C   UNL     1      -4.491  13.172  19.664  0.00  0.00    +0.000 A 
ATOM     22  C   UNL     1      -5.537  12.285  19.800  0.00  0.00    +0.000 A 
ATOM     23  C   UNL     1      -6.135  12.213  21.083  0.00  0.00    +0.000 A 
ATOM     24  C   UNL     1      -5.761  13.003  22.187  0.00  0.00    +0.000 A 
ATOM     25  C   UNL     1      -4.659  13.860  21.989  0.00  0.00    +0.000 A 
BRANCH  22  26
ATOM     26  C   UNL     1      -5.924  11.373  18.634  0.00  0.00    +0.000 C 
ATOM     27  C   UNL     1      -6.789  12.164  17.625  0.00  0.00    +0.000 C 
ATOM     28  C   UNL     1      -4.670  10.843  17.916  0.00  0.00    +0.000 C 
ATOM     29  C   UNL     1      -6.746  10.148  19.093  0.00  0.00    +0.000 C 
ENDBRANCH  22  26
BRANCH  24  30
ATOM     30  C   UNL     1      -6.561  12.834  23.504  0.00  0.00    +0.000 C 
ATOM     31  C   UNL     1      -7.728  11.848  23.268  0.00  0.00    +0.000 C 
ATOM     32  C   UNL     1      -5.659  12.333  24.642  0.00  0.00    +0.000 C 
ATOM     33  C   UNL     1      -7.213  14.137  24.053  0.00  0.00    +0.000 C 
ENDBRANCH  24  30
BRANCH  25  34
ATOM     34  O   UNL     1      -4.225  14.793  22.866  0.00  0.00    +0.000 OA
ATOM     35  H   UNL     1      -4.989  15.257  23.260  0.00  0.00    +0.000 HD
ENDBRANCH  25  34
ENDBRANCH   8  20
TORSDOF 5
ENDMDL
MODEL 2
REMARK VINA RESULT:      -7.0      1.292      3.379
REMARK  Name = 
REMARK  17 active torsions:
REMARK  status: ('A' for Active; 'I' for Inactive)
REMARK    1  A    between atoms: C_1  and  C_2
REMARK    2  A    between atoms: C_3  and  C_4
REMARK    3  A    between atoms: C_5  and  C_6
REMARK    4  A    between atoms: C_7  and  N_8
REMARK    5  A    between atoms: N_11  and  C_12
REMARK    6  A    between atoms: N_15  and  C_16
REMARK    7  A    between atoms: C_18  and  C_19
REMARK    8  A    between atoms: C_19  and  C_20
REMARK    9  A    between atoms: C_19  and  C_21
REMARK   10  A    between atoms: C_19  and  C_22
REMARK   11  A    between atoms: C_24  and  C_25
REMARK   12  A    between atoms: C_25  and  C_26
REMARK   13  A    between atoms: C_25  and  C_27
REMARK   14  A    between atoms: C_25  and  C_28
REMARK   15  A    between atoms: C_29  and  O_30
REMARK   16  A    between atoms: C_31  and  C_32
REMARK   17  A    between atoms: C_33  and  C_34
REMARK                            x       y       z     vdW  Elec       q    Type
REMARK                         _______ _______ _______ _____ _____    ______ ____
ROOT
ATOM      1  N   UNL     1      -0.631  13.293  21.323  0.00  0.00    +0.000 N 
ATOM      2  C   UNL     1       0.258  14.370  21.622  0.00  0.00    +0.000 A 
ATOM      3  O   UNL     1       1.475  14.302  21.840  0.00  0.00    +0.000 OA
ATOM      4  N   UNL     1      -0.482  15.534  21.603  0.00  0.00    +0.000 N 
ATOM      5  C   UNL     1      -0.065  16.862  21.973  0.00  0.00    +0.000 C 
ATOM      6  C   UNL     1      -1.776  15.272  21.207  0.00  0.00    +0.000 A 
ATOM      7  O   UNL     1      -2.680  16.097  21.198  0.00  0.00    +0.000 OA
ATOM      8  N   UNL     1      -1.847  13.897  20.912  0.00  0.00    +0.000 N 
ENDROOT
BRANCH   1  15
ATOM      9  C   UNL     1       1.516   8.019  20.143  0.00  0.00    +0.000 C 
ATOM     10  C   UNL     1       0.841   9.344  20.445  0.00  0.00    +0.000 A 
ATOM     11  C   UNL     1       0.100   9.574  21.626  0.00  0.00    +0.000 A 
ATOM     12  C   UNL     1      -0.120   8.473  22.646  0.00  0.00    +0.000 C 
ATOM     13  C   UNL     1      -0.444  10.876  21.880  0.00  0.00    +0.000 A 
ATOM     14  C   UNL     1      -1.301  11.083  23.119  0.00  0.00    +0.000 C 
ATOM     15  C   UNL     1      -0.206  11.961  20.974  0.00  0.00    +0.000 A 
ATOM     16  C   UNL     1       0.438  11.691  19.740  0.00  0.00    +0.000 A 
ATOM     17  C   UNL     1       0.670  12.759  18.698  0.00  0.00    +0.000 C 
ATOM     18  C   UNL     1       0.967  10.389  19.485  0.00  0.00    +0.000 A 
ATOM     19  C   UNL     1       1.729  10.092  18.206  0.00  0.00    +0.000 C 
ENDBRANCH   1  15
BRANCH   8  20
ATOM     20  C   UNL     1      -3.092  13.242  20.884  0.00  0.00    +0.000 A 
ATOM     21  C   UNL     1      -3.821  13.190  22.051  0.00  0.00    +0.000 A 
ATOM     22  C   UNL     1      -5.154  12.839  22.060  0.00  0.00    +0.000 A 
ATOM     23  C   UNL     1      -5.703  12.433  20.818  0.00  0.00    +0.000 A 
ATOM     24  C   UNL     1      -4.977  12.327  19.616  0.00  0.00    +0.000 A 
ATOM     25  C   UNL     1      -3.630  12.738  19.670  0.00  0.00    +0.000 A 
BRANCH  22  26
ATOM     26  C   UNL     1      -5.980  13.002  23.337  0.00  0.00    +0.000 C 
ATOM     27  C   UNL     1      -7.345  12.296  23.162  0.00  0.00    +0.000 C 
ATOM     28  C   UNL     1      -5.247  12.389  24.544  0.00  0.00    +0.000 C 
ATOM     29  C   UNL     1      -6.260  14.484  23.672  0.00  0.00    +0.000 C 
ENDBRANCH  22  26
BRANCH  24  30
ATOM     30  C   UNL     1      -5.724  11.810  18.360  0.00  0.00    +0.000 C 
ATOM     31  C   UNL     1      -6.852  10.849  18.798  0.00  0.00    +0.000 C 
ATOM     32  C   UNL     1      -6.302  12.973  17.539  0.00  0.00    +0.000 C 
ATOM     33  C   UNL     1      -4.850  11.005  17.355  0.00  0.00    +0.000 C 
ENDBRANCH  24  30
BRANCH  25  34
ATOM     34  O   UNL     1      -2.726  12.593  18.675  0.00  0.00    +0.000 OA
ATOM     35  H   UNL     1      -2.876  11.746  18.213  0.00  0.00    +0.000 HD
ENDBRANCH  25  34
ENDBRANCH   8  20
TORSDOF 5
ENDMDL
MODEL 3
REMARK VINA RESULT:      -6.9      0.149      1.044
REMARK  Name = 
REMARK  17 active torsions:
REMARK  status: ('A' for Active; 'I' for Inactive)
REMARK    1  A    between atoms: C_1  and  C_2
REMARK    2  A    between atoms: C_3  and  C_4
REMARK    3  A    between atoms: C_5  and  C_6
REMARK    4  A    between atoms: C_7  and  N_8
REMARK    5  A    between atoms: N_11  and  C_12
REMARK    6  A    between atoms: N_15  and  C_16
REMARK    7  A    between atoms: C_18  and  C_19
REMARK    8  A    between atoms: C_19  and  C_20
REMARK    9  A    between atoms: C_19  and  C_21
REMARK   10  A    between atoms: C_19  and  C_22
REMARK   11  A    between atoms: C_24  and  C_25
REMARK   12  A    between atoms: C_25  and  C_26
REMARK   13  A    between atoms: C_25  and  C_27
REMARK   14  A    between atoms: C_25  and  C_28
REMARK   15  A    between atoms: C_29  and  O_30
REMARK   16  A    between atoms: C_31  and  C_32
REMARK   17  A    between atoms: C_33  and  C_34
REMARK                            x       y       z     vdW  Elec       q    Type
REMARK                         _______ _______ _______ _____ _____    ______ ____
ROOT
ATOM      1  N   UNL     1      -1.366  13.973  21.037  0.00  0.00    +0.000 N 
ATOM      2  C   UNL     1      -0.449  15.067  21.076  0.00  0.00    +0.000 A 
ATOM      3  O   UNL     1       0.777  15.015  21.247  0.00  0.00    +0.000 OA
ATOM      4  N   UNL     1      -1.172  16.221  20.860  0.00  0.00    +0.000 N 
ATOM      5  C   UNL     1      -0.720  17.586  20.941  0.00  0.00    +0.000 C 
ATOM      6  C   UNL     1      -2.488  15.917  20.584  0.00  0.00    +0.000 A 
ATOM      7  O   UNL     1      -3.380  16.745  20.453  0.00  0.00    +0.000 OA
ATOM      8  N   UNL     1      -2.592  14.512  20.571  0.00  0.00    +0.000 N 
ENDROOT
BRANCH   1  15
ATOM      9  C   UNL     1       0.670   8.534  20.741  0.00  0.00    +0.000 C 
ATOM     10  C   UNL     1       0.028   9.904  20.851  0.00  0.00    +0.000 A 
ATOM     11  C   UNL     1      -0.448  10.431  22.072  0.00  0.00    +0.000 A 
ATOM     12  C   UNL     1      -0.401   9.620  23.353  0.00  0.00    +0.000 C 
ATOM     13  C   UNL     1      -0.973  11.765  22.113  0.00  0.00    +0.000 A 
ATOM     14  C   UNL     1      -1.548  12.286  23.420  0.00  0.00    +0.000 C 
ATOM     15  C   UNL     1      -0.977  12.589  20.940  0.00  0.00    +0.000 A 
ATOM     16  C   UNL     1      -0.606  12.012  19.699  0.00  0.00    +0.000 A 
ATOM     17  C   UNL     1      -0.645  12.786  18.404  0.00  0.00    +0.000 C 
ATOM     18  C   UNL     1      -0.096  10.678  19.661  0.00  0.00    +0.000 A 
ATOM     19  C   UNL     1       0.381  10.062  18.358  0.00  0.00    +0.000 C 
ENDBRANCH   1  15
BRANCH   8  20
ATOM     20  C   UNL     1      -3.846  13.894  20.731  0.00  0.00    +0.000 A 
ATOM     21  C   UNL     1      -4.368  13.205  19.660  0.00  0.00    +0.000 A 
ATOM     22  C   UNL     1      -5.428  12.336  19.803  0.00  0.00    +0.000 A 
ATOM     23  C   UNL     1      -6.019  12.273  21.090  0.00  0.00    +0.000 A 
ATOM     24  C   UNL     1      -5.624  13.056  22.191  0.00  0.00    +0.000 A 
ATOM     25  C   UNL     1      -4.510  13.895  21.987  0.00  0.00    +0.000 A 
BRANCH  22  26
ATOM     26  C   UNL     1      -5.837  11.430  18.639  0.00  0.00    +0.000 C 
ATOM     27  C   UNL     1      -6.740  10.291  19.166  0.00  0.00    +0.000 C 
ATOM     28  C   UNL     1      -6.604  12.228  17.569  0.00  0.00    +0.000 C 
ATOM     29  C   UNL     1      -4.621  10.778  17.945  0.00  0.00    +0.000 C 
ENDBRANCH  22  26
BRANCH  24  30
ATOM     30  C   UNL     1      -6.419  12.900  23.514  0.00  0.00    +0.000 C 
ATOM     31  C   UNL     1      -5.478  12.354  24.612  0.00  0.00    +0.000 C 
ATOM     32  C   UNL     1      -7.035  14.237  23.953  0.00  0.00    +0.000 C 
ATOM     33  C   UNL     1      -7.616  11.908  23.452  0.00  0.00    +0.000 C 
ENDBRANCH  24  30
BRANCH  25  34
ATOM     34  O   UNL     1      -4.055  14.820  22.861  0.00  0.00    +0.000 OA
ATOM     35  H   UNL     1      -3.336  15.338  22.450  0.00  0.00    +0.000 HD
ENDBRANCH  25  34
ENDBRANCH   8  20
TORSDOF 5
ENDMDL
MODEL 4
REMARK VINA RESULT:      -6.9      0.092      1.049
REMARK  Name = 
REMARK  17 active torsions:
REMARK  status: ('A' for Active; 'I' for Inactive)
REMARK    1  A    between atoms: C_1  and  C_2
REMARK    2  A    between atoms: C_3  and  C_4
REMARK    3  A    between atoms: C_5  and  C_6
REMARK    4  A    between atoms: C_7  and  N_8
REMARK    5  A    between atoms: N_11  and  C_12
REMARK    6  A    between atoms: N_15  and  C_16
REMARK    7  A    between atoms: C_18  and  C_19
REMARK    8  A    between atoms: C_19  and  C_20
REMARK    9  A    between atoms: C_19  and  C_21
REMARK   10  A    between atoms: C_19  and  C_22
REMARK   11  A    between atoms: C_24  and  C_25
REMARK   12  A    between atoms: C_25  and  C_26
REMARK   13  A    between atoms: C_25  and  C_27
REMARK   14  A    between atoms: C_25  and  C_28
REMARK   15  A    between atoms: C_29  and  O_30
REMARK   16  A    between atoms: C_31  and  C_32
REMARK   17  A    between atoms: C_33  and  C_34
REMARK                            x       y       z     vdW  Elec       q    Type
REMARK                         _______ _______ _______ _____ _____    ______ ____
ROOT
ATOM      1  N   UNL     1      -1.436  13.966  21.023  0.00  0.00    +0.000 N 
ATOM      2  C   UNL     1      -0.523  15.064  21.053  0.00  0.00    +0.000 A 
ATOM      3  O   UNL     1       0.704  15.018  21.221  0.00  0.00    +0.000 OA
ATOM      4  N   UNL     1      -1.251  16.214  20.831  0.00  0.00    +0.000 N 
ATOM      5  C   UNL     1      -0.804  17.581  20.902  0.00  0.00    +0.000 C 
ATOM      6  C   UNL     1      -2.567  15.902  20.560  0.00  0.00    +0.000 A 
ATOM      7  O   UNL     1      -3.463  16.726  20.426  0.00  0.00    +0.000 OA
ATOM      8  N   UNL     1      -2.665  14.497  20.557  0.00  0.00    +0.000 N 
ENDROOT
BRANCH   1  15
ATOM      9  C   UNL     1       0.622   8.534  20.750  0.00  0.00    +0.000 C 
ATOM     10  C   UNL     1      -0.025   9.903  20.857  0.00  0.00    +0.000 A 
ATOM     11  C   UNL     1      -0.480  10.441  22.080  0.00  0.00    +0.000 A 
ATOM     12  C   UNL     1      -0.405   9.645  23.369  0.00  0.00    +0.000 C 
ATOM     13  C   UNL     1      -1.012  11.773  22.116  0.00  0.00    +0.000 A 
ATOM     14  C   UNL     1      -1.565  12.305  23.428  0.00  0.00    +0.000 C 
ATOM     15  C   UNL     1      -1.041  12.583  20.934  0.00  0.00    +0.000 A 
ATOM     16  C   UNL     1      -0.690  11.994  19.693  0.00  0.00    +0.000 A 
ATOM     17  C   UNL     1      -0.758  12.753  18.390  0.00  0.00    +0.000 C 
ATOM     18  C   UNL     1      -0.175  10.663  19.661  0.00  0.00    +0.000 A 
ATOM     19  C   UNL     1       0.281  10.034  18.356  0.00  0.00    +0.000 C 
ENDBRANCH   1  15
BRANCH   8  20
ATOM     20  C   UNL     1      -3.917  13.875  20.723  0.00  0.00    +0.000 A 
ATOM     21  C   UNL     1      -4.446  13.191  19.653  0.00  0.00    +0.000 A 
ATOM     22  C   UNL     1      -5.503  12.318  19.799  0.00  0.00    +0.000 A 
ATOM     23  C   UNL     1      -6.082  12.247  21.091  0.00  0.00    +0.000 A 
ATOM     24  C   UNL     1      -5.681  13.025  22.194  0.00  0.00    +0.000 A 
ATOM     25  C   UNL     1      -4.571  13.867  21.985  0.00  0.00    +0.000 A 
BRANCH  22  26
ATOM     26  C   UNL     1      -5.919  11.418  18.634  0.00  0.00    +0.000 C 
ATOM     27  C   UNL     1      -4.656  10.904  17.904  0.00  0.00    +0.000 C 
ATOM     28  C   UNL     1      -6.736  10.215  19.138  0.00  0.00    +0.000 C 
ATOM     29  C   UNL     1      -6.787  12.164  17.596  0.00  0.00    +0.000 C 
ENDBRANCH  22  26
BRANCH  24  30
ATOM     30  C   UNL     1      -6.464  12.860  23.522  0.00  0.00    +0.000 C 
ATOM     31  C   UNL     1      -7.016  14.235  23.962  0.00  0.00    +0.000 C 
ATOM     32  C   UNL     1      -7.609  11.848  23.369  0.00  0.00    +0.000 C 
ATOM     33  C   UNL     1      -5.624  12.337  24.724  0.00  0.00    +0.000 C 
ENDBRANCH  24  30
BRANCH  25  34
ATOM     34  O   UNL     1      -4.110  14.790  22.860  0.00  0.00    +0.000 OA
ATOM     35  H   UNL     1      -3.890  15.614  22.386  0.00  0.00    +0.000 HD
ENDBRANCH  25  34
ENDBRANCH   8  20
TORSDOF 5
ENDMDL
MODEL 5
REMARK VINA RESULT:      -6.9      1.342      3.385
REMARK  Name = 
REMARK  17 active torsions:
REMARK  status: ('A' for Active; 'I' for Inactive)
REMARK    1  A    between atoms: C_1  and  C_2
REMARK    2  A    between atoms: C_3  and  C_4
REMARK    3  A    between atoms: C_5  and  C_6
REMARK    4  A    between atoms: C_7  and  N_8
REMARK    5  A    between atoms: N_11  and  C_12
REMARK    6  A    between atoms: N_15  and  C_16
REMARK    7  A    between atoms: C_18  and  C_19
REMARK    8  A    between atoms: C_19  and  C_20
REMARK    9  A    between atoms: C_19  and  C_21
REMARK   10  A    between atoms: C_19  and  C_22
REMARK   11  A    between atoms: C_24  and  C_25
REMARK   12  A    between atoms: C_25  and  C_26
REMARK   13  A    between atoms: C_25  and  C_27
REMARK   14  A    between atoms: C_25  and  C_28
REMARK   15  A    between atoms: C_29  and  O_30
REMARK   16  A    between atoms: C_31  and  C_32
REMARK   17  A    between atoms: C_33  and  C_34
REMARK                            x       y       z     vdW  Elec       q    Type
REMARK                         _______ _______ _______ _____ _____    ______ ____
ROOT
ATOM      1  N   UNL     1      -0.513  13.292  21.284  0.00  0.00    +0.000 N 
ATOM      2  C   UNL     1       0.394  14.365  21.538  0.00  0.00    +0.000 A 
ATOM      3  O   UNL     1       1.618  14.290  21.715  0.00  0.00    +0.000 OA
ATOM      4  N   UNL     1      -0.337  15.535  21.528  0.00  0.00    +0.000 N 
ATOM      5  C   UNL     1       0.103  16.864  21.866  0.00  0.00    +0.000 C 
ATOM      6  C   UNL     1      -1.646  15.279  21.179  0.00  0.00    +0.000 A 
ATOM      7  O   UNL     1      -2.543  16.112  21.190  0.00  0.00    +0.000 OA
ATOM      8  N   UNL     1      -1.737  13.900  20.906  0.00  0.00    +0.000 N 
ENDROOT
BRANCH   1  15
ATOM      9  C   UNL     1       1.546   7.981  20.111  0.00  0.00    +0.000 C 
ATOM     10  C   UNL     1       0.894   9.317  20.414  0.00  0.00    +0.000 A 
ATOM     11  C   UNL     1       0.174   9.566  21.603  0.00  0.00    +0.000 A 
ATOM     12  C   UNL     1      -0.045   8.476  22.635  0.00  0.00    +0.000 C 
ATOM     13  C   UNL     1      -0.350  10.877  21.856  0.00  0.00    +0.000 A 
ATOM     14  C   UNL     1      -1.184  11.104  23.106  0.00  0.00    +0.000 C 
ATOM     15  C   UNL     1      -0.111  11.952  20.938  0.00  0.00    +0.000 A 
ATOM     16  C   UNL     1       0.511  11.664  19.697  0.00  0.00    +0.000 A 
ATOM     17  C   UNL     1       0.740  12.721  18.643  0.00  0.00    +0.000 C 
ATOM     18  C   UNL     1       1.018  10.354  19.444  0.00  0.00    +0.000 A 
ATOM     19  C   UNL     1       1.756  10.037  18.155  0.00  0.00    +0.000 C 
ENDBRANCH   1  15
BRANCH   8  20
ATOM     20  C   UNL     1      -2.989  13.256  20.929  0.00  0.00    +0.000 A 
ATOM     21  C   UNL     1      -3.676  13.223  22.121  0.00  0.00    +0.000 A 
ATOM     22  C   UNL     1      -5.011  12.884  22.180  0.00  0.00    +0.000 A 
ATOM     23  C   UNL     1      -5.607  12.468  20.963  0.00  0.00    +0.000 A 
ATOM     24  C   UNL     1      -4.923  12.343  19.738  0.00  0.00    +0.000 A 
ATOM     25  C   UNL     1      -3.572  12.743  19.740  0.00  0.00    +0.000 A 
BRANCH  22  26
ATOM     26  C   UNL     1      -5.790  13.068  23.484  0.00  0.00    +0.000 C 
ATOM     27  C   UNL     1      -5.001  12.429  24.650  0.00  0.00    +0.000 C 
ATOM     28  C   UNL     1      -6.010  14.562  23.783  0.00  0.00    +0.000 C 
ATOM     29  C   UNL     1      -7.181  12.397  23.438  0.00  0.00    +0.000 C 
ENDBRANCH  22  26
BRANCH  24  30
ATOM     30  C   UNL     1      -5.718  11.818  18.515  0.00  0.00    +0.000 C 
ATOM     31  C   UNL     1      -4.925  10.671  17.846  0.00  0.00    +0.000 C 
ATOM     32  C   UNL     1      -7.116  11.332  18.927  0.00  0.00    +0.000 C 
ATOM     33  C   UNL     1      -5.973  12.865  17.392  0.00  0.00    +0.000 C 
ENDBRANCH  24  30
BRANCH  25  34
ATOM     34  O   UNL     1      -2.705  12.579  18.716  0.00  0.00    +0.000 OA
ATOM     35  H   UNL     1      -3.045  11.901  18.100  0.00  0.00    +0.000 HD
ENDBRANCH  25  34
ENDBRANCH   8  20
TORSDOF 5
ENDMDL
MODEL 6
REMARK VINA RESULT:      -6.9      1.100      3.268
REMARK  Name = 
REMARK  17 active torsions:
REMARK  status: ('A' for Active; 'I' for Inactive)
REMARK    1  A    between atoms: C_1  and  C_2
REMARK    2  A    between atoms: C_3  and  C_4
REMARK    3  A    between atoms: C_5  and  C_6
REMARK    4  A    between atoms: C_7  and  N_8
REMARK    5  A    between atoms: N_11  and  C_12
REMARK    6  A    between atoms: N_15  and  C_16
REMARK    7  A    between atoms: C_18  and  C_19
REMARK    8  A    between atoms: C_19  and  C_20
REMARK    9  A    between atoms: C_19  and  C_21
REMARK   10  A    between atoms: C_19  and  C_22
REMARK   11  A    between atoms: C_24  and  C_25
REMARK   12  A    between atoms: C_25  and  C_26
REMARK   13  A    between atoms: C_25  and  C_27
REMARK   14  A    between atoms: C_25  and  C_28
REMARK   15  A    between atoms: C_29  and  O_30
REMARK   16  A    between atoms: C_31  and  C_32
REMARK   17  A    between atoms: C_33  and  C_34
REMARK                            x       y       z     vdW  Elec       q    Type
REMARK                         _______ _______ _______ _____ _____    ______ ____
ROOT
ATOM      1  N   UNL     1      -0.907  13.526  21.093  0.00  0.00    +0.000 N 
ATOM      2  C   UNL     1      -0.073  14.679  21.202  0.00  0.00    +0.000 A 
ATOM      3  O   UNL     1       1.153  14.706  21.383  0.00  0.00    +0.000 OA
ATOM      4  N   UNL     1      -0.877  15.788  21.045  0.00  0.00    +0.000 N 
ATOM      5  C   UNL     1      -0.525  17.175  21.206  0.00  0.00    +0.000 C 
ATOM      6  C   UNL     1      -2.165  15.405  20.738  0.00  0.00    +0.000 A 
ATOM      7  O   UNL     1      -3.114  16.173  20.645  0.00  0.00    +0.000 OA
ATOM      8  N   UNL     1      -2.167  14.000  20.645  0.00  0.00    +0.000 N 
ENDROOT
BRANCH   1  15
ATOM      9  C   UNL     1       1.503   8.258  20.584  0.00  0.00    +0.000 C 
ATOM     10  C   UNL     1       0.763   9.575  20.727  0.00  0.00    +0.000 A 
ATOM     11  C   UNL     1       0.079   9.945  21.906  0.00  0.00    +0.000 A 
ATOM     12  C   UNL     1      -0.010   9.006  23.094  0.00  0.00    +0.000 C 
ATOM     13  C   UNL     1      -0.533  11.239  21.996  0.00  0.00    +0.000 A 
ATOM     14  C   UNL     1      -1.327  11.588  23.244  0.00  0.00    +0.000 C 
ATOM     15  C   UNL     1      -0.418  12.181  20.922  0.00  0.00    +0.000 A 
ATOM     16  C   UNL     1       0.169  11.758  19.703  0.00  0.00    +0.000 A 
ATOM     17  C   UNL     1       0.270  12.662  18.498  0.00  0.00    +0.000 C 
ATOM     18  C   UNL     1       0.765  10.464  19.613  0.00  0.00    +0.000 A 
ATOM     19  C   UNL     1       1.469  10.014  18.345  0.00  0.00    +0.000 C 
ENDBRANCH   1  15
BRANCH   8  20
ATOM     20  C   UNL     1      -3.374  13.285  20.757  0.00  0.00    +0.000 A 
ATOM     21  C   UNL     1      -4.008  13.276  21.978  0.00  0.00    +0.000 A 
ATOM     22  C   UNL     1      -5.316  12.861  22.115  0.00  0.00    +0.000 A 
ATOM     23  C   UNL     1      -5.935  12.346  20.948  0.00  0.00    +0.000 A 
ATOM     24  C   UNL     1      -5.296  12.196  19.702  0.00  0.00    +0.000 A 
ATOM     25  C   UNL     1      -3.973  12.674  19.623  0.00  0.00    +0.000 A 
BRANCH  22  26
ATOM     26  C   UNL     1      -6.050  13.069  23.441  0.00  0.00    +0.000 C 
ATOM     27  C   UNL     1      -6.241  14.583  23.693  0.00  0.00    +0.000 C 
ATOM     28  C   UNL     1      -7.429  12.385  23.415  0.00  0.00    +0.000 C 
ATOM     29  C   UNL     1      -5.270  12.491  24.642  0.00  0.00    +0.000 C 
ENDBRANCH  22  26
BRANCH  24  30
ATOM     30  C   UNL     1      -6.107  11.559  18.544  0.00  0.00    +0.000 C 
ATOM     31  C   UNL     1      -7.250  12.518  18.136  0.00  0.00    +0.000 C 
ATOM     32  C   UNL     1      -5.208  11.256  17.336  0.00  0.00    +0.000 C 
ATOM     33  C   UNL     1      -6.794  10.204  18.884  0.00  0.00    +0.000 C 
ENDBRANCH  24  30
BRANCH  25  34
ATOM     34  O   UNL     1      -3.141  12.507  18.571  0.00  0.00    +0.000 OA
ATOM     35  H   UNL     1      -2.217  12.648  18.855  0.00  0.00    +0.000 HD
ENDBRANCH  25  34
ENDBRANCH   8  20
TORSDOF 5
ENDMDL
MODEL 7
REMARK VINA RESULT:      -6.5      1.934      2.610
REMARK  Name = 
REMARK  17 active torsions:
REMARK  status: ('A' for Active; 'I' for Inactive)
REMARK    1  A    between atoms: C_1  and  C_2
REMARK    2  A    between atoms: C_3  and  C_4
REMARK    3  A    between atoms: C_5  and  C_6
REMARK    4  A    between atoms: C_7  and  N_8
REMARK    5  A    between atoms: N_11  and  C_12
REMARK    6  A    between atoms: N_15  and  C_16
REMARK    7  A    between atoms: C_18  and  C_19
REMARK    8  A    between atoms: C_19  and  C_20
REMARK    9  A    between atoms: C_19  and  C_21
REMARK   10  A    between atoms: C_19  and  C_22
REMARK   11  A    between atoms: C_24  and  C_25
REMARK   12  A    between atoms: C_25  and  C_26
REMARK   13  A    between atoms: C_25  and  C_27
REMARK   14  A    between atoms: C_25  and  C_28
REMARK   15  A    between atoms: C_29  and  O_30
REMARK   16  A    between atoms: C_31  and  C_32
REMARK   17  A    between atoms: C_33  and  C_34
REMARK                            x       y       z     vdW  Elec       q    Type
REMARK                         _______ _______ _______ _____ _____    ______ ____
ROOT
ATOM      1  N   UNL     1       0.669  12.783  20.462  0.00  0.00    +0.000 N 
ATOM      2  C   UNL     1       1.786  13.640  20.705  0.00  0.00    +0.000 A 
ATOM      3  O   UNL     1       2.890  13.322  21.167  0.00  0.00    +0.000 OA
ATOM      4  N   UNL     1       1.428  14.910  20.305  0.00  0.00    +0.000 N 
ATOM      5  C   UNL     1       2.161  16.138  20.473  0.00  0.00    +0.000 C 
ATOM      6  C   UNL     1       0.177  14.894  19.723  0.00  0.00    +0.000 A 
ATOM      7  O   UNL     1      -0.437  15.892  19.370  0.00  0.00    +0.000 OA
ATOM      8  N   UNL     1      -0.252  13.553  19.706  0.00  0.00    +0.000 N 
ENDROOT
BRANCH   1  15
ATOM      9  C   UNL     1       1.343   7.016  20.784  0.00  0.00    +0.000 C 
ATOM     10  C   UNL     1       1.043   8.501  20.694  0.00  0.00    +0.000 A 
ATOM     11  C   UNL     1       0.340   9.203  21.698  0.00  0.00    +0.000 A 
ATOM     12  C   UNL     1      -0.219   8.489  22.914  0.00  0.00    +0.000 C 
ATOM     13  C   UNL     1       0.162  10.621  21.580  0.00  0.00    +0.000 A 
ATOM     14  C   UNL     1      -0.662  11.344  22.634  0.00  0.00    +0.000 C 
ATOM     15  C   UNL     1       0.730  11.344  20.481  0.00  0.00    +0.000 A 
ATOM     16  C   UNL     1       1.331  10.616  19.423  0.00  0.00    +0.000 A 
ATOM     17  C   UNL     1       1.894  11.290  18.195  0.00  0.00    +0.000 C 
ATOM     18  C   UNL     1       1.495   9.202  19.538  0.00  0.00    +0.000 A 
ATOM     19  C   UNL     1       2.204   8.407  18.456  0.00  0.00    +0.000 C 
ENDBRANCH   1  15
BRANCH   8  20
ATOM     20  C   UNL     1      -1.619  13.250  19.567  0.00  0.00    +0.000 A 
ATOM     21  C   UNL     1      -2.011  12.520  18.468  0.00  0.00    +0.000 A 
ATOM     22  C   UNL     1      -3.255  11.931  18.393  0.00  0.00    +0.000 A 
ATOM     23  C   UNL     1      -4.145  12.206  19.461  0.00  0.00    +0.000 A 
ATOM     24  C   UNL     1      -3.856  13.059  20.545  0.00  0.00    +0.000 A 
ATOM     25  C   UNL     1      -2.555  13.597  20.579  0.00  0.00    +0.000 A 
BRANCH  22  26
ATOM     26  C   UNL     1      -3.571  10.955  17.258  0.00  0.00    +0.000 C 
ATOM     27  C   UNL     1      -5.023  11.179  16.775  0.00  0.00    +0.000 C 
ATOM     28  C   UNL     1      -2.609  11.161  16.075  0.00  0.00    +0.000 C 
ATOM     29  C   UNL     1      -3.450   9.480  17.701  0.00  0.00    +0.000 C 
ENDBRANCH  22  26
BRANCH  24  30
ATOM     30  C   UNL     1      -4.969  13.293  21.598  0.00  0.00    +0.000 C 
ATOM     31  C   UNL     1      -6.206  12.442  21.231  0.00  0.00    +0.000 C 
ATOM     32  C   UNL     1      -4.480  12.943  23.011  0.00  0.00    +0.000 C 
ATOM     33  C   UNL     1      -5.482  14.759  21.703  0.00  0.00    +0.000 C 
ENDBRANCH  24  30
BRANCH  25  34
ATOM     34  O   UNL     1      -2.117  14.536  21.448  0.00  0.00    +0.000 OA
ATOM     35  H   UNL     1      -2.172  15.419  21.036  0.00  0.00    +0.000 HD
ENDBRANCH  25  34
ENDBRANCH   8  20
TORSDOF 5
ENDMDL
MODEL 8
REMARK VINA RESULT:      -6.5      1.968      2.860
REMARK  Name = 
REMARK  17 active torsions:
REMARK  status: ('A' for Active; 'I' for Inactive)
REMARK    1  A    between atoms: C_1  and  C_2
REMARK    2  A    between atoms: C_3  and  C_4
REMARK    3  A    between atoms: C_5  and  C_6
REMARK    4  A    between atoms: C_7  and  N_8
REMARK    5  A    between atoms: N_11  and  C_12
REMARK    6  A    between atoms: N_15  and  C_16
REMARK    7  A    between atoms: C_18  and  C_19
REMARK    8  A    between atoms: C_19  and  C_20
REMARK    9  A    between atoms: C_19  and  C_21
REMARK   10  A    between atoms: C_19  and  C_22
REMARK   11  A    between atoms: C_24  and  C_25
REMARK   12  A    between atoms: C_25  and  C_26
REMARK   13  A    between atoms: C_25  and  C_27
REMARK   14  A    between atoms: C_25  and  C_28
REMARK   15  A    between atoms: C_29  and  O_30
REMARK   16  A    between atoms: C_31  and  C_32
REMARK   17  A    between atoms: C_33  and  C_34
REMARK                            x       y       z     vdW  Elec       q    Type
REMARK                         _______ _______ _______ _____ _____    ______ ____
ROOT
ATOM      1  N   UNL     1       0.683  12.754  20.405  0.00  0.00    +0.000 N 
ATOM      2  C   UNL     1       1.805  13.607  20.634  0.00  0.00    +0.000 A 
ATOM      3  O   UNL     1       2.907  13.289  21.102  0.00  0.00    +0.000 OA
ATOM      4  N   UNL     1       1.454  14.873  20.215  0.00  0.00    +0.000 N 
ATOM      5  C   UNL     1       2.195  16.099  20.364  0.00  0.00    +0.000 C 
ATOM      6  C   UNL     1       0.204  14.856  19.634  0.00  0.00    +0.000 A 
ATOM      7  O   UNL     1      -0.404  15.852  19.265  0.00  0.00    +0.000 OA
ATOM      8  N   UNL     1      -0.234  13.517  19.637  0.00  0.00    +0.000 N 
ENDROOT
BRANCH   1  15
ATOM      9  C   UNL     1       1.320   6.988  20.816  0.00  0.00    +0.000 C 
ATOM     10  C   UNL     1       1.030   8.473  20.703  0.00  0.00    +0.000 A 
ATOM     11  C   UNL     1       0.331   9.194  21.696  0.00  0.00    +0.000 A 
ATOM     12  C   UNL     1      -0.233   8.504  22.923  0.00  0.00    +0.000 C 
ATOM     13  C   UNL     1       0.161  10.612  21.556  0.00  0.00    +0.000 A 
ATOM     14  C   UNL     1      -0.658  11.357  22.598  0.00  0.00    +0.000 C 
ATOM     15  C   UNL     1       0.734  11.314  20.446  0.00  0.00    +0.000 A 
ATOM     16  C   UNL     1       1.331  10.566  19.400  0.00  0.00    +0.000 A 
ATOM     17  C   UNL     1       1.898  11.218  18.162  0.00  0.00    +0.000 C 
ATOM     18  C   UNL     1       1.486   9.153  19.536  0.00  0.00    +0.000 A 
ATOM     19  C   UNL     1       2.190   8.338  18.467  0.00  0.00    +0.000 C 
ENDBRANCH   1  15
BRANCH   8  20
ATOM     20  C   UNL     1      -1.603  13.220  19.503  0.00  0.00    +0.000 A 
ATOM     21  C   UNL     1      -2.002  12.492  18.406  0.00  0.00    +0.000 A 
ATOM     22  C   UNL     1      -3.249  11.909  18.335  0.00  0.00    +0.000 A 
ATOM     23  C   UNL     1      -4.134  12.189  19.406  0.00  0.00    +0.000 A 
ATOM     24  C   UNL     1      -3.838  13.041  20.488  0.00  0.00    +0.000 A 
ATOM     25  C   UNL     1      -2.533  13.573  20.518  0.00  0.00    +0.000 A 
BRANCH  22  26
ATOM     26  C   UNL     1      -3.574  10.933  17.202  0.00  0.00    +0.000 C 
ATOM     27  C   UNL     1      -3.396   9.481  17.706  0.00  0.00    +0.000 C 
ATOM     28  C   UNL     1      -5.021  11.123  16.715  0.00  0.00    +0.000 C 
ATOM     29  C   UNL     1      -2.647  11.119  15.981  0.00  0.00    +0.000 C 
ENDBRANCH  22  26
BRANCH  24  30
ATOM     30  C   UNL     1      -4.946  13.282  21.545  0.00  0.00    +0.000 C 
ATOM     31  C   UNL     1      -4.411  12.891  22.942  0.00  0.00    +0.000 C 
ATOM     32  C   UNL     1      -5.410  14.746  21.541  0.00  0.00    +0.000 C 
ATOM     33  C   UNL     1      -6.245  12.449  21.343  0.00  0.00    +0.000 C 
ENDBRANCH  24  30
BRANCH  25  34
ATOM     34  O   UNL     1      -2.088  14.510  21.385  0.00  0.00    +0.000 OA
ATOM     35  H   UNL     1      -2.780  14.703  22.046  0.00  0.00    +0.000 HD
ENDBRANCH  25  34
ENDBRANCH   8  20
TORSDOF 5
ENDMDL
MODEL 9
REMARK VINA RESULT:      -6.4      1.114      3.808
REMARK  Name = 
REMARK  17 active torsions:
REMARK  status: ('A' for Active; 'I' for Inactive)
REMARK    1  A    between atoms: C_1  and  C_2
REMARK    2  A    between atoms: C_3  and  C_4
REMARK    3  A    between atoms: C_5  and  C_6
REMARK    4  A    between atoms: C_7  and  N_8
REMARK    5  A    between atoms: N_11  and  C_12
REMARK    6  A    between atoms: N_15  and  C_16
REMARK    7  A    between atoms: C_18  and  C_19
REMARK    8  A    between atoms: C_19  and  C_20
REMARK    9  A    between atoms: C_19  and  C_21
REMARK   10  A    between atoms: C_19  and  C_22
REMARK   11  A    between atoms: C_24  and  C_25
REMARK   12  A    between atoms: C_25  and  C_26
REMARK   13  A    between atoms: C_25  and  C_27
REMARK   14  A    between atoms: C_25  and  C_28
REMARK   15  A    between atoms: C_29  and  O_30
REMARK   16  A    between atoms: C_31  and  C_32
REMARK   17  A    between atoms: C_33  and  C_34
REMARK                            x       y       z     vdW  Elec       q    Type
REMARK                         _______ _______ _______ _____ _____    ______ ____
ROOT
ATOM      1  N   UNL     1      -0.910  13.769  21.186  0.00  0.00    +0.000 N 
ATOM      2  C   UNL     1      -0.164  14.976  21.347  0.00  0.00    +0.000 A 
ATOM      3  O   UNL     1       1.040  15.086  21.617  0.00  0.00    +0.000 OA
ATOM      4  N   UNL     1      -1.027  16.028  21.122  0.00  0.00    +0.000 N 
ATOM      5  C   UNL     1      -0.782  17.436  21.298  0.00  0.00    +0.000 C 
ATOM      6  C   UNL     1      -2.261  15.559  20.724  0.00  0.00    +0.000 A 
ATOM      7  O   UNL     1      -3.250  16.260  20.556  0.00  0.00    +0.000 OA
ATOM      8  N   UNL     1      -2.161  14.156  20.643  0.00  0.00    +0.000 N 
ENDROOT
BRANCH   1  15
ATOM      9  C   UNL     1       1.055   8.345  20.447  0.00  0.00    +0.000 C 
ATOM     10  C   UNL     1       0.662   9.798  20.642  0.00  0.00    +0.000 A 
ATOM     11  C   UNL     1       0.929  10.799  19.683  0.00  0.00    +0.000 A 
ATOM     12  C   UNL     1       1.691  10.487  18.409  0.00  0.00    +0.000 C 
ATOM     13  C   UNL     1       0.459  12.136  19.902  0.00  0.00    +0.000 A 
ATOM     14  C   UNL     1       0.821  13.214  18.893  0.00  0.00    +0.000 C 
ATOM     15  C   UNL     1      -0.320  12.459  21.061  0.00  0.00    +0.000 A 
ATOM     16  C   UNL     1      -0.482  11.477  22.071  0.00  0.00    +0.000 A 
ATOM     17  C   UNL     1      -1.229  11.752  23.354  0.00  0.00    +0.000 C 
ATOM     18  C   UNL     1      -0.001  10.151  21.854  0.00  0.00    +0.000 A 
ATOM     19  C   UNL     1      -0.228   9.059  22.885  0.00  0.00    +0.000 C 
ENDBRANCH   1  15
BRANCH   8  20
ATOM     20  C   UNL     1      -3.323  13.362  20.671  0.00  0.00    +0.000 A 
ATOM     21  C   UNL     1      -4.070  13.350  21.827  0.00  0.00    +0.000 A 
ATOM     22  C   UNL     1      -5.354  12.850  21.858  0.00  0.00    +0.000 A 
ATOM     23  C   UNL     1      -5.822  12.251  20.661  0.00  0.00    +0.000 A 
ATOM     24  C   UNL     1      -5.058  12.102  19.487  0.00  0.00    +0.000 A 
ATOM     25  C   UNL     1      -3.768  12.671  19.513  0.00  0.00    +0.000 A 
BRANCH  22  26
ATOM     26  C   UNL     1      -6.225  13.051  23.099  0.00  0.00    +0.000 C 
ATOM     27  C   UNL     1      -7.566  12.304  22.915  0.00  0.00    +0.000 C 
ATOM     28  C   UNL     1      -5.517  12.515  24.356  0.00  0.00    +0.000 C 
ATOM     29  C   UNL     1      -6.551  14.540  23.353  0.00  0.00    +0.000 C 
ENDBRANCH  22  26
BRANCH  24  30
ATOM     30  C   UNL     1      -5.709  11.370  18.286  0.00  0.00    +0.000 C 
ATOM     31  C   UNL     1      -6.909  10.535  18.789  0.00  0.00    +0.000 C 
ATOM     32  C   UNL     1      -6.164  12.365  17.208  0.00  0.00    +0.000 C 
ATOM     33  C   UNL     1      -4.780  10.368  17.540  0.00  0.00    +0.000 C 
ENDBRANCH  24  30
BRANCH  25  34
ATOM     34  O   UNL     1      -2.829  12.526  18.551  0.00  0.00    +0.000 OA
ATOM     35  H   UNL     1      -2.101  11.966  18.882  0.00  0.00    +0.000 HD
ENDBRANCH  25  34
ENDBRANCH   8  20
TORSDOF 5
ENDMDL
