MODEL 1
REMARK VINA RESULT:      -7.2      0.000      0.000
REMARK  Name = 
REMARK  3 active torsions:
REMARK  status: ('A' for Active; 'I' for Inactive)
REMARK    1  A    between atoms: C_1  and  C_2
REMARK    2  A    between atoms: C_10  and  N_11
REMARK    3  A    between atoms: C_22  and  C_23
REMARK                            x       y       z     vdW  Elec       q    Type
REMARK                         _______ _______ _______ _____ _____    ______ ____
ROOT
ATOM      1  C   UNL     1      -0.790  16.003  25.525  0.00  0.00    +0.000 C 
ATOM      2  C   UNL     1      -1.044  15.758  24.072  0.00  0.00    +0.000 A 
ATOM      3  N   UNL     1      -0.269  16.422  23.236  0.00  0.00    +0.000 NA
ATOM      4  N   UNL     1       0.546  15.480  22.694  0.00  0.00    +0.000 NA
ATOM      5  C   UNL     1      -0.092  14.327  22.777  0.00  0.00    +0.000 A 
ATOM      6  N   UNL     1      -1.308  14.492  23.487  0.00  0.00    +0.000 N 
ATOM      7  C   UNL     1      -2.579  14.093  22.841  0.00  0.00    +0.000 A 
ATOM      8  C   UNL     1      -3.252  12.903  23.177  0.00  0.00    +0.000 A 
ATOM      9  C   UNL     1      -4.308  12.388  22.341  0.00  0.00    +0.000 A 
ATOM     10  C   UNL     1      -4.806  13.085  21.225  0.00  0.00    +0.000 A 
ATOM     11  C   UNL     1      -4.101  14.236  20.900  0.00  0.00    +0.000 A 
ATOM     12  C   UNL     1      -2.889  14.566  21.543  0.00  0.00    +0.000 A 
ATOM     13  C   UNL     1      -1.781  14.904  20.538  0.00  0.00    +0.000 C 
ATOM     14  C   UNL     1      -0.908  13.666  20.605  0.00  0.00    +0.000 A 
ATOM     15  C   UNL     1      -0.899  12.444  19.887  0.00  0.00    +0.000 A 
ATOM     16  C   UNL     1       0.098  11.663  20.449  0.00  0.00    +0.000 A 
ATOM     17  O   UNL     1       0.597  12.270  21.562  0.00  0.00    +0.000 OA
ATOM     18  C   UNL     1      -0.056  13.447  21.673  0.00  0.00    +0.000 A 
ENDROOT
BRANCH  10  19
ATOM     19  N   UNL     1      -5.848  12.675  20.422  0.00  0.00    +0.000 N 
ATOM     20  C   UNL     1      -6.018  13.012  19.000  0.00  0.00    +0.000 C 
ATOM     21  C   UNL     1      -6.322  11.716  18.204  0.00  0.00    +0.000 C 
ATOM     22  N   UNL     1      -7.466  10.934  18.729  0.00  0.00    +0.000 NA
ATOM     23  C   UNL     1      -7.314  10.720  20.183  0.00  0.00    +0.000 C 
ATOM     24  C   UNL     1      -7.059  12.025  20.973  0.00  0.00    +0.000 C 
ATOM     25  H   UNL     1      -7.484  10.026  18.266  0.00  0.00    +0.000 HD
ENDBRANCH  10  19
BRANCH  16  26
ATOM     26  C   UNL     1       0.691  10.373  20.129  0.00  0.00    +0.000 A 
ATOM     27  C   UNL     1       1.179  10.121  18.834  0.00  0.00    +0.000 A 
ATOM     28  C   UNL     1       1.798   8.909  18.540  0.00  0.00    +0.000 A 
ATOM     29  C   UNL     1       1.959   7.956  19.533  0.00  0.00    +0.000 A 
ATOM     30 CL   UNL     1       2.764   6.470  19.160  0.00  0.00    +0.000 Cl
ATOM     31  C   UNL     1       1.473   8.173  20.813  0.00  0.00    +0.000 A 
ATOM     32  C   UNL     1       0.844   9.382  21.111  0.00  0.00    +0.000 A 
ENDBRANCH  16  26
TORSDOF 2
ENDMDL
MODEL 2
REMARK VINA RESULT:      -7.2      2.552      3.877
REMARK  Name = 
REMARK  3 active torsions:
REMARK  status: ('A' for Active; 'I' for Inactive)
REMARK    1  A    between atoms: C_1  and  C_2
REMARK    2  A    between atoms: C_10  and  N_11
REMARK    3  A    between atoms: C_22  and  C_23
REMARK                            x       y       z     vdW  Elec       q    Type
REMARK                         _______ _______ _______ _____ _____    ______ ____
ROOT
ATOM      1  C   UNL     1       3.939  17.352  19.936  0.00  0.00    +0.000 C 
ATOM      2  C   UNL     1       2.720  16.630  19.461  0.00  0.00    +0.000 A 
ATOM      3  N   UNL     1       2.553  16.588  18.152  0.00  0.00    +0.000 NA
ATOM      4  N   UNL     1       2.787  15.293  17.814  0.00  0.00    +0.000 NA
ATOM      5  C   UNL     1       2.536  14.564  18.886  0.00  0.00    +0.000 A 
ATOM      6  N   UNL     1       2.235  15.405  19.987  0.00  0.00    +0.000 N 
ATOM      7  C   UNL     1       0.948  15.225  20.700  0.00  0.00    +0.000 A 
ATOM      8  C   UNL     1       0.865  14.582  21.949  0.00  0.00    +0.000 A 
ATOM      9  C   UNL     1      -0.407  14.154  22.478  0.00  0.00    +0.000 A 
ATOM     10  C   UNL     1      -1.631  14.450  21.852  0.00  0.00    +0.000 A 
ATOM     11  C   UNL     1      -1.514  15.055  20.608  0.00  0.00    +0.000 A 
ATOM     12  C   UNL     1      -0.264  15.194  19.970  0.00  0.00    +0.000 A 
ATOM     13  C   UNL     1      -0.301  14.694  18.520  0.00  0.00    +0.000 C 
ATOM     14  C   UNL     1       0.450  13.381  18.621  0.00  0.00    +0.000 A 
ATOM     15  C   UNL     1       0.044  12.046  18.873  0.00  0.00    +0.000 A 
ATOM     16  C   UNL     1       1.199  11.283  18.915  0.00  0.00    +0.000 A 
ATOM     17  O   UNL     1       2.296  12.090  18.856  0.00  0.00    +0.000 OA
ATOM     18  C   UNL     1       1.828  13.351  18.735  0.00  0.00    +0.000 A 
ENDROOT
BRANCH  10  19
ATOM     19  N   UNL     1      -2.880  14.120  22.334  0.00  0.00    +0.000 N 
ATOM     20  C   UNL     1      -4.129  14.130  21.556  0.00  0.00    +0.000 C 
ATOM     21  C   UNL     1      -4.878  12.791  21.785  0.00  0.00    +0.000 C 
ATOM     22  N   UNL     1      -5.115  12.461  23.209  0.00  0.00    +0.000 NA
ATOM     23  C   UNL     1      -3.858  12.579  23.977  0.00  0.00    +0.000 C 
ATOM     24  C   UNL     1      -3.143  13.936  23.780  0.00  0.00    +0.000 C 
ATOM     25  H   UNL     1      -5.447  11.499  23.274  0.00  0.00    +0.000 HD
ENDBRANCH  10  19
BRANCH  16  26
ATOM     26  C   UNL     1       1.484   9.860  19.024  0.00  0.00    +0.000 A 
ATOM     27  C   UNL     1       2.037   9.164  17.934  0.00  0.00    +0.000 A 
ATOM     28  C   UNL     1       2.363   7.815  18.054  0.00  0.00    +0.000 A 
ATOM     29  C   UNL     1       2.167   7.161  19.259  0.00  0.00    +0.000 A 
ATOM     30 CL   UNL     1       2.612   5.494  19.402  0.00  0.00    +0.000 Cl
ATOM     31  C   UNL     1       1.609   7.819  20.344  0.00  0.00    +0.000 A 
ATOM     32  C   UNL     1       1.272   9.168  20.226  0.00  0.00    +0.000 A 
ENDBRANCH  16  26
TORSDOF 2
ENDMDL
MODEL 3
REMARK VINA RESULT:      -7.1      2.358      3.652
REMARK  Name = 
REMARK  3 active torsions:
REMARK  status: ('A' for Active; 'I' for Inactive)
REMARK    1  A    between atoms: C_1  and  C_2
REMARK    2  A    between atoms: C_10  and  N_11
REMARK    3  A    between atoms: C_22  and  C_23
REMARK                            x       y       z     vdW  Elec       q    Type
REMARK                         _______ _______ _______ _____ _____    ______ ____
ROOT
ATOM      1  C   UNL     1       3.152  16.933  20.230  0.00  0.00    +0.000 C 
ATOM      2  C   UNL     1       2.034  16.099  19.693  0.00  0.00    +0.000 A 
ATOM      3  N   UNL     1       1.898  16.101  18.380  0.00  0.00    +0.000 NA
ATOM      4  N   UNL     1       2.288  14.861  17.988  0.00  0.00    +0.000 NA
ATOM      5  C   UNL     1       2.104  14.056  19.019  0.00  0.00    +0.000 A 
ATOM      6  N   UNL     1       1.687  14.801  20.150  0.00  0.00    +0.000 N 
ATOM      7  C   UNL     1       0.417  14.439  20.822  0.00  0.00    +0.000 A 
ATOM      8  C   UNL     1       0.387  13.730  22.038  0.00  0.00    +0.000 A 
ATOM      9  C   UNL     1      -0.835  13.131  22.515  0.00  0.00    +0.000 A 
ATOM     10  C   UNL     1      -2.075  13.314  21.875  0.00  0.00    +0.000 A 
ATOM     11  C   UNL     1      -2.006  13.988  20.663  0.00  0.00    +0.000 A 
ATOM     12  C   UNL     1      -0.769  14.302  20.062  0.00  0.00    +0.000 A 
ATOM     13  C   UNL     1      -0.721  13.873  18.590  0.00  0.00    +0.000 C 
ATOM     14  C   UNL     1       0.177  12.653  18.648  0.00  0.00    +0.000 A 
ATOM     15  C   UNL     1      -0.075  11.269  18.828  0.00  0.00    +0.000 A 
ATOM     16  C   UNL     1       1.161  10.644  18.863  0.00  0.00    +0.000 A 
ATOM     17  O   UNL     1       2.157  11.575  18.868  0.00  0.00    +0.000 OA
ATOM     18  C   UNL     1       1.547  12.777  18.795  0.00  0.00    +0.000 A 
ENDROOT
BRANCH  10  19
ATOM     19  N   UNL     1      -3.285  12.817  22.311  0.00  0.00    +0.000 N 
ATOM     20  C   UNL     1      -3.541  12.221  23.631  0.00  0.00    +0.000 C 
ATOM     21  C   UNL     1      -4.815  12.863  24.238  0.00  0.00    +0.000 C 
ATOM     22  N   UNL     1      -6.007  12.799  23.361  0.00  0.00    +0.000 NA
ATOM     23  C   UNL     1      -5.674  13.298  22.010  0.00  0.00    +0.000 C 
ATOM     24  C   UNL     1      -4.430  12.616  21.393  0.00  0.00    +0.000 C 
ATOM     25  H   UNL     1      -6.739  13.390  23.754  0.00  0.00    +0.000 HD
ENDBRANCH  10  19
BRANCH  16  26
ATOM     26  C   UNL     1       1.608   9.260  18.912  0.00  0.00    +0.000 A 
ATOM     27  C   UNL     1       2.229   8.677  17.792  0.00  0.00    +0.000 A 
ATOM     28  C   UNL     1       2.708   7.371  17.856  0.00  0.00    +0.000 A 
ATOM     29  C   UNL     1       2.599   6.651  19.033  0.00  0.00    +0.000 A 
ATOM     30 CL   UNL     1       3.234   5.042  19.106  0.00  0.00    +0.000 Cl
ATOM     31  C   UNL     1       1.978   7.196  20.147  0.00  0.00    +0.000 A 
ATOM     32  C   UNL     1       1.488   8.500  20.086  0.00  0.00    +0.000 A 
ENDBRANCH  16  26
TORSDOF 2
ENDMDL
MODEL 4
REMARK VINA RESULT:      -6.9      2.596      3.884
REMARK  Name = 
REMARK  3 active torsions:
REMARK  status: ('A' for Active; 'I' for Inactive)
REMARK    1  A    between atoms: C_1  and  C_2
REMARK    2  A    between atoms: C_10  and  N_11
REMARK    3  A    between atoms: C_22  and  C_23
REMARK                            x       y       z     vdW  Elec       q    Type
REMARK                         _______ _______ _______ _____ _____    ______ ____
ROOT
ATOM      1  C   UNL     1       3.312  17.608  20.340  0.00  0.00    +0.000 C 
ATOM      2  C   UNL     1       2.157  16.808  19.828  0.00  0.00    +0.000 A 
ATOM      3  N   UNL     1       1.987  16.822  18.519  0.00  0.00    +0.000 NA
ATOM      4  N   UNL     1       2.331  15.573  18.111  0.00  0.00    +0.000 NA
ATOM      5  C   UNL     1       2.151  14.768  19.143  0.00  0.00    +0.000 A 
ATOM      6  N   UNL     1       1.784  15.518  20.288  0.00  0.00    +0.000 N 
ATOM      7  C   UNL     1       0.523  15.189  20.992  0.00  0.00    +0.000 A 
ATOM      8  C   UNL     1       0.503  14.475  22.204  0.00  0.00    +0.000 A 
ATOM      9  C   UNL     1      -0.723  13.908  22.711  0.00  0.00    +0.000 A 
ATOM     10  C   UNL     1      -1.972  14.130  22.103  0.00  0.00    +0.000 A 
ATOM     11  C   UNL     1      -1.916  14.808  20.894  0.00  0.00    +0.000 A 
ATOM     12  C   UNL     1      -0.686  15.090  20.262  0.00  0.00    +0.000 A 
ATOM     13  C   UNL     1      -0.689  14.668  18.787  0.00  0.00    +0.000 C 
ATOM     14  C   UNL     1       0.175  13.422  18.816  0.00  0.00    +0.000 A 
ATOM     15  C   UNL     1      -0.112  12.045  18.996  0.00  0.00    +0.000 A 
ATOM     16  C   UNL     1       1.107  11.385  18.996  0.00  0.00    +0.000 A 
ATOM     17  O   UNL     1       2.128  12.287  18.979  0.00  0.00    +0.000 OA
ATOM     18  C   UNL     1       1.551  13.507  18.927  0.00  0.00    +0.000 A 
ENDROOT
BRANCH  10  19
ATOM     19  N   UNL     1      -3.185  13.666  22.568  0.00  0.00    +0.000 N 
ATOM     20  C   UNL     1      -3.408  12.376  23.240  0.00  0.00    +0.000 C 
ATOM     21  C   UNL     1      -4.231  12.614  24.533  0.00  0.00    +0.000 C 
ATOM     22  N   UNL     1      -5.496  13.356  24.322  0.00  0.00    +0.000 NA
ATOM     23  C   UNL     1      -5.243  14.585  23.541  0.00  0.00    +0.000 C 
ATOM     24  C   UNL     1      -4.464  14.330  22.230  0.00  0.00    +0.000 C 
ATOM     25  H   UNL     1      -5.879  13.619  25.229  0.00  0.00    +0.000 HD
ENDBRANCH  10  19
BRANCH  16  26
ATOM     26  C   UNL     1       1.515   9.989  19.027  0.00  0.00    +0.000 A 
ATOM     27  C   UNL     1       1.338   9.227  20.197  0.00  0.00    +0.000 A 
ATOM     28  C   UNL     1       1.676   7.876  20.212  0.00  0.00    +0.000 A 
ATOM     29  C   UNL     1       2.161   7.271  19.064  0.00  0.00    +0.000 A 
ATOM     30 CL   UNL     1       2.541   5.582  19.090  0.00  0.00    +0.000 Cl
ATOM     31  C   UNL     1       2.359   8.003  17.903  0.00  0.00    +0.000 A 
ATOM     32  C   UNL     1       2.032   9.358  17.885  0.00  0.00    +0.000 A 
ENDBRANCH  16  26
TORSDOF 2
ENDMDL
MODEL 5
REMARK VINA RESULT:      -6.9      0.836      1.016
REMARK  Name = 
REMARK  3 active torsions:
REMARK  status: ('A' for Active; 'I' for Inactive)
REMARK    1  A    between atoms: C_1  and  C_2
REMARK    2  A    between atoms: C_10  and  N_11
REMARK    3  A    between atoms: C_22  and  C_23
REMARK                            x       y       z     vdW  Elec       q    Type
REMARK                         _______ _______ _______ _____ _____    ______ ____
ROOT
ATOM      1  C   UNL     1      -1.503  15.742  26.073  0.00  0.00    +0.000 C 
ATOM      2  C   UNL     1      -1.650  15.634  24.590  0.00  0.00    +0.000 A 
ATOM      3  N   UNL     1      -0.817  16.368  23.877  0.00  0.00    +0.000 NA
ATOM      4  N   UNL     1       0.036  15.475  23.311  0.00  0.00    +0.000 NA
ATOM      5  C   UNL     1      -0.605  14.322  23.241  0.00  0.00    +0.000 A 
ATOM      6  N   UNL     1      -1.870  14.429  23.873  0.00  0.00    +0.000 N 
ATOM      7  C   UNL     1      -3.090  14.099  23.101  0.00  0.00    +0.000 A 
ATOM      8  C   UNL     1      -3.785  12.887  23.277  0.00  0.00    +0.000 A 
ATOM      9  C   UNL     1      -4.777  12.457  22.322  0.00  0.00    +0.000 A 
ATOM     10  C   UNL     1      -5.193  13.258  21.242  0.00  0.00    +0.000 A 
ATOM     11  C   UNL     1      -4.467  14.429  21.077  0.00  0.00    +0.000 A 
ATOM     12  C   UNL     1      -3.305  14.691  21.834  0.00  0.00    +0.000 A 
ATOM     13  C   UNL     1      -2.127  15.114  20.948  0.00  0.00    +0.000 C 
ATOM     14  C   UNL     1      -1.260  13.870  20.963  0.00  0.00    +0.000 A 
ATOM     15  C   UNL     1      -1.199  12.719  20.137  0.00  0.00    +0.000 A 
ATOM     16  C   UNL     1      -0.245  11.884  20.696  0.00  0.00    +0.000 A 
ATOM     17  O   UNL     1       0.172  12.383  21.894  0.00  0.00    +0.000 OA
ATOM     18  C   UNL     1      -0.489  13.548  22.065  0.00  0.00    +0.000 A 
ENDROOT
BRANCH  10  19
ATOM     19  N   UNL     1      -6.173  12.930  20.330  0.00  0.00    +0.000 N 
ATOM     20  C   UNL     1      -7.414  13.685  20.097  0.00  0.00    +0.000 C 
ATOM     21  C   UNL     1      -7.590  13.912  18.573  0.00  0.00    +0.000 C 
ATOM     22  N   UNL     1      -7.535  12.673  17.762  0.00  0.00    +0.000 NA
ATOM     23  C   UNL     1      -6.335  11.886  18.114  0.00  0.00    +0.000 C 
ATOM     24  C   UNL     1      -6.194  11.624  19.632  0.00  0.00    +0.000 C 
ATOM     25  H   UNL     1      -7.481  12.926  16.776  0.00  0.00    +0.000 HD
ENDBRANCH  10  19
BRANCH  16  26
ATOM     26  C   UNL     1       0.372  10.625  20.302  0.00  0.00    +0.000 A 
ATOM     27  C   UNL     1       0.822  10.441  18.982  0.00  0.00    +0.000 A 
ATOM     28  C   UNL     1       1.463   9.260  18.617  0.00  0.00    +0.000 A 
ATOM     29  C   UNL     1       1.682   8.272  19.562  0.00  0.00    +0.000 A 
ATOM     30 CL   UNL     1       2.513   6.825  19.100  0.00  0.00    +0.000 Cl
ATOM     31  C   UNL     1       1.235   8.421  20.866  0.00  0.00    +0.000 A 
ATOM     32  C   UNL     1       0.584   9.598  21.235  0.00  0.00    +0.000 A 
ENDBRANCH  16  26
TORSDOF 2
ENDMDL
MODEL 6
REMARK VINA RESULT:      -6.9      3.520      6.495
REMARK  Name = 
REMARK  3 active torsions:
REMARK  status: ('A' for Active; 'I' for Inactive)
REMARK    1  A    between atoms: C_1  and  C_2
REMARK    2  A    between atoms: C_10  and  N_11
REMARK    3  A    between atoms: C_22  and  C_23
REMARK                            x       y       z     vdW  Elec       q    Type
REMARK                         _______ _______ _______ _____ _____    ______ ____
ROOT
ATOM      1  C   UNL     1      -4.169  15.985  24.197  0.00  0.00    +0.000 C 
ATOM      2  C   UNL     1      -3.132  15.004  23.753  0.00  0.00    +0.000 A 
ATOM      3  N   UNL     1      -3.175  13.822  24.337  0.00  0.00    +0.000 NA
ATOM      4  N   UNL     1      -3.611  12.973  23.370  0.00  0.00    +0.000 NA
ATOM      5  C   UNL     1      -3.286  13.512  22.209  0.00  0.00    +0.000 A 
ATOM      6  N   UNL     1      -2.721  14.797  22.410  0.00  0.00    +0.000 N 
ATOM      7  C   UNL     1      -1.371  15.082  21.871  0.00  0.00    +0.000 A 
ATOM      8  C   UNL     1      -1.174  15.847  20.706  0.00  0.00    +0.000 A 
ATOM      9  C   UNL     1       0.104  15.860  20.037  0.00  0.00    +0.000 A 
ATOM     10  C   UNL     1       1.244  15.222  20.558  0.00  0.00    +0.000 A 
ATOM     11  C   UNL     1       1.010  14.450  21.688  0.00  0.00    +0.000 A 
ATOM     12  C   UNL     1      -0.298  14.203  22.155  0.00  0.00    +0.000 A 
ATOM     13  C   UNL     1      -0.544  12.711  22.409  0.00  0.00    +0.000 C 
ATOM     14  C   UNL     1      -1.422  12.332  21.233  0.00  0.00    +0.000 A 
ATOM     15  C   UNL     1      -1.143  11.851  19.928  0.00  0.00    +0.000 A 
ATOM     16  C   UNL     1      -2.361  11.755  19.274  0.00  0.00    +0.000 A 
ATOM     17  O   UNL     1      -3.350  12.290  20.045  0.00  0.00    +0.000 OA
ATOM     18  C   UNL     1      -2.759  12.682  21.194  0.00  0.00    +0.000 A 
ENDROOT
BRANCH  10  19
ATOM     19  N   UNL     1       2.504  15.245  19.998  0.00  0.00    +0.000 N 
ATOM     20  C   UNL     1       2.956  14.418  18.870  0.00  0.00    +0.000 C 
ATOM     21  C   UNL     1       3.656  15.324  17.824  0.00  0.00    +0.000 C 
ATOM     22  N   UNL     1       4.752  16.155  18.375  0.00  0.00    +0.000 NA
ATOM     23  C   UNL     1       4.289  16.878  19.578  0.00  0.00    +0.000 C 
ATOM     24  C   UNL     1       3.636  15.958  20.635  0.00  0.00    +0.000 C 
ATOM     25  H   UNL     1       5.033  16.838  17.672  0.00  0.00    +0.000 HD
ENDBRANCH  10  19
BRANCH  16  26
ATOM     26  C   UNL     1      -2.793  11.242  17.982  0.00  0.00    +0.000 A 
ATOM     27  C   UNL     1      -3.996  11.694  17.409  0.00  0.00    +0.000 A 
ATOM     28  C   UNL     1      -4.383  11.248  16.148  0.00  0.00    +0.000 A 
ATOM     29  C   UNL     1      -3.569  10.377  15.442  0.00  0.00    +0.000 A 
ATOM     30 CL   UNL     1      -4.047   9.862  13.860  0.00  0.00    +0.000 Cl
ATOM     31  C   UNL     1      -2.386   9.905  15.991  0.00  0.00    +0.000 A 
ATOM     32  C   UNL     1      -1.998  10.341  17.258  0.00  0.00    +0.000 A 
ENDBRANCH  16  26
TORSDOF 2
ENDMDL
MODEL 7
REMARK VINA RESULT:      -6.8      2.494      3.779
REMARK  Name = 
REMARK  3 active torsions:
REMARK  status: ('A' for Active; 'I' for Inactive)
REMARK    1  A    between atoms: C_1  and  C_2
REMARK    2  A    between atoms: C_10  and  N_11
REMARK    3  A    between atoms: C_22  and  C_23
REMARK                            x       y       z     vdW  Elec       q    Type
REMARK                         _______ _______ _______ _____ _____    ______ ____
ROOT
ATOM      1  C   UNL     1       3.696  17.835  20.512  0.00  0.00    +0.000 C 
ATOM      2  C   UNL     1       2.531  17.112  19.917  0.00  0.00    +0.000 A 
ATOM      3  N   UNL     1       2.444  17.151  18.601  0.00  0.00    +0.000 NA
ATOM      4  N   UNL     1       2.740  15.889  18.195  0.00  0.00    +0.000 NA
ATOM      5  C   UNL     1       2.448  15.084  19.201  0.00  0.00    +0.000 A 
ATOM      6  N   UNL     1       2.055  15.841  20.333  0.00  0.00    +0.000 N 
ATOM      7  C   UNL     1       0.736  15.578  20.952  0.00  0.00    +0.000 A 
ATOM      8  C   UNL     1       0.599  14.852  22.150  0.00  0.00    +0.000 A 
ATOM      9  C   UNL     1      -0.687  14.353  22.571  0.00  0.00    +0.000 A 
ATOM     10  C   UNL     1      -1.882  14.656  21.891  0.00  0.00    +0.000 A 
ATOM     11  C   UNL     1      -1.710  15.344  20.698  0.00  0.00    +0.000 A 
ATOM     12  C   UNL     1      -0.429  15.560  20.148  0.00  0.00    +0.000 A 
ATOM     13  C   UNL     1      -0.364  15.156  18.670  0.00  0.00    +0.000 C 
ATOM     14  C   UNL     1       0.422  13.862  18.732  0.00  0.00    +0.000 A 
ATOM     15  C   UNL     1       0.044  12.502  18.872  0.00  0.00    +0.000 A 
ATOM     16  C   UNL     1       1.220  11.771  18.937  0.00  0.00    +0.000 A 
ATOM     17  O   UNL     1       2.292  12.611  18.997  0.00  0.00    +0.000 OA
ATOM     18  C   UNL     1       1.791  13.863  18.929  0.00  0.00    +0.000 A 
ENDROOT
BRANCH  10  19
ATOM     19  N   UNL     1      -3.146  14.259  22.273  0.00  0.00    +0.000 N 
ATOM     20  C   UNL     1      -4.291  14.063  21.372  0.00  0.00    +0.000 C 
ATOM     21  C   UNL     1      -4.946  12.691  21.675  0.00  0.00    +0.000 C 
ATOM     22  N   UNL     1      -5.319  12.494  23.095  0.00  0.00    +0.000 NA
ATOM     23  C   UNL     1      -4.174  12.816  23.973  0.00  0.00    +0.000 C 
ATOM     24  C   UNL     1      -3.559  14.207  23.695  0.00  0.00    +0.000 C 
ATOM     25  H   UNL     1      -5.573  11.517  23.237  0.00  0.00    +0.000 HD
ENDBRANCH  10  19
BRANCH  16  26
ATOM     26  C   UNL     1       1.543  10.352  18.971  0.00  0.00    +0.000 A 
ATOM     27  C   UNL     1       1.263   9.591  20.121  0.00  0.00    +0.000 A 
ATOM     28  C   UNL     1       1.519   8.223  20.137  0.00  0.00    +0.000 A 
ATOM     29  C   UNL     1       2.026   7.601  19.008  0.00  0.00    +0.000 A 
ATOM     30 CL   UNL     1       2.303   5.893  19.032  0.00  0.00    +0.000 Cl
ATOM     31  C   UNL     1       2.325   8.330  17.867  0.00  0.00    +0.000 A 
ATOM     32  C   UNL     1       2.080   9.703  17.849  0.00  0.00    +0.000 A 
ENDBRANCH  16  26
TORSDOF 2
ENDMDL
MODEL 8
REMARK VINA RESULT:      -6.8      3.440      6.449
REMARK  Name = 
REMARK  3 active torsions:
REMARK  status: ('A' for Active; 'I' for Inactive)
REMARK    1  A    between atoms: C_1  and  C_2
REMARK    2  A    between atoms: C_10  and  N_11
REMARK    3  A    between atoms: C_22  and  C_23
REMARK                            x       y       z     vdW  Elec       q    Type
REMARK                         _______ _______ _______ _____ _____    ______ ____
ROOT
ATOM      1  C   UNL     1      -4.797  15.866  24.466  0.00  0.00    +0.000 C 
ATOM      2  C   UNL     1      -3.668  15.000  24.008  0.00  0.00    +0.000 A 
ATOM      3  N   UNL     1      -3.614  13.797  24.547  0.00  0.00    +0.000 NA
ATOM      4  N   UNL     1      -3.954  12.950  23.541  0.00  0.00    +0.000 NA
ATOM      5  C   UNL     1      -3.659  13.561  22.407  0.00  0.00    +0.000 A 
ATOM      6  N   UNL     1      -3.216  14.882  22.667  0.00  0.00    +0.000 N 
ATOM      7  C   UNL     1      -1.888  15.308  22.168  0.00  0.00    +0.000 A 
ATOM      8  C   UNL     1      -1.740  16.132  21.036  0.00  0.00    +0.000 A 
ATOM      9  C   UNL     1      -0.457  16.286  20.395  0.00  0.00    +0.000 A 
ATOM     10  C   UNL     1       0.727  15.733  20.916  0.00  0.00    +0.000 A 
ATOM     11  C   UNL     1       0.543  14.900  22.012  0.00  0.00    +0.000 A 
ATOM     12  C   UNL     1      -0.746  14.519  22.441  0.00  0.00    +0.000 A 
ATOM     13  C   UNL     1      -0.860  13.001  22.635  0.00  0.00    +0.000 C 
ATOM     14  C   UNL     1      -1.679  12.591  21.427  0.00  0.00    +0.000 A 
ATOM     15  C   UNL     1      -1.335  12.188  20.112  0.00  0.00    +0.000 A 
ATOM     16  C   UNL     1      -2.528  12.008  19.430  0.00  0.00    +0.000 A 
ATOM     17  O   UNL     1      -3.574  12.422  20.199  0.00  0.00    +0.000 OA
ATOM     18  C   UNL     1      -3.042  12.821  21.374  0.00  0.00    +0.000 A 
ENDROOT
BRANCH  10  19
ATOM     19  N   UNL     1       1.989  15.890  20.385  0.00  0.00    +0.000 N 
ATOM     20  C   UNL     1       2.424  15.425  19.059  0.00  0.00    +0.000 C 
ATOM     21  C   UNL     1       3.151  16.584  18.328  0.00  0.00    +0.000 C 
ATOM     22  N   UNL     1       4.264  17.186  19.097  0.00  0.00    +0.000 NA
ATOM     23  C   UNL     1       3.815  17.530  20.463  0.00  0.00    +0.000 C 
ATOM     24  C   UNL     1       3.135  16.353  21.200  0.00  0.00    +0.000 C 
ATOM     25  H   UNL     1       4.565  18.040  18.629  0.00  0.00    +0.000 HD
ENDBRANCH  10  19
BRANCH  16  26
ATOM     26  C   UNL     1      -2.888  11.509  18.111  0.00  0.00    +0.000 A 
ATOM     27  C   UNL     1      -2.006  10.668  17.408  0.00  0.00    +0.000 A 
ATOM     28  C   UNL     1      -2.372  10.144  16.171  0.00  0.00    +0.000 A 
ATOM     29  C   UNL     1      -3.620  10.428  15.642  0.00  0.00    +0.000 A 
ATOM     30 CL   UNL     1      -4.074   9.737  14.121  0.00  0.00    +0.000 Cl
ATOM     31  C   UNL     1      -4.502  11.266  16.307  0.00  0.00    +0.000 A 
ATOM     32  C   UNL     1      -4.137  11.802  17.542  0.00  0.00    +0.000 A 
ENDBRANCH  16  26
TORSDOF 2
ENDMDL
MODEL 9
REMARK VINA RESULT:      -6.7      3.408      6.350
REMARK  Name = 
REMARK  3 active torsions:
REMARK  status: ('A' for Active; 'I' for Inactive)
REMARK    1  A    between atoms: C_1  and  C_2
REMARK    2  A    between atoms: C_10  and  N_11
REMARK    3  A    between atoms: C_22  and  C_23
REMARK                            x       y       z     vdW  Elec       q    Type
REMARK                         _______ _______ _______ _____ _____    ______ ____
ROOT
ATOM      1  C   UNL     1      -5.370  15.655  24.208  0.00  0.00    +0.000 C 
ATOM      2  C   UNL     1      -4.215  14.786  23.827  0.00  0.00    +0.000 A 
ATOM      3  N   UNL     1      -4.220  13.570  24.341  0.00  0.00    +0.000 NA
ATOM      4  N   UNL     1      -4.483  12.750  23.290  0.00  0.00    +0.000 NA
ATOM      5  C   UNL     1      -4.086  13.382  22.200  0.00  0.00    +0.000 A 
ATOM      6  N   UNL     1      -3.653  14.692  22.527  0.00  0.00    +0.000 N 
ATOM      7  C   UNL     1      -2.283  15.112  22.152  0.00  0.00    +0.000 A 
ATOM      8  C   UNL     1      -2.031  15.959  21.056  0.00  0.00    +0.000 A 
ATOM      9  C   UNL     1      -0.697  16.111  20.530  0.00  0.00    +0.000 A 
ATOM     10  C   UNL     1       0.433  15.532  21.137  0.00  0.00    +0.000 A 
ATOM     11  C   UNL     1       0.148  14.677  22.193  0.00  0.00    +0.000 A 
ATOM     12  C   UNL     1      -1.176  14.303  22.503  0.00  0.00    +0.000 A 
ATOM     13  C   UNL     1      -1.322  12.783  22.651  0.00  0.00    +0.000 C 
ATOM     14  C   UNL     1      -2.040  12.410  21.369  0.00  0.00    +0.000 A 
ATOM     15  C   UNL     1      -1.590  12.031  20.079  0.00  0.00    +0.000 A 
ATOM     16  C   UNL     1      -2.723  11.882  19.294  0.00  0.00    +0.000 A 
ATOM     17  O   UNL     1      -3.826  12.292  19.981  0.00  0.00    +0.000 OA
ATOM     18  C   UNL     1      -3.391  12.657  21.206  0.00  0.00    +0.000 A 
ENDROOT
BRANCH  10  19
ATOM     19  N   UNL     1       1.737  15.685  20.717  0.00  0.00    +0.000 N 
ATOM     20  C   UNL     1       2.908  15.007  21.294  0.00  0.00    +0.000 C 
ATOM     21  C   UNL     1       3.753  14.392  20.149  0.00  0.00    +0.000 C 
ATOM     22  N   UNL     1       4.136  15.355  19.089  0.00  0.00    +0.000 NA
ATOM     23  C   UNL     1       2.948  16.098  18.621  0.00  0.00    +0.000 C 
ATOM     24  C   UNL     1       2.139  16.749  19.768  0.00  0.00    +0.000 C 
ATOM     25  H   UNL     1       4.529  14.840  18.302  0.00  0.00    +0.000 HD
ENDBRANCH  10  19
BRANCH  16  26
ATOM     26  C   UNL     1      -2.975  11.417  17.938  0.00  0.00    +0.000 A 
ATOM     27  C   UNL     1      -2.051  10.572  17.297  0.00  0.00    +0.000 A 
ATOM     28  C   UNL     1      -2.317  10.080  16.022  0.00  0.00    +0.000 A 
ATOM     29  C   UNL     1      -3.508  10.400  15.391  0.00  0.00    +0.000 A 
ATOM     30 CL   UNL     1      -3.838   9.750  13.822  0.00  0.00    +0.000 Cl
ATOM     31  C   UNL     1      -4.429  11.243  15.995  0.00  0.00    +0.000 A 
ATOM     32  C   UNL     1      -4.163  11.746  17.268  0.00  0.00    +0.000 A 
ENDBRANCH  16  26
TORSDOF 2
ENDMDL
