MODEL 1
REMARK VINA RESULT:      -5.9      0.000      0.000
REMARK  Name = 
REMARK  6 active torsions:
REMARK  status: ('A' for Active; 'I' for Inactive)
REMARK    1  A    between atoms: C_1  and  C_2
REMARK    2  A    between atoms: N_4  and  C_5
REMARK    3  A    between atoms: C_7  and  C_8
REMARK    4  A    between atoms: C_9  and  C_10
REMARK    5  A    between atoms: C_12  and  N_13
REMARK    6  A    between atoms: N_14  and  C_15
REMARK                            x       y       z     vdW  Elec       q    Type
REMARK                         _______ _______ _______ _____ _____    ______ ____
ROOT
ATOM      1  C   UNL     1      -1.336  11.068  19.350  0.00  0.00    +0.000 C 
ATOM      2  C   UNL     1      -1.805  11.844  20.565  0.00  0.00    +0.000 C 
ATOM      3  C   UNL     1      -3.070  12.344  20.675  0.00  0.00    +0.000 C 
ATOM      4  N   UNL     1      -3.993  12.242  19.565  0.00  0.00    +0.000 N 
ATOM      5  C   UNL     1      -3.579  11.600  18.348  0.00  0.00    +0.000 C 
ATOM      6  C   UNL     1      -2.374  10.992  18.251  0.00  0.00    +0.000 C 
ATOM      7  C   UNL     1      -2.031  10.144  17.061  0.00  0.00    +0.000 C 
ATOM      8  O   UNL     1      -1.083   9.361  17.097  0.00  0.00    +0.000 OA
ATOM      9  C   UNL     1      -2.942  10.154  15.860  0.00  0.00    +0.000 C 
ATOM     10  C   UNL     1      -3.735  11.438  15.792  0.00  0.00    +0.000 C 
ATOM     11  C   UNL     1      -4.474  11.650  17.108  0.00  0.00    +0.000 C 
ENDROOT
BRANCH   1  18
ATOM     12  C   UNL     1       1.573   9.440  18.985  0.00  0.00    +0.000 C 
ATOM     13  C   UNL     1       1.248  10.858  18.689  0.00  0.00    +0.000 A 
ATOM     14  N   UNL     1       2.232  11.698  18.334  0.00  0.00    +0.000 NA
ATOM     15  N   UNL     1       1.633  12.893  18.253  0.00  0.00    +0.000 N 
ATOM     16  C   UNL     1       2.421  14.098  18.171  0.00  0.00    +0.000 C 
ATOM     17  C   UNL     1       0.285  12.831  18.418  0.00  0.00    +0.000 A 
ATOM     18  C   UNL     1      -0.006  11.533  18.802  0.00  0.00    +0.000 A 
ENDBRANCH   1  18
BRANCH   4  19
ATOM     19  C   UNL     1      -5.343  12.752  19.712  0.00  0.00    +0.000 A 
ATOM     20  C   UNL     1      -6.423  11.942  20.101  0.00  0.00    +0.000 A 
ATOM     21  C   UNL     1      -7.723  12.447  20.180  0.00  0.00    +0.000 A 
ATOM     22  C   UNL     1      -7.916  13.795  19.953  0.00  0.00    +0.000 A 
ATOM     23  N   UNL     1      -6.917  14.637  19.629  0.00  0.00    +0.000 NA
ATOM     24  C   UNL     1      -5.675  14.095  19.494  0.00  0.00    +0.000 A 
ENDBRANCH   4  19
BRANCH   3  25
ATOM     25  N   UNL     1      -3.469  12.900  21.890  0.00  0.00    +0.000 N 
ATOM     26  H   UNL     1      -4.041  12.315  22.497  0.00  0.00    +0.000 HD
ATOM     27  H   UNL     1      -3.911  13.811  21.769  0.00  0.00    +0.000 HD
ENDBRANCH   3  25
BRANCH   2  28
ATOM     28  C   UNL     1      -0.842  11.902  21.740  0.00  0.00    +0.000 C 
ATOM     29  N   UNL     1      -0.043  11.950  22.713  0.00  0.00    +0.000 NA
ENDBRANCH   2  28
TORSDOF 4
ENDMDL
MODEL 2
REMARK VINA RESULT:      -5.9      3.418      6.946
REMARK  Name = 
REMARK  6 active torsions:
REMARK  status: ('A' for Active; 'I' for Inactive)
REMARK    1  A    between atoms: C_1  and  C_2
REMARK    2  A    between atoms: N_4  and  C_5
REMARK    3  A    between atoms: C_7  and  C_8
REMARK    4  A    between atoms: C_9  and  C_10
REMARK    5  A    between atoms: C_12  and  N_13
REMARK    6  A    between atoms: N_14  and  C_15
REMARK                            x       y       z     vdW  Elec       q    Type
REMARK                         _______ _______ _______ _____ _____    ______ ____
ROOT
ATOM      1  C   UNL     1      -4.904  12.424  20.727  0.00  0.00    +0.000 C 
ATOM      2  C   UNL     1      -3.488  12.767  20.310  0.00  0.00    +0.000 C 
ATOM      3  C   UNL     1      -2.676  13.570  21.056  0.00  0.00    +0.000 C 
ATOM      4  N   UNL     1      -3.187  14.222  22.242  0.00  0.00    +0.000 N 
ATOM      5  C   UNL     1      -4.550  14.013  22.642  0.00  0.00    +0.000 C 
ATOM      6  C   UNL     1      -5.344  13.132  21.991  0.00  0.00    +0.000 C 
ATOM      7  C   UNL     1      -6.692  12.758  22.536  0.00  0.00    +0.000 C 
ATOM      8  O   UNL     1      -7.283  11.759  22.127  0.00  0.00    +0.000 OA
ATOM      9  C   UNL     1      -7.263  13.538  23.692  0.00  0.00    +0.000 C 
ATOM     10  C   UNL     1      -6.675  14.929  23.750  0.00  0.00    +0.000 C 
ATOM     11  C   UNL     1      -5.155  14.838  23.780  0.00  0.00    +0.000 C 
ENDROOT
BRANCH   1  18
ATOM     12  C   UNL     1      -6.689  10.161  19.013  0.00  0.00    +0.000 C 
ATOM     13  C   UNL     1      -6.655  11.637  18.863  0.00  0.00    +0.000 A 
ATOM     14  N   UNL     1      -7.312  12.211  17.843  0.00  0.00    +0.000 NA
ATOM     15  N   UNL     1      -6.989  13.508  17.929  0.00  0.00    +0.000 N 
ATOM     16  C   UNL     1      -7.278  14.404  16.837  0.00  0.00    +0.000 C 
ATOM     17  C   UNL     1      -6.256  13.807  19.034  0.00  0.00    +0.000 A 
ATOM     18  C   UNL     1      -5.928  12.600  19.629  0.00  0.00    +0.000 A 
ENDBRANCH   1  18
BRANCH   4  19
ATOM     19  C   UNL     1      -2.299  15.048  23.039  0.00  0.00    +0.000 A 
ATOM     20  C   UNL     1      -2.143  16.427  22.821  0.00  0.00    +0.000 A 
ATOM     21  C   UNL     1      -1.238  17.187  23.567  0.00  0.00    +0.000 A 
ATOM     22  C   UNL     1      -0.557  16.569  24.595  0.00  0.00    +0.000 A 
ATOM     23  N   UNL     1      -0.699  15.263  24.892  0.00  0.00    +0.000 NA
ATOM     24  C   UNL     1      -1.537  14.540  24.100  0.00  0.00    +0.000 A 
ENDBRANCH   4  19
BRANCH   3  25
ATOM     25  N   UNL     1      -1.338  13.703  20.685  0.00  0.00    +0.000 N 
ATOM     26  H   UNL     1      -1.094  13.416  19.739  0.00  0.00    +0.000 HD
ATOM     27  H   UNL     1      -0.708  13.263  21.355  0.00  0.00    +0.000 HD
ENDBRANCH   3  25
BRANCH   2  28
ATOM     28  C   UNL     1      -2.952  12.039  19.088  0.00  0.00    +0.000 C 
ATOM     29  N   UNL     1      -2.506  11.435  18.076  0.00  0.00    +0.000 NA
ENDBRANCH   2  28
TORSDOF 4
ENDMDL
MODEL 3
REMARK VINA RESULT:      -5.8      2.891      4.808
REMARK  Name = 
REMARK  6 active torsions:
REMARK  status: ('A' for Active; 'I' for Inactive)
REMARK    1  A    between atoms: C_1  and  C_2
REMARK    2  A    between atoms: N_4  and  C_5
REMARK    3  A    between atoms: C_7  and  C_8
REMARK    4  A    between atoms: C_9  and  C_10
REMARK    5  A    between atoms: C_12  and  N_13
REMARK    6  A    between atoms: N_14  and  C_15
REMARK                            x       y       z     vdW  Elec       q    Type
REMARK                         _______ _______ _______ _____ _____    ______ ____
ROOT
ATOM      1  C   UNL     1      -0.101  11.581  18.632  0.00  0.00    +0.000 C 
ATOM      2  C   UNL     1      -1.594  11.589  18.892  0.00  0.00    +0.000 C 
ATOM      3  C   UNL     1      -2.207  12.557  19.633  0.00  0.00    +0.000 C 
ATOM      4  N   UNL     1      -1.419  13.571  20.300  0.00  0.00    +0.000 N 
ATOM      5  C   UNL     1       0.011  13.565  20.171  0.00  0.00    +0.000 C 
ATOM      6  C   UNL     1       0.637  12.691  19.350  0.00  0.00    +0.000 C 
ATOM      7  C   UNL     1       2.103  12.823  19.054  0.00  0.00    +0.000 C 
ATOM      8  O   UNL     1       2.609  12.235  18.099  0.00  0.00    +0.000 OA
ATOM      9  C   UNL     1       2.933  13.795  19.853  0.00  0.00    +0.000 C 
ATOM     10  C   UNL     1       2.308  14.059  21.203  0.00  0.00    +0.000 C 
ATOM     11  C   UNL     1       0.865  14.512  21.017  0.00  0.00    +0.000 C 
ENDROOT
BRANCH   1  18
ATOM     12  C   UNL     1       0.495   9.944  21.497  0.00  0.00    +0.000 C 
ATOM     13  C   UNL     1       0.858   9.566  20.108  0.00  0.00    +0.000 A 
ATOM     14  N   UNL     1       1.636   8.493  19.900  0.00  0.00    +0.000 NA
ATOM     15  N   UNL     1       1.862   8.499  18.580  0.00  0.00    +0.000 N 
ATOM     16  C   UNL     1       2.889   7.661  18.013  0.00  0.00    +0.000 C 
ATOM     17  C   UNL     1       1.159   9.457  17.919  0.00  0.00    +0.000 A 
ATOM     18  C   UNL     1       0.559  10.245  18.887  0.00  0.00    +0.000 A 
ENDBRANCH   1  18
BRANCH   4  19
ATOM     19  C   UNL     1      -2.091  14.611  21.057  0.00  0.00    +0.000 A 
ATOM     20  C   UNL     1      -2.382  15.875  20.519  0.00  0.00    +0.000 A 
ATOM     21  C   UNL     1      -2.979  16.877  21.289  0.00  0.00    +0.000 A 
ATOM     22  C   UNL     1      -3.364  16.569  22.578  0.00  0.00    +0.000 A 
ATOM     23  N   UNL     1      -3.163  15.361  23.137  0.00  0.00    +0.000 NA
ATOM     24  C   UNL     1      -2.517  14.432  22.380  0.00  0.00    +0.000 A 
ENDBRANCH   4  19
BRANCH   3  25
ATOM     25  N   UNL     1      -3.601  12.582  19.686  0.00  0.00    +0.000 N 
ATOM     26  H   UNL     1      -4.028  13.380  20.153  0.00  0.00    +0.000 HD
ATOM     27  H   UNL     1      -3.986  11.715  20.058  0.00  0.00    +0.000 HD
ENDBRANCH   3  25
BRANCH   2  28
ATOM     28  C   UNL     1      -2.412  10.546  18.147  0.00  0.00    +0.000 C 
ATOM     29  N   UNL     1      -3.090   9.681  17.530  0.00  0.00    +0.000 NA
ENDBRANCH   2  28
TORSDOF 4
ENDMDL
MODEL 4
REMARK VINA RESULT:      -5.8      3.591      6.869
REMARK  Name = 
REMARK  6 active torsions:
REMARK  status: ('A' for Active; 'I' for Inactive)
REMARK    1  A    between atoms: C_1  and  C_2
REMARK    2  A    between atoms: N_4  and  C_5
REMARK    3  A    between atoms: C_7  and  C_8
REMARK    4  A    between atoms: C_9  and  C_10
REMARK    5  A    between atoms: C_12  and  N_13
REMARK    6  A    between atoms: N_14  and  C_15
REMARK                            x       y       z     vdW  Elec       q    Type
REMARK                         _______ _______ _______ _____ _____    ______ ____
ROOT
ATOM      1  C   UNL     1      -5.113  12.452  20.888  0.00  0.00    +0.000 C 
ATOM      2  C   UNL     1      -3.690  12.926  20.668  0.00  0.00    +0.000 C 
ATOM      3  C   UNL     1      -3.051  13.763  21.535  0.00  0.00    +0.000 C 
ATOM      4  N   UNL     1      -3.762  14.326  22.662  0.00  0.00    +0.000 N 
ATOM      5  C   UNL     1      -5.142  13.991  22.875  0.00  0.00    +0.000 C 
ATOM      6  C   UNL     1      -5.768  13.074  22.102  0.00  0.00    +0.000 C 
ATOM      7  C   UNL     1      -7.138  12.571  22.457  0.00  0.00    +0.000 C 
ATOM      8  O   UNL     1      -7.584  11.544  21.948  0.00  0.00    +0.000 OA
ATOM      9  C   UNL     1      -7.916  13.257  23.550  0.00  0.00    +0.000 C 
ATOM     10  C   UNL     1      -7.462  14.688  23.723  0.00  0.00    +0.000 C 
ATOM     11  C   UNL     1      -5.955  14.720  23.948  0.00  0.00    +0.000 C 
ENDROOT
BRANCH   1  18
ATOM     12  C   UNL     1      -6.567  10.119  18.969  0.00  0.00    +0.000 C 
ATOM     13  C   UNL     1      -6.582  11.596  18.822  0.00  0.00    +0.000 A 
ATOM     14  N   UNL     1      -7.133  12.143  17.728  0.00  0.00    +0.000 NA
ATOM     15  N   UNL     1      -6.882  13.453  17.852  0.00  0.00    +0.000 N 
ATOM     16  C   UNL     1      -7.073  14.339  16.731  0.00  0.00    +0.000 C 
ATOM     17  C   UNL     1      -6.305  13.780  19.038  0.00  0.00    +0.000 A 
ATOM     18  C   UNL     1      -5.999  12.587  19.671  0.00  0.00    +0.000 A 
ENDBRANCH   1  18
BRANCH   4  19
ATOM     19  C   UNL     1      -3.057  15.189  23.590  0.00  0.00    +0.000 A 
ATOM     20  C   UNL     1      -2.477  14.714  24.778  0.00  0.00    +0.000 A 
ATOM     21  C   UNL     1      -1.852  15.578  25.682  0.00  0.00    +0.000 A 
ATOM     22  C   UNL     1      -1.735  16.910  25.339  0.00  0.00    +0.000 A 
ATOM     23  N   UNL     1      -2.222  17.421  24.193  0.00  0.00    +0.000 NA
ATOM     24  C   UNL     1      -2.884  16.562  23.369  0.00  0.00    +0.000 A 
ENDBRANCH   4  19
BRANCH   3  25
ATOM     25  N   UNL     1      -1.692  14.018  21.345  0.00  0.00    +0.000 N 
ATOM     26  H   UNL     1      -1.356  14.019  20.384  0.00  0.00    +0.000 HD
ATOM     27  H   UNL     1      -1.104  13.415  21.919  0.00  0.00    +0.000 HD
ENDBRANCH   3  25
BRANCH   2  28
ATOM     28  C   UNL     1      -2.941  12.290  19.507  0.00  0.00    +0.000 C 
ATOM     29  N   UNL     1      -2.322  11.763  18.545  0.00  0.00    +0.000 NA
ENDBRANCH   2  28
TORSDOF 4
ENDMDL
MODEL 5
REMARK VINA RESULT:      -5.8      2.473      7.316
REMARK  Name = 
REMARK  6 active torsions:
REMARK  status: ('A' for Active; 'I' for Inactive)
REMARK    1  A    between atoms: C_1  and  C_2
REMARK    2  A    between atoms: N_4  and  C_5
REMARK    3  A    between atoms: C_7  and  C_8
REMARK    4  A    between atoms: C_9  and  C_10
REMARK    5  A    between atoms: C_12  and  N_13
REMARK    6  A    between atoms: N_14  and  C_15
REMARK                            x       y       z     vdW  Elec       q    Type
REMARK                         _______ _______ _______ _____ _____    ______ ____
ROOT
ATOM      1  C   UNL     1      -4.707  12.438  20.821  0.00  0.00    +0.000 C 
ATOM      2  C   UNL     1      -4.345  12.248  19.361  0.00  0.00    +0.000 C 
ATOM      3  C   UNL     1      -3.054  12.215  18.922  0.00  0.00    +0.000 C 
ATOM      4  N   UNL     1      -1.966  12.474  19.839  0.00  0.00    +0.000 N 
ATOM      5  C   UNL     1      -2.245  12.754  21.219  0.00  0.00    +0.000 C 
ATOM      6  C   UNL     1      -3.504  12.678  21.708  0.00  0.00    +0.000 C 
ATOM      7  C   UNL     1      -3.765  12.761  23.185  0.00  0.00    +0.000 C 
ATOM      8  O   UNL     1      -4.843  12.400  23.656  0.00  0.00    +0.000 OA
ATOM      9  C   UNL     1      -2.646  13.161  24.111  0.00  0.00    +0.000 C 
ATOM     10  C   UNL     1      -1.605  13.978  23.382  0.00  0.00    +0.000 C 
ATOM     11  C   UNL     1      -1.124  13.212  22.155  0.00  0.00    +0.000 C 
ENDROOT
BRANCH   1  18
ATOM     12  C   UNL     1      -7.917  12.139  21.744  0.00  0.00    +0.000 C 
ATOM     13  C   UNL     1      -7.149  13.363  21.405  0.00  0.00    +0.000 A 
ATOM     14  N   UNL     1      -7.789  14.539  21.318  0.00  0.00    +0.000 NA
ATOM     15  N   UNL     1      -6.852  15.395  20.893  0.00  0.00    +0.000 N 
ATOM     16  C   UNL     1      -7.225  16.702  20.410  0.00  0.00    +0.000 C 
ATOM     17  C   UNL     1      -5.611  14.844  20.825  0.00  0.00    +0.000 A 
ATOM     18  C   UNL     1      -5.768  13.488  21.058  0.00  0.00    +0.000 A 
ENDBRANCH   1  18
BRANCH   4  19
ATOM     19  C   UNL     1      -0.598  12.404  19.359  0.00  0.00    +0.000 A 
ATOM     20  C   UNL     1       0.097  13.526  18.878  0.00  0.00    +0.000 A 
ATOM     21  C   UNL     1       1.394  13.420  18.369  0.00  0.00    +0.000 A 
ATOM     22  C   UNL     1       2.022  12.192  18.431  0.00  0.00    +0.000 A 
ATOM     23  N   UNL     1       1.432  11.088  18.928  0.00  0.00    +0.000 NA
ATOM     24  C   UNL     1       0.144  11.215  19.351  0.00  0.00    +0.000 A 
ENDBRANCH   4  19
BRANCH   3  25
ATOM     25  N   UNL     1      -2.805  11.874  17.592  0.00  0.00    +0.000 N 
ATOM     26  H   UNL     1      -1.849  11.986  17.261  0.00  0.00    +0.000 HD
ATOM     27  H   UNL     1      -3.451  12.331  16.950  0.00  0.00    +0.000 HD
ENDBRANCH   3  25
BRANCH   2  28
ATOM     28  C   UNL     1      -5.495  11.931  18.419  0.00  0.00    +0.000 C 
ATOM     29  N   UNL     1      -6.448  11.668  17.637  0.00  0.00    +0.000 NA
ENDBRANCH   2  28
TORSDOF 4
ENDMDL
MODEL 6
REMARK VINA RESULT:      -5.8      9.933     11.962
REMARK  Name = 
REMARK  6 active torsions:
REMARK  status: ('A' for Active; 'I' for Inactive)
REMARK    1  A    between atoms: C_1  and  C_2
REMARK    2  A    between atoms: N_4  and  C_5
REMARK    3  A    between atoms: C_7  and  C_8
REMARK    4  A    between atoms: C_9  and  C_10
REMARK    5  A    between atoms: C_12  and  N_13
REMARK    6  A    between atoms: N_14  and  C_15
REMARK                            x       y       z     vdW  Elec       q    Type
REMARK                         _______ _______ _______ _____ _____    ______ ____
ROOT
ATOM      1  C   UNL     1       9.114  13.813  19.079  0.00  0.00    +0.000 C 
ATOM      2  C   UNL     1       9.704  12.989  20.207  0.00  0.00    +0.000 C 
ATOM      3  C   UNL     1       9.088  12.851  21.416  0.00  0.00    +0.000 C 
ATOM      4  N   UNL     1       7.879  13.590  21.706  0.00  0.00    +0.000 N 
ATOM      5  C   UNL     1       7.318  14.463  20.713  0.00  0.00    +0.000 C 
ATOM      6  C   UNL     1       7.839  14.530  19.466  0.00  0.00    +0.000 C 
ATOM      7  C   UNL     1       7.129  15.275  18.372  0.00  0.00    +0.000 C 
ATOM      8  O   UNL     1       7.428  15.097  17.192  0.00  0.00    +0.000 OA
ATOM      9  C   UNL     1       5.948  16.145  18.717  0.00  0.00    +0.000 C 
ATOM     10  C   UNL     1       6.013  16.601  20.156  0.00  0.00    +0.000 C 
ATOM     11  C   UNL     1       6.152  15.388  21.068  0.00  0.00    +0.000 C 
ENDROOT
BRANCH   1  18
ATOM     12  C   UNL     1      11.224  13.393  16.506  0.00  0.00    +0.000 C 
ATOM     13  C   UNL     1      11.030  14.580  17.375  0.00  0.00    +0.000 A 
ATOM     14  N   UNL     1      11.859  15.628  17.253  0.00  0.00    +0.000 NA
ATOM     15  N   UNL     1      11.491  16.458  18.236  0.00  0.00    +0.000 N 
ATOM     16  C   UNL     1      12.333  17.569  18.605  0.00  0.00    +0.000 C 
ATOM     17  C   UNL     1      10.381  16.043  18.903  0.00  0.00    +0.000 A 
ATOM     18  C   UNL     1      10.096  14.769  18.440  0.00  0.00    +0.000 A 
ENDBRANCH   1  18
BRANCH   4  19
ATOM     19  C   UNL     1       7.221  13.406  22.987  0.00  0.00    +0.000 A 
ATOM     20  C   UNL     1       7.541  14.171  24.121  0.00  0.00    +0.000 A 
ATOM     21  C   UNL     1       6.932  13.934  25.357  0.00  0.00    +0.000 A 
ATOM     22  C   UNL     1       5.933  12.983  25.422  0.00  0.00    +0.000 A 
ATOM     23  N   UNL     1       5.542  12.253  24.361  0.00  0.00    +0.000 NA
ATOM     24  C   UNL     1       6.205  12.463  23.191  0.00  0.00    +0.000 A 
ENDBRANCH   4  19
BRANCH   3  25
ATOM     25  N   UNL     1       9.614  11.946  22.339  0.00  0.00    +0.000 N 
ATOM     26  H   UNL     1       8.959  11.292  22.764  0.00  0.00    +0.000 HD
ATOM     27  H   UNL     1      10.161  12.410  23.062  0.00  0.00    +0.000 HD
ENDBRANCH   3  25
BRANCH   2  28
ATOM     28  C   UNL     1      10.948  12.183  19.871  0.00  0.00    +0.000 C 
ATOM     29  N   UNL     1      11.979  11.514  19.593  0.00  0.00    +0.000 NA
ENDBRANCH   2  28
TORSDOF 4
ENDMDL
MODEL 7
REMARK VINA RESULT:      -5.8      3.021      4.976
REMARK  Name = 
REMARK  6 active torsions:
REMARK  status: ('A' for Active; 'I' for Inactive)
REMARK    1  A    between atoms: C_1  and  C_2
REMARK    2  A    between atoms: N_4  and  C_5
REMARK    3  A    between atoms: C_7  and  C_8
REMARK    4  A    between atoms: C_9  and  C_10
REMARK    5  A    between atoms: C_12  and  N_13
REMARK    6  A    between atoms: N_14  and  C_15
REMARK                            x       y       z     vdW  Elec       q    Type
REMARK                         _______ _______ _______ _____ _____    ______ ____
ROOT
ATOM      1  C   UNL     1      -1.901  13.260  20.537  0.00  0.00    +0.000 C 
ATOM      2  C   UNL     1      -3.216  12.608  20.156  0.00  0.00    +0.000 C 
ATOM      3  C   UNL     1      -4.360  12.786  20.877  0.00  0.00    +0.000 C 
ATOM      4  N   UNL     1      -4.332  13.531  22.117  0.00  0.00    +0.000 N 
ATOM      5  C   UNL     1      -3.098  14.096  22.584  0.00  0.00    +0.000 C 
ATOM      6  C   UNL     1      -1.973  14.038  21.834  0.00  0.00    +0.000 C 
ATOM      7  C   UNL     1      -0.745  14.810  22.223  0.00  0.00    +0.000 C 
ATOM      8  O   UNL     1       0.162  15.002  21.413  0.00  0.00    +0.000 OA
ATOM      9  C   UNL     1      -0.686  15.470  23.576  0.00  0.00    +0.000 C 
ATOM     10  C   UNL     1      -1.606  14.781  24.556  0.00  0.00    +0.000 C 
ATOM     11  C   UNL     1      -3.014  14.722  23.978  0.00  0.00    +0.000 C 
ENDROOT
BRANCH   1  18
ATOM     12  C   UNL     1       0.739  13.028  18.483  0.00  0.00    +0.000 C 
ATOM     13  C   UNL     1       0.377  12.177  19.644  0.00  0.00    +0.000 A 
ATOM     14  N   UNL     1       1.091  11.070  19.899  0.00  0.00    +0.000 NA
ATOM     15  N   UNL     1       0.447  10.487  20.916  0.00  0.00    +0.000 N 
ATOM     16  C   UNL     1       0.753   9.127  21.288  0.00  0.00    +0.000 C 
ATOM     17  C   UNL     1      -0.576  11.236  21.405  0.00  0.00    +0.000 A 
ATOM     18  C   UNL     1      -0.725  12.311  20.544  0.00  0.00    +0.000 A 
ENDBRANCH   1  18
BRANCH   4  19
ATOM     19  C   UNL     1      -5.566  13.734  22.853  0.00  0.00    +0.000 A 
ATOM     20  C   UNL     1      -6.327  14.911  22.749  0.00  0.00    +0.000 A 
ATOM     21  C   UNL     1      -7.481  15.103  23.513  0.00  0.00    +0.000 A 
ATOM     22  C   UNL     1      -7.915  14.067  24.315  0.00  0.00    +0.000 A 
ATOM     23  N   UNL     1      -7.263  12.895  24.421  0.00  0.00    +0.000 NA
ATOM     24  C   UNL     1      -6.105  12.769  23.715  0.00  0.00    +0.000 A 
ENDBRANCH   4  19
BRANCH   3  25
ATOM     25  N   UNL     1      -5.559  12.285  20.369  0.00  0.00    +0.000 N 
ATOM     26  H   UNL     1      -5.622  11.275  20.253  0.00  0.00    +0.000 HD
ATOM     27  H   UNL     1      -5.835  12.752  19.506  0.00  0.00    +0.000 HD
ENDBRANCH   3  25
BRANCH   2  28
ATOM     28  C   UNL     1      -3.240  11.869  18.829  0.00  0.00    +0.000 C 
ATOM     29  N   UNL     1      -3.261  11.256  17.728  0.00  0.00    +0.000 NA
ENDBRANCH   2  28
TORSDOF 4
ENDMDL
MODEL 8
REMARK VINA RESULT:      -5.7      2.358      7.159
REMARK  Name = 
REMARK  6 active torsions:
REMARK  status: ('A' for Active; 'I' for Inactive)
REMARK    1  A    between atoms: C_1  and  C_2
REMARK    2  A    between atoms: N_4  and  C_5
REMARK    3  A    between atoms: C_7  and  C_8
REMARK    4  A    between atoms: C_9  and  C_10
REMARK    5  A    between atoms: C_12  and  N_13
REMARK    6  A    between atoms: N_14  and  C_15
REMARK                            x       y       z     vdW  Elec       q    Type
REMARK                         _______ _______ _______ _____ _____    ______ ____
ROOT
ATOM      1  C   UNL     1      -4.361  12.416  20.609  0.00  0.00    +0.000 C 
ATOM      2  C   UNL     1      -4.029  12.236  19.141  0.00  0.00    +0.000 C 
ATOM      3  C   UNL     1      -2.747  12.152  18.682  0.00  0.00    +0.000 C 
ATOM      4  N   UNL     1      -1.635  12.344  19.587  0.00  0.00    +0.000 N 
ATOM      5  C   UNL     1      -1.882  12.612  20.976  0.00  0.00    +0.000 C 
ATOM      6  C   UNL     1      -3.136  12.585  21.483  0.00  0.00    +0.000 C 
ATOM      7  C   UNL     1      -3.372  12.653  22.965  0.00  0.00    +0.000 C 
ATOM      8  O   UNL     1      -4.459  12.333  23.445  0.00  0.00    +0.000 OA
ATOM      9  C   UNL     1      -2.223  12.984  23.881  0.00  0.00    +0.000 C 
ATOM     10  C   UNL     1      -1.155  13.766  23.150  0.00  0.00    +0.000 C 
ATOM     11  C   UNL     1      -0.728  13.001  21.904  0.00  0.00    +0.000 C 
ENDROOT
BRANCH   1  18
ATOM     12  C   UNL     1      -7.592  12.246  21.489  0.00  0.00    +0.000 C 
ATOM     13  C   UNL     1      -6.758  13.441  21.209  0.00  0.00    +0.000 A 
ATOM     14  N   UNL     1      -7.336  14.652  21.165  0.00  0.00    +0.000 NA
ATOM     15  N   UNL     1      -6.351  15.475  20.786  0.00  0.00    +0.000 N 
ATOM     16  C   UNL     1      -6.651  16.818  20.355  0.00  0.00    +0.000 C 
ATOM     17  C   UNL     1      -5.140  14.864  20.707  0.00  0.00    +0.000 A 
ATOM     18  C   UNL     1      -5.369  13.509  20.881  0.00  0.00    +0.000 A 
ENDBRANCH   1  18
BRANCH   4  19
ATOM     19  C   UNL     1      -0.279  12.220  19.086  0.00  0.00    +0.000 A 
ATOM     20  C   UNL     1       0.386  10.986  18.991  0.00  0.00    +0.000 A 
ATOM     21  C   UNL     1       1.712  10.902  18.558  0.00  0.00    +0.000 A 
ATOM     22  C   UNL     1       2.335  12.058  18.134  0.00  0.00    +0.000 A 
ATOM     23  N   UNL     1       1.738  13.265  18.148  0.00  0.00    +0.000 NA
ATOM     24  C   UNL     1       0.470  13.318  18.642  0.00  0.00    +0.000 A 
ENDBRANCH   4  19
BRANCH   3  25
ATOM     25  N   UNL     1      -2.533  11.823  17.343  0.00  0.00    +0.000 N 
ATOM     26  H   UNL     1      -1.628  11.420  17.109  0.00  0.00    +0.000 HD
ATOM     27  H   UNL     1      -2.739  12.602  16.719  0.00  0.00    +0.000 HD
ENDBRANCH   3  25
BRANCH   2  28
ATOM     28  C   UNL     1      -5.206  11.989  18.211  0.00  0.00    +0.000 C 
ATOM     29  N   UNL     1      -6.181  11.784  17.440  0.00  0.00    +0.000 NA
ENDBRANCH   2  28
TORSDOF 4
ENDMDL
MODEL 9
REMARK VINA RESULT:      -5.7      2.643      7.318
REMARK  Name = 
REMARK  6 active torsions:
REMARK  status: ('A' for Active; 'I' for Inactive)
REMARK    1  A    between atoms: C_1  and  C_2
REMARK    2  A    between atoms: N_4  and  C_5
REMARK    3  A    between atoms: C_7  and  C_8
REMARK    4  A    between atoms: C_9  and  C_10
REMARK    5  A    between atoms: C_12  and  N_13
REMARK    6  A    between atoms: N_14  and  C_15
REMARK                            x       y       z     vdW  Elec       q    Type
REMARK                         _______ _______ _______ _____ _____    ______ ____
ROOT
ATOM      1  C   UNL     1      -4.405  12.405  20.650  0.00  0.00    +0.000 C 
ATOM      2  C   UNL     1      -3.559  12.316  19.395  0.00  0.00    +0.000 C 
ATOM      3  C   UNL     1      -2.233  12.635  19.378  0.00  0.00    +0.000 C 
ATOM      4  N   UNL     1      -1.601  13.185  20.557  0.00  0.00    +0.000 N 
ATOM      5  C   UNL     1      -2.369  13.383  21.754  0.00  0.00    +0.000 C 
ATOM      6  C   UNL     1      -3.654  12.967  21.838  0.00  0.00    +0.000 C 
ATOM      7  C   UNL     1      -4.386  12.981  23.150  0.00  0.00    +0.000 C 
ATOM      8  O   UNL     1      -5.426  12.341  23.298  0.00  0.00    +0.000 OA
ATOM      9  C   UNL     1      -3.765  13.675  24.334  0.00  0.00    +0.000 C 
ATOM     10  C   UNL     1      -2.793  14.743  23.889  0.00  0.00    +0.000 C 
ATOM     11  C   UNL     1      -1.765  14.133  22.943  0.00  0.00    +0.000 C 
ENDROOT
BRANCH   1  18
ATOM     12  C   UNL     1      -7.541  11.232  20.470  0.00  0.00    +0.000 C 
ATOM     13  C   UNL     1      -7.052  12.626  20.329  0.00  0.00    +0.000 A 
ATOM     14  N   UNL     1      -7.909  13.591  19.960  0.00  0.00    +0.000 NA
ATOM     15  N   UNL     1      -7.142  14.678  19.818  0.00  0.00    +0.000 N 
ATOM     16  C   UNL     1      -7.657  15.852  19.156  0.00  0.00    +0.000 C 
ATOM     17  C   UNL     1      -5.853  14.481  20.201  0.00  0.00    +0.000 A 
ATOM     18  C   UNL     1      -5.719  13.126  20.454  0.00  0.00    +0.000 A 
ENDBRANCH   1  18
BRANCH   4  19
ATOM     19  C   UNL     1      -0.182  13.489  20.529  0.00  0.00    +0.000 A 
ATOM     20  C   UNL     1       0.322  14.713  20.058  0.00  0.00    +0.000 A 
ATOM     21  C   UNL     1       1.697  14.958  19.989  0.00  0.00    +0.000 A 
ATOM     22  C   UNL     1       2.557  13.998  20.482  0.00  0.00    +0.000 A 
ATOM     23  N   UNL     1       2.138  12.826  20.994  0.00  0.00    +0.000 NA
ATOM     24  C   UNL     1       0.796  12.594  20.982  0.00  0.00    +0.000 A 
ENDBRANCH   4  19
BRANCH   3  25
ATOM     25  N   UNL     1      -1.493  12.370  18.226  0.00  0.00    +0.000 N 
ATOM     26  H   UNL     1      -1.928  12.608  17.336  0.00  0.00    +0.000 HD
ATOM     27  H   UNL     1      -1.153  11.409  18.200  0.00  0.00    +0.000 HD
ENDBRANCH   3  25
BRANCH   2  28
ATOM     28  C   UNL     1      -4.225  11.693  18.178  0.00  0.00    +0.000 C 
ATOM     29  N   UNL     1      -4.777  11.177  17.170  0.00  0.00    +0.000 NA
ENDBRANCH   2  28
TORSDOF 4
ENDMDL
