MODEL 1
REMARK VINA RESULT:      -7.8      0.000      0.000
REMARK  Name = 
REMARK  6 active torsions:
REMARK  status: ('A' for Active; 'I' for Inactive)
REMARK    1  A    between atoms: C_4  and  C_5
REMARK    2  A    between atoms: C_5  and  N_6
REMARK    3  A    between atoms: C_10  and  C_11
REMARK    4  A    between atoms: C_11  and  O_12
REMARK    5  A    between atoms: O_12  and  C_13
REMARK    6  A    between atoms: C_13  and  C_14
REMARK                            x       y       z     vdW  Elec       q    Type
REMARK                         _______ _______ _______ _____ _____    ______ ____
ROOT
ATOM      1  N   UNL     1       5.850   5.366  16.560  0.00  0.00    +0.000 NA
ATOM      2  C   UNL     1       5.605   4.621  17.837  0.00  0.00    +0.000 C 
ATOM      3  C   UNL     1       5.031   5.400  18.994  0.00  0.00    +0.000 C 
ATOM      4  C   UNL     1       3.833   6.102  18.460  0.00  0.00    +0.000 A 
ATOM      5  C   UNL     1       2.513   5.950  18.857  0.00  0.00    +0.000 A 
ATOM      6  C   UNL     1       1.925   7.169  19.110  0.00  0.00    +0.000 A 
ATOM      7  N   UNL     1       2.314   8.294  18.474  0.00  0.00    +0.000 NA
ATOM      8  C   UNL     1       3.329   8.165  17.571  0.00  0.00    +0.000 A 
ATOM      9  C   UNL     1       4.091   7.014  17.465  0.00  0.00    +0.000 A 
ATOM     10  C   UNL     1       5.104   6.660  16.405  0.00  0.00    +0.000 C 
ENDROOT
BRANCH   1  11
ATOM     11  C   UNL     1       5.588   4.334  15.523  0.00  0.00    +0.000 C 
BRANCH  11  15
ATOM     12  C   UNL     1       7.513   4.560  11.748  0.00  0.00    +0.000 A 
ATOM     13  C   UNL     1       6.499   3.615  11.894  0.00  0.00    +0.000 A 
ATOM     14  C   UNL     1       5.866   3.455  13.130  0.00  0.00    +0.000 A 
ATOM     15  C   UNL     1       6.298   4.225  14.199  0.00  0.00    +0.000 A 
ATOM     16  N   UNL     1       7.296   5.148  14.060  0.00  0.00    +0.000 NA
ATOM     17  C   UNL     1       7.865   5.307  12.852  0.00  0.00    +0.000 A 
ENDBRANCH  11  15
ENDBRANCH   1  11
BRANCH   5  18
ATOM     18  C   UNL     1       1.724   5.049  17.838  0.00  0.00    +0.000 C 
BRANCH  18  19
ATOM     19  O   UNL     1       2.362   3.960  17.189  0.00  0.00    +0.000 OA
BRANCH  19  20
ATOM     20  C   UNL     1       2.279   2.665  17.778  0.00  0.00    +0.000 C 
BRANCH  20  21
ATOM     21  C   UNL     1       2.375   2.485  19.277  0.00  0.00    +0.000 A 
ATOM     22  C   UNL     1       3.582   2.248  19.941  0.00  0.00    +0.000 A 
ATOM     23  C   UNL     1       3.589   2.245  21.327  0.00  0.00    +0.000 A 
ATOM     24  N   UNL     1       2.508   2.466  22.107  0.00  0.00    +0.000 NA
ATOM     25  C   UNL     1       1.357   2.697  21.456  0.00  0.00    +0.000 A 
ATOM     26  C   UNL     1       1.240   2.711  20.071  0.00  0.00    +0.000 A 
ENDBRANCH  20  21
ENDBRANCH  19  20
ENDBRANCH  18  19
ENDBRANCH   5  18
TORSDOF 6
ENDMDL
MODEL 2
REMARK VINA RESULT:      -7.7      2.699      5.551
REMARK  Name = 
REMARK  6 active torsions:
REMARK  status: ('A' for Active; 'I' for Inactive)
REMARK    1  A    between atoms: C_4  and  C_5
REMARK    2  A    between atoms: C_5  and  N_6
REMARK    3  A    between atoms: C_10  and  C_11
REMARK    4  A    between atoms: C_11  and  O_12
REMARK    5  A    between atoms: O_12  and  C_13
REMARK    6  A    between atoms: C_13  and  C_14
REMARK                            x       y       z     vdW  Elec       q    Type
REMARK                         _______ _______ _______ _____ _____    ______ ____
ROOT
ATOM      1  N   UNL     1       4.030   3.225  17.510  0.00  0.00    +0.000 NA
ATOM      2  C   UNL     1       2.560   3.172  17.227  0.00  0.00    +0.000 C 
ATOM      3  C   UNL     1       1.699   2.381  18.181  0.00  0.00    +0.000 C 
ATOM      4  C   UNL     1       2.040   2.874  19.542  0.00  0.00    +0.000 A 
ATOM      5  C   UNL     1       1.200   3.497  20.455  0.00  0.00    +0.000 A 
ATOM      6  C   UNL     1       1.283   2.904  21.694  0.00  0.00    +0.000 A 
ATOM      7  N   UNL     1       2.410   2.296  22.120  0.00  0.00    +0.000 NA
ATOM      8  C   UNL     1       3.465   2.290  21.254  0.00  0.00    +0.000 A 
ATOM      9  C   UNL     1       3.342   2.664  19.927  0.00  0.00    +0.000 A 
ATOM     10  C   UNL     1       4.439   2.886  18.915  0.00  0.00    +0.000 C 
ENDROOT
BRANCH   1  11
ATOM     11  C   UNL     1       4.408   4.580  17.030  0.00  0.00    +0.000 C 
BRANCH  11  15
ATOM     12  C   UNL     1       7.719   7.046  18.011  0.00  0.00    +0.000 A 
ATOM     13  C   UNL     1       7.707   5.753  18.531  0.00  0.00    +0.000 A 
ATOM     14  C   UNL     1       6.617   4.913  18.290  0.00  0.00    +0.000 A 
ATOM     15  C   UNL     1       5.547   5.410  17.561  0.00  0.00    +0.000 A 
ATOM     16  N   UNL     1       5.554   6.679  17.055  0.00  0.00    +0.000 NA
ATOM     17  C   UNL     1       6.630   7.456  17.273  0.00  0.00    +0.000 A 
ENDBRANCH  11  15
ENDBRANCH   1  11
BRANCH   5  18
ATOM     18  C   UNL     1       1.440   5.052  20.461  0.00  0.00    +0.000 C 
BRANCH  18  19
ATOM     19  O   UNL     1       1.949   5.711  19.312  0.00  0.00    +0.000 OA
BRANCH  19  20
ATOM     20  C   UNL     1       2.593   6.972  19.473  0.00  0.00    +0.000 C 
BRANCH  20  21
ATOM     21  C   UNL     1       1.803   8.261  19.415  0.00  0.00    +0.000 A 
ATOM     22  C   UNL     1       1.166   8.816  20.528  0.00  0.00    +0.000 A 
ATOM     23  C   UNL     1       0.593  10.073  20.410  0.00  0.00    +0.000 A 
ATOM     24  N   UNL     1       0.610  10.829  19.290  0.00  0.00    +0.000 NA
ATOM     25  C   UNL     1       1.231  10.286  18.230  0.00  0.00    +0.000 A 
ATOM     26  C   UNL     1       1.825   9.030  18.240  0.00  0.00    +0.000 A 
ENDBRANCH  20  21
ENDBRANCH  19  20
ENDBRANCH  18  19
ENDBRANCH   5  18
TORSDOF 6
ENDMDL
MODEL 3
REMARK VINA RESULT:      -7.6      2.683      5.465
REMARK  Name = 
REMARK  6 active torsions:
REMARK  status: ('A' for Active; 'I' for Inactive)
REMARK    1  A    between atoms: C_4  and  C_5
REMARK    2  A    between atoms: C_5  and  N_6
REMARK    3  A    between atoms: C_10  and  C_11
REMARK    4  A    between atoms: C_11  and  O_12
REMARK    5  A    between atoms: O_12  and  C_13
REMARK    6  A    between atoms: C_13  and  C_14
REMARK                            x       y       z     vdW  Elec       q    Type
REMARK                         _______ _______ _______ _____ _____    ______ ____
ROOT
ATOM      1  N   UNL     1       4.205   3.265  17.597  0.00  0.00    +0.000 NA
ATOM      2  C   UNL     1       2.758   3.183  17.217  0.00  0.00    +0.000 C 
ATOM      3  C   UNL     1       1.854   2.366  18.106  0.00  0.00    +0.000 C 
ATOM      4  C   UNL     1       2.092   2.854  19.490  0.00  0.00    +0.000 A 
ATOM      5  C   UNL     1       1.181   3.452  20.349  0.00  0.00    +0.000 A 
ATOM      6  C   UNL     1       1.194   2.850  21.587  0.00  0.00    +0.000 A 
ATOM      7  N   UNL     1       2.304   2.263  22.083  0.00  0.00    +0.000 NA
ATOM      8  C   UNL     1       3.413   2.286  21.288  0.00  0.00    +0.000 A 
ATOM      9  C   UNL     1       3.371   2.669  19.959  0.00  0.00    +0.000 A 
ATOM     10  C   UNL     1       4.527   2.924  19.024  0.00  0.00    +0.000 C 
ENDROOT
BRANCH   1  11
ATOM     11  C   UNL     1       4.584   4.632  17.153  0.00  0.00    +0.000 C 
BRANCH  11  15
ATOM     12  C   UNL     1       7.991   6.692  18.622  0.00  0.00    +0.000 A 
ATOM     13  C   UNL     1       7.420   7.159  17.439  0.00  0.00    +0.000 A 
ATOM     14  C   UNL     1       6.331   6.489  16.876  0.00  0.00    +0.000 A 
ATOM     15  C   UNL     1       5.867   5.340  17.499  0.00  0.00    +0.000 A 
ATOM     16  N   UNL     1       6.428   4.876  18.655  0.00  0.00    +0.000 NA
ATOM     17  C   UNL     1       7.454   5.559  19.195  0.00  0.00    +0.000 A 
ENDBRANCH  11  15
ENDBRANCH   1  11
BRANCH   5  18
ATOM     18  C   UNL     1       1.385   5.011  20.383  0.00  0.00    +0.000 C 
BRANCH  18  19
ATOM     19  O   UNL     1       2.688   5.572  20.339  0.00  0.00    +0.000 OA
BRANCH  19  20
ATOM     20  C   UNL     1       2.967   6.587  19.378  0.00  0.00    +0.000 C 
BRANCH  20  21
ATOM     21  C   UNL     1       2.077   7.804  19.253  0.00  0.00    +0.000 A 
ATOM     22  C   UNL     1       1.470   8.421  20.350  0.00  0.00    +0.000 A 
ATOM     23  C   UNL     1       0.795   9.616  20.152  0.00  0.00    +0.000 A 
ATOM     24  N   UNL     1       0.681  10.254  18.965  0.00  0.00    +0.000 NA
ATOM     25  C   UNL     1       1.274   9.652  17.922  0.00  0.00    +0.000 A 
ATOM     26  C   UNL     1       1.964   8.449  18.011  0.00  0.00    +0.000 A 
ENDBRANCH  20  21
ENDBRANCH  19  20
ENDBRANCH  18  19
ENDBRANCH   5  18
TORSDOF 6
ENDMDL
MODEL 4
REMARK VINA RESULT:      -7.6      0.953      1.201
REMARK  Name = 
REMARK  6 active torsions:
REMARK  status: ('A' for Active; 'I' for Inactive)
REMARK    1  A    between atoms: C_4  and  C_5
REMARK    2  A    between atoms: C_5  and  N_6
REMARK    3  A    between atoms: C_10  and  C_11
REMARK    4  A    between atoms: C_11  and  O_12
REMARK    5  A    between atoms: O_12  and  C_13
REMARK    6  A    between atoms: C_13  and  C_14
REMARK                            x       y       z     vdW  Elec       q    Type
REMARK                         _______ _______ _______ _____ _____    ______ ____
ROOT
ATOM      1  N   UNL     1       6.210   5.234  16.843  0.00  0.00    +0.000 NA
ATOM      2  C   UNL     1       5.880   4.519  18.118  0.00  0.00    +0.000 C 
ATOM      3  C   UNL     1       5.126   5.294  19.171  0.00  0.00    +0.000 C 
ATOM      4  C   UNL     1       3.948   5.882  18.480  0.00  0.00    +0.000 A 
ATOM      5  C   UNL     1       2.606   5.645  18.739  0.00  0.00    +0.000 A 
ATOM      6  C   UNL     1       1.908   6.824  18.873  0.00  0.00    +0.000 A 
ATOM      7  N   UNL     1       2.283   7.952  18.233  0.00  0.00    +0.000 NA
ATOM      8  C   UNL     1       3.398   7.867  17.451  0.00  0.00    +0.000 A 
ATOM      9  C   UNL     1       4.248   6.774  17.479  0.00  0.00    +0.000 A 
ATOM     10  C   UNL     1       5.394   6.460  16.550  0.00  0.00    +0.000 C 
ENDROOT
BRANCH   1  11
ATOM     11  C   UNL     1       6.139   4.148  15.831  0.00  0.00    +0.000 C 
BRANCH  11  15
ATOM     12  C   UNL     1       7.546   4.903  11.899  0.00  0.00    +0.000 A 
ATOM     13  C   UNL     1       6.581   3.909  12.054  0.00  0.00    +0.000 A 
ATOM     14  C   UNL     1       6.119   3.577  13.331  0.00  0.00    +0.000 A 
ATOM     15  C   UNL     1       6.671   4.227  14.424  0.00  0.00    +0.000 A 
ATOM     16  N   UNL     1       7.621   5.197  14.275  0.00  0.00    +0.000 NA
ATOM     17  C   UNL     1       8.024   5.523  13.034  0.00  0.00    +0.000 A 
ENDBRANCH  11  15
ENDBRANCH   1  11
BRANCH   5  18
ATOM     18  C   UNL     1       2.001   4.650  17.682  0.00  0.00    +0.000 C 
BRANCH  18  19
ATOM     19  O   UNL     1       0.822   3.914  17.972  0.00  0.00    +0.000 OA
BRANCH  19  20
ATOM     20  C   UNL     1       0.914   2.778  18.827  0.00  0.00    +0.000 C 
BRANCH  20  21
ATOM     21  C   UNL     1       2.255   2.286  19.326  0.00  0.00    +0.000 A 
ATOM     22  C   UNL     1       3.170   1.612  18.513  0.00  0.00    +0.000 A 
ATOM     23  C   UNL     1       4.430   1.333  19.019  0.00  0.00    +0.000 A 
ATOM     24  N   UNL     1       4.862   1.674  20.254  0.00  0.00    +0.000 NA
ATOM     25  C   UNL     1       3.973   2.326  21.021  0.00  0.00    +0.000 A 
ATOM     26  C   UNL     1       2.684   2.644  20.614  0.00  0.00    +0.000 A 
ENDBRANCH  20  21
ENDBRANCH  19  20
ENDBRANCH  18  19
ENDBRANCH   5  18
TORSDOF 6
ENDMDL
MODEL 5
REMARK VINA RESULT:      -7.5      2.631      5.366
REMARK  Name = 
REMARK  6 active torsions:
REMARK  status: ('A' for Active; 'I' for Inactive)
REMARK    1  A    between atoms: C_4  and  C_5
REMARK    2  A    between atoms: C_5  and  N_6
REMARK    3  A    between atoms: C_10  and  C_11
REMARK    4  A    between atoms: C_11  and  O_12
REMARK    5  A    between atoms: O_12  and  C_13
REMARK    6  A    between atoms: C_13  and  C_14
REMARK                            x       y       z     vdW  Elec       q    Type
REMARK                         _______ _______ _______ _____ _____    ______ ____
ROOT
ATOM      1  N   UNL     1       4.138   3.099  17.562  0.00  0.00    +0.000 NA
ATOM      2  C   UNL     1       2.720   2.792  17.185  0.00  0.00    +0.000 C 
ATOM      3  C   UNL     1       1.904   1.983  18.162  0.00  0.00    +0.000 C 
ATOM      4  C   UNL     1       2.051   2.662  19.478  0.00  0.00    +0.000 A 
ATOM      5  C   UNL     1       1.055   3.241  20.250  0.00  0.00    +0.000 A 
ATOM      6  C   UNL     1       1.115   2.801  21.553  0.00  0.00    +0.000 A 
ATOM      7  N   UNL     1       2.278   2.421  22.125  0.00  0.00    +0.000 NA
ATOM      8  C   UNL     1       3.393   2.486  21.340  0.00  0.00    +0.000 A 
ATOM      9  C   UNL     1       3.332   2.696  19.973  0.00  0.00    +0.000 A 
ATOM     10  C   UNL     1       4.468   2.977  19.022  0.00  0.00    +0.000 C 
ENDROOT
BRANCH   1  11
ATOM     11  C   UNL     1       4.355   4.439  16.955  0.00  0.00    +0.000 C 
BRANCH  11  15
ATOM     12  C   UNL     1       7.756   6.738  18.030  0.00  0.00    +0.000 A 
ATOM     13  C   UNL     1       6.761   7.374  17.289  0.00  0.00    +0.000 A 
ATOM     14  C   UNL     1       5.643   6.654  16.858  0.00  0.00    +0.000 A 
ATOM     15  C   UNL     1       5.575   5.300  17.151  0.00  0.00    +0.000 A 
ATOM     16  N   UNL     1       6.551   4.673  17.872  0.00  0.00    +0.000 NA
ATOM     17  C   UNL     1       7.600   5.396  18.304  0.00  0.00    +0.000 A 
ENDBRANCH  11  15
ENDBRANCH   1  11
BRANCH   5  18
ATOM     18  C   UNL     1       1.065   4.806  20.093  0.00  0.00    +0.000 C 
BRANCH  18  19
ATOM     19  O   UNL     1       1.878   5.613  20.931  0.00  0.00    +0.000 OA
BRANCH  19  20
ATOM     20  C   UNL     1       1.585   7.003  21.038  0.00  0.00    +0.000 C 
BRANCH  20  21
ATOM     21  C   UNL     1       1.796   7.935  19.865  0.00  0.00    +0.000 A 
ATOM     22  C   UNL     1       2.542   7.584  18.736  0.00  0.00    +0.000 A 
ATOM     23  C   UNL     1       2.554   8.447  17.651  0.00  0.00    +0.000 A 
ATOM     24  N   UNL     1       1.883   9.618  17.586  0.00  0.00    +0.000 NA
ATOM     25  C   UNL     1       1.166   9.939  18.675  0.00  0.00    +0.000 A 
ATOM     26  C   UNL     1       1.096   9.151  19.817  0.00  0.00    +0.000 A 
ENDBRANCH  20  21
ENDBRANCH  19  20
ENDBRANCH  18  19
ENDBRANCH   5  18
TORSDOF 6
ENDMDL
MODEL 6
REMARK VINA RESULT:      -7.3      2.686      5.401
REMARK  Name = 
REMARK  6 active torsions:
REMARK  status: ('A' for Active; 'I' for Inactive)
REMARK    1  A    between atoms: C_4  and  C_5
REMARK    2  A    between atoms: C_5  and  N_6
REMARK    3  A    between atoms: C_10  and  C_11
REMARK    4  A    between atoms: C_11  and  O_12
REMARK    5  A    between atoms: O_12  and  C_13
REMARK    6  A    between atoms: C_13  and  C_14
REMARK                            x       y       z     vdW  Elec       q    Type
REMARK                         _______ _______ _______ _____ _____    ______ ____
ROOT
ATOM      1  N   UNL     1       3.863   3.227  17.419  0.00  0.00    +0.000 NA
ATOM      2  C   UNL     1       2.378   3.167  17.224  0.00  0.00    +0.000 C 
ATOM      3  C   UNL     1       1.576   2.407  18.251  0.00  0.00    +0.000 C 
ATOM      4  C   UNL     1       1.995   2.942  19.574  0.00  0.00    +0.000 A 
ATOM      5  C   UNL     1       1.210   3.594  20.514  0.00  0.00    +0.000 A 
ATOM      6  C   UNL     1       1.365   3.040  21.765  0.00  0.00    +0.000 A 
ATOM      7  N   UNL     1       2.515   2.444  22.143  0.00  0.00    +0.000 NA
ATOM      8  C   UNL     1       3.518   2.409  21.217  0.00  0.00    +0.000 A 
ATOM      9  C   UNL     1       3.317   2.743  19.888  0.00  0.00    +0.000 A 
ATOM     10  C   UNL     1       4.353   2.932  18.808  0.00  0.00    +0.000 C 
ENDROOT
BRANCH   1  11
ATOM     11  C   UNL     1       4.211   4.567  16.877  0.00  0.00    +0.000 C 
BRANCH  11  15
ATOM     12  C   UNL     1       7.699   6.564  18.237  0.00  0.00    +0.000 A 
ATOM     13  C   UNL     1       6.782   7.309  17.497  0.00  0.00    +0.000 A 
ATOM     14  C   UNL     1       5.641   6.693  16.974  0.00  0.00    +0.000 A 
ATOM     15  C   UNL     1       5.473   5.332  17.177  0.00  0.00    +0.000 A 
ATOM     16  N   UNL     1       6.373   4.598  17.897  0.00  0.00    +0.000 NA
ATOM     17  C   UNL     1       7.445   5.221  18.418  0.00  0.00    +0.000 A 
ENDBRANCH  11  15
ENDBRANCH   1  11
BRANCH   5  18
ATOM     18  C   UNL     1       1.448   5.147  20.459  0.00  0.00    +0.000 C 
BRANCH  18  19
ATOM     19  O   UNL     1       2.056   5.747  19.325  0.00  0.00    +0.000 OA
BRANCH  19  20
ATOM     20  C   UNL     1       2.591   7.062  19.448  0.00  0.00    +0.000 C 
BRANCH  20  21
ATOM     21  C   UNL     1       1.706   8.231  19.820  0.00  0.00    +0.000 A 
ATOM     22  C   UNL     1       1.328   9.221  18.909  0.00  0.00    +0.000 A 
ATOM     23  C   UNL     1       0.396  10.168  19.305  0.00  0.00    +0.000 A 
ATOM     24  N   UNL     1      -0.199  10.209  20.518  0.00  0.00    +0.000 NA
ATOM     25  C   UNL     1       0.170   9.248  21.380  0.00  0.00    +0.000 A 
ATOM     26  C   UNL     1       1.103   8.261  21.087  0.00  0.00    +0.000 A 
ENDBRANCH  20  21
ENDBRANCH  19  20
ENDBRANCH  18  19
ENDBRANCH   5  18
TORSDOF 6
ENDMDL
MODEL 7
REMARK VINA RESULT:      -7.3      2.904      5.804
REMARK  Name = 
REMARK  6 active torsions:
REMARK  status: ('A' for Active; 'I' for Inactive)
REMARK    1  A    between atoms: C_4  and  C_5
REMARK    2  A    between atoms: C_5  and  N_6
REMARK    3  A    between atoms: C_10  and  C_11
REMARK    4  A    between atoms: C_11  and  O_12
REMARK    5  A    between atoms: O_12  and  C_13
REMARK    6  A    between atoms: C_13  and  C_14
REMARK                            x       y       z     vdW  Elec       q    Type
REMARK                         _______ _______ _______ _____ _____    ______ ____
ROOT
ATOM      1  N   UNL     1       4.099   3.464  17.279  0.00  0.00    +0.000 NA
ATOM      2  C   UNL     1       2.637   3.702  17.054  0.00  0.00    +0.000 C 
ATOM      3  C   UNL     1       1.676   3.102  18.050  0.00  0.00    +0.000 C 
ATOM      4  C   UNL     1       2.161   3.523  19.391  0.00  0.00    +0.000 A 
ATOM      5  C   UNL     1       1.499   4.303  20.327  0.00  0.00    +0.000 A 
ATOM      6  C   UNL     1       1.513   3.711  21.570  0.00  0.00    +0.000 A 
ATOM      7  N   UNL     1       2.513   2.893  21.959  0.00  0.00    +0.000 NA
ATOM      8  C   UNL     1       3.510   2.675  21.053  0.00  0.00    +0.000 A 
ATOM      9  C   UNL     1       3.411   3.061  19.727  0.00  0.00    +0.000 A 
ATOM     10  C   UNL     1       4.489   3.057  18.672  0.00  0.00    +0.000 C 
ENDROOT
BRANCH   1  11
ATOM     11  C   UNL     1       4.717   4.716  16.769  0.00  0.00    +0.000 C 
BRANCH  11  15
ATOM     12  C   UNL     1       7.931   6.999  18.340  0.00  0.00    +0.000 A 
ATOM     13  C   UNL     1       7.506   5.897  19.081  0.00  0.00    +0.000 A 
ATOM     14  C   UNL     1       6.415   5.140  18.644  0.00  0.00    +0.000 A 
ATOM     15  C   UNL     1       5.757   5.535  17.489  0.00  0.00    +0.000 A 
ATOM     16  N   UNL     1       6.168   6.617  16.764  0.00  0.00    +0.000 NA
ATOM     17  C   UNL     1       7.241   7.309  17.188  0.00  0.00    +0.000 A 
ENDBRANCH  11  15
ENDBRANCH   1  11
BRANCH   5  18
ATOM     18  C   UNL     1       2.041   5.780  20.306  0.00  0.00    +0.000 C 
BRANCH  18  19
ATOM     19  O   UNL     1       1.404   6.796  21.065  0.00  0.00    +0.000 OA
BRANCH  19  20
ATOM     20  C   UNL     1       1.429   8.135  20.577  0.00  0.00    +0.000 C 
BRANCH  20  21
ATOM     21  C   UNL     1       0.818   9.265  21.375  0.00  0.00    +0.000 A 
ATOM     22  C   UNL     1       0.697  10.568  20.883  0.00  0.00    +0.000 A 
ATOM     23  C   UNL     1      -0.009  11.498  21.629  0.00  0.00    +0.000 A 
ATOM     24  N   UNL     1      -0.614  11.245  22.811  0.00  0.00    +0.000 NA
ATOM     25  C   UNL     1      -0.494   9.988  23.268  0.00  0.00    +0.000 A 
ATOM     26  C   UNL     1       0.201   8.985  22.604  0.00  0.00    +0.000 A 
ENDBRANCH  20  21
ENDBRANCH  19  20
ENDBRANCH  18  19
ENDBRANCH   5  18
TORSDOF 6
ENDMDL
MODEL 8
REMARK VINA RESULT:      -7.2      1.705      4.970
REMARK  Name = 
REMARK  6 active torsions:
REMARK  status: ('A' for Active; 'I' for Inactive)
REMARK    1  A    between atoms: C_4  and  C_5
REMARK    2  A    between atoms: C_5  and  N_6
REMARK    3  A    between atoms: C_10  and  C_11
REMARK    4  A    between atoms: C_11  and  O_12
REMARK    5  A    between atoms: O_12  and  C_13
REMARK    6  A    between atoms: C_13  and  C_14
REMARK                            x       y       z     vdW  Elec       q    Type
REMARK                         _______ _______ _______ _____ _____    ______ ____
ROOT
ATOM      1  N   UNL     1       4.010   3.023  17.553  0.00  0.00    +0.000 NA
ATOM      2  C   UNL     1       2.559   2.794  17.255  0.00  0.00    +0.000 C 
ATOM      3  C   UNL     1       1.760   2.010  18.267  0.00  0.00    +0.000 C 
ATOM      4  C   UNL     1       2.017   2.658  19.581  0.00  0.00    +0.000 A 
ATOM      5  C   UNL     1       1.098   3.272  20.419  0.00  0.00    +0.000 A 
ATOM      6  C   UNL     1       1.210   2.807  21.710  0.00  0.00    +0.000 A 
ATOM      7  N   UNL     1       2.382   2.360  22.207  0.00  0.00    +0.000 NA
ATOM      8  C   UNL     1       3.453   2.382  21.360  0.00  0.00    +0.000 A 
ATOM      9  C   UNL     1       3.324   2.619  20.002  0.00  0.00    +0.000 A 
ATOM     10  C   UNL     1       4.417   2.859  18.990  0.00  0.00    +0.000 C 
ENDROOT
BRANCH   1  11
ATOM     11  C   UNL     1       4.260   4.361  16.954  0.00  0.00    +0.000 C 
BRANCH  11  15
ATOM     12  C   UNL     1       7.128   4.692  13.844  0.00  0.00    +0.000 A 
ATOM     13  C   UNL     1       7.462   5.234  15.085  0.00  0.00    +0.000 A 
ATOM     14  C   UNL     1       6.537   5.205  16.132  0.00  0.00    +0.000 A 
ATOM     15  C   UNL     1       5.283   4.666  15.892  0.00  0.00    +0.000 A 
ATOM     16  N   UNL     1       4.950   4.140  14.676  0.00  0.00    +0.000 NA
ATOM     17  C   UNL     1       5.870   4.149  13.694  0.00  0.00    +0.000 A 
ENDBRANCH  11  15
ENDBRANCH   1  11
BRANCH   5  18
ATOM     18  C   UNL     1       1.179   4.837  20.283  0.00  0.00    +0.000 C 
BRANCH  18  19
ATOM     19  O   UNL     1       2.395   5.524  20.536  0.00  0.00    +0.000 OA
BRANCH  19  20
ATOM     20  C   UNL     1       2.862   6.468  19.576  0.00  0.00    +0.000 C 
BRANCH  20  21
ATOM     21  C   UNL     1       2.102   7.748  19.309  0.00  0.00    +0.000 A 
ATOM     22  C   UNL     1       1.436   8.462  20.309  0.00  0.00    +0.000 A 
ATOM     23  C   UNL     1       0.894   9.699  19.995  0.00  0.00    +0.000 A 
ATOM     24  N   UNL     1       0.966  10.290  18.781  0.00  0.00    +0.000 NA
ATOM     25  C   UNL     1       1.613   9.594  17.832  0.00  0.00    +0.000 A 
ATOM     26  C   UNL     1       2.181   8.344  18.040  0.00  0.00    +0.000 A 
ENDBRANCH  20  21
ENDBRANCH  19  20
ENDBRANCH  18  19
ENDBRANCH   5  18
TORSDOF 6
ENDMDL
MODEL 9
REMARK VINA RESULT:      -7.1      2.887      5.876
REMARK  Name = 
REMARK  6 active torsions:
REMARK  status: ('A' for Active; 'I' for Inactive)
REMARK    1  A    between atoms: C_4  and  C_5
REMARK    2  A    between atoms: C_5  and  N_6
REMARK    3  A    between atoms: C_10  and  C_11
REMARK    4  A    between atoms: C_11  and  O_12
REMARK    5  A    between atoms: O_12  and  C_13
REMARK    6  A    between atoms: C_13  and  C_14
REMARK                            x       y       z     vdW  Elec       q    Type
REMARK                         _______ _______ _______ _____ _____    ______ ____
ROOT
ATOM      1  N   UNL     1       3.655   2.814  17.354  0.00  0.00    +0.000 NA
ATOM      2  C   UNL     1       2.220   3.220  17.202  0.00  0.00    +0.000 C 
ATOM      3  C   UNL     1       1.254   2.757  18.265  0.00  0.00    +0.000 C 
ATOM      4  C   UNL     1       1.862   3.142  19.566  0.00  0.00    +0.000 A 
ATOM      5  C   UNL     1       1.352   4.014  20.517  0.00  0.00    +0.000 A 
ATOM      6  C   UNL     1       1.367   3.447  21.772  0.00  0.00    +0.000 A 
ATOM      7  N   UNL     1       2.285   2.524  22.126  0.00  0.00    +0.000 NA
ATOM      8  C   UNL     1       3.195   2.171  21.173  0.00  0.00    +0.000 A 
ATOM      9  C   UNL     1       3.066   2.541  19.845  0.00  0.00    +0.000 A 
ATOM     10  C   UNL     1       4.073   2.390  18.732  0.00  0.00    +0.000 C 
ENDROOT
BRANCH   1  11
ATOM     11  C   UNL     1       4.386   3.973  16.779  0.00  0.00    +0.000 C 
BRANCH  11  15
ATOM     12  C   UNL     1       7.868   5.498  18.666  0.00  0.00    +0.000 A 
ATOM     13  C   UNL     1       6.634   5.880  19.192  0.00  0.00    +0.000 A 
ATOM     14  C   UNL     1       5.452   5.456  18.580  0.00  0.00    +0.000 A 
ATOM     15  C   UNL     1       5.542   4.688  17.429  0.00  0.00    +0.000 A 
ATOM     16  N   UNL     1       6.749   4.317  16.908  0.00  0.00    +0.000 NA
ATOM     17  C   UNL     1       7.872   4.710  17.535  0.00  0.00    +0.000 A 
ENDBRANCH  11  15
ENDBRANCH   1  11
BRANCH   5  18
ATOM     18  C   UNL     1       2.062   5.415  20.429  0.00  0.00    +0.000 C 
BRANCH  18  19
ATOM     19  O   UNL     1       1.544   6.535  21.130  0.00  0.00    +0.000 OA
BRANCH  19  20
ATOM     20  C   UNL     1       1.591   7.816  20.508  0.00  0.00    +0.000 C 
BRANCH  20  21
ATOM     21  C   UNL     1       0.845   8.993  21.095  0.00  0.00    +0.000 A 
ATOM     22  C   UNL     1       0.259   8.969  22.363  0.00  0.00    +0.000 A 
ATOM     23  C   UNL     1      -0.273  10.144  22.873  0.00  0.00    +0.000 A 
ATOM     24  N   UNL     1      -0.263  11.337  22.239  0.00  0.00    +0.000 NA
ATOM     25  C   UNL     1       0.308  11.346  21.024  0.00  0.00    +0.000 A 
ATOM     26  C   UNL     1       0.859  10.224  20.419  0.00  0.00    +0.000 A 
ENDBRANCH  20  21
ENDBRANCH  19  20
ENDBRANCH  18  19
ENDBRANCH   5  18
TORSDOF 6
ENDMDL
