MODEL 1
REMARK VINA RESULT:      -6.1      0.000      0.000
REMARK  Name = 
REMARK  11 active torsions:
REMARK  status: ('A' for Active; 'I' for Inactive)
REMARK    1  A    between atoms: C_1  and  C_2
REMARK    2  A    between atoms: C_2  and  N_3
REMARK    3  A    between atoms: N_3  and  C_4
REMARK    4  A    between atoms: N_3  and  C_6
REMARK    5  A    between atoms: C_4  and  C_5
REMARK    6  A    between atoms: C_6  and  C_7
REMARK    7  A    between atoms: C_7  and  O_8
REMARK    8  A    between atoms: O_8  and  C_9
REMARK    9  A    between atoms: C_13  and  C_14
REMARK   10  A    between atoms: C_14  and  C_15
REMARK   11  A    between atoms: C_14  and  C_16
REMARK                            x       y       z     vdW  Elec       q    Type
REMARK                         _______ _______ _______ _____ _____    ______ ____
ROOT
ATOM      1  C   UNL     1       4.455   4.310  18.803  0.00  0.00    +0.000 A 
ATOM      2  C   UNL     1       3.721   3.291  18.196  0.00  0.00    +0.000 A 
ATOM      3  C   UNL     1       2.435   3.537  17.718  0.00  0.00    +0.000 A 
ATOM      4  C   UNL     1       1.868   4.808  17.846  0.00  0.00    +0.000 A 
ATOM      5  C   UNL     1       2.585   5.846  18.453  0.00  0.00    +0.000 A 
ATOM      6  C   UNL     1       3.880   5.580  18.927  0.00  0.00    +0.000 A 
ENDROOT
BRANCH   5   7
ATOM      7  C   UNL     1       1.965   7.225  18.597  0.00  0.00    +0.000 C 
ATOM      8  C   UNL     1       1.927   7.673  20.062  0.00  0.00    +0.000 C 
ATOM      9  C   UNL     1       2.692   8.263  17.736  0.00  0.00    +0.000 C 
ENDBRANCH   5   7
BRANCH   1  10
ATOM     10  O   UNL     1       5.707   3.955  19.236  0.00  0.00    +0.000 OA
BRANCH  10  11
ATOM     11  C   UNL     1       6.705   4.982  19.148  0.00  0.00    +0.000 C 
BRANCH  11  12
ATOM     12  C   UNL     1       7.587   4.743  17.914  0.00  0.00    +0.000 C 
BRANCH  12  13
ATOM     13  N   UNL     1       7.492   5.791  16.873  0.00  0.00    +0.000 NA
BRANCH  13  15
ATOM     14  C   UNL     1       5.376   5.623  15.506  0.00  0.00    +0.000 C 
ATOM     15  C   UNL     1       6.843   5.235  15.672  0.00  0.00    +0.000 C 
ENDBRANCH  13  15
BRANCH  13  16
ATOM     16  C   UNL     1       6.896   7.052  17.344  0.00  0.00    +0.000 C 
ATOM     17  C   UNL     1       7.868   8.198  17.612  0.00  0.00    +0.000 C 
ENDBRANCH  13  16
ENDBRANCH  12  13
ENDBRANCH  11  12
ENDBRANCH  10  11
ENDBRANCH   1  10
TORSDOF 7
ENDMDL
MODEL 2
REMARK VINA RESULT:      -5.6      1.642      2.740
REMARK  Name = 
REMARK  11 active torsions:
REMARK  status: ('A' for Active; 'I' for Inactive)
REMARK    1  A    between atoms: C_1  and  C_2
REMARK    2  A    between atoms: C_2  and  N_3
REMARK    3  A    between atoms: N_3  and  C_4
REMARK    4  A    between atoms: N_3  and  C_6
REMARK    5  A    between atoms: C_4  and  C_5
REMARK    6  A    between atoms: C_6  and  C_7
REMARK    7  A    between atoms: C_7  and  O_8
REMARK    8  A    between atoms: O_8  and  C_9
REMARK    9  A    between atoms: C_13  and  C_14
REMARK   10  A    between atoms: C_14  and  C_15
REMARK   11  A    between atoms: C_14  and  C_16
REMARK                            x       y       z     vdW  Elec       q    Type
REMARK                         _______ _______ _______ _____ _____    ______ ____
ROOT
ATOM      1  C   UNL     1       4.723   3.815  18.570  0.00  0.00    +0.000 A 
ATOM      2  C   UNL     1       4.331   3.374  17.306  0.00  0.00    +0.000 A 
ATOM      3  C   UNL     1       2.980   3.206  17.005  0.00  0.00    +0.000 A 
ATOM      4  C   UNL     1       2.006   3.478  17.969  0.00  0.00    +0.000 A 
ATOM      5  C   UNL     1       2.376   3.922  19.244  0.00  0.00    +0.000 A 
ATOM      6  C   UNL     1       3.741   4.086  19.529  0.00  0.00    +0.000 A 
ENDROOT
BRANCH   5   7
ATOM      7  C   UNL     1       1.315   4.211  20.293  0.00  0.00    +0.000 C 
ATOM      8  C   UNL     1       1.338   3.168  21.416  0.00  0.00    +0.000 C 
ATOM      9  C   UNL     1       1.461   5.623  20.868  0.00  0.00    +0.000 C 
ENDBRANCH   5   7
BRANCH   1  10
ATOM     10  O   UNL     1       6.076   3.943  18.755  0.00  0.00    +0.000 OA
BRANCH  10  11
ATOM     11  C   UNL     1       6.791   4.566  17.679  0.00  0.00    +0.000 C 
BRANCH  11  12
ATOM     12  C   UNL     1       7.438   5.868  18.173  0.00  0.00    +0.000 C 
BRANCH  12  13
ATOM     13  N   UNL     1       6.746   7.105  17.746  0.00  0.00    +0.000 NA
BRANCH  13  15
ATOM     14  C   UNL     1       8.393   8.910  18.381  0.00  0.00    +0.000 C 
ATOM     15  C   UNL     1       7.738   8.087  17.274  0.00  0.00    +0.000 C 
ENDBRANCH  13  15
BRANCH  13  16
ATOM     16  C   UNL     1       5.637   6.877  16.805  0.00  0.00    +0.000 C 
ATOM     17  C   UNL     1       4.230   7.076  17.360  0.00  0.00    +0.000 C 
ENDBRANCH  13  16
ENDBRANCH  12  13
ENDBRANCH  11  12
ENDBRANCH  10  11
ENDBRANCH   1  10
TORSDOF 7
ENDMDL
MODEL 3
REMARK VINA RESULT:      -5.5      2.402      5.676
REMARK  Name = 
REMARK  11 active torsions:
REMARK  status: ('A' for Active; 'I' for Inactive)
REMARK    1  A    between atoms: C_1  and  C_2
REMARK    2  A    between atoms: C_2  and  N_3
REMARK    3  A    between atoms: N_3  and  C_4
REMARK    4  A    between atoms: N_3  and  C_6
REMARK    5  A    between atoms: C_4  and  C_5
REMARK    6  A    between atoms: C_6  and  C_7
REMARK    7  A    between atoms: C_7  and  O_8
REMARK    8  A    between atoms: O_8  and  C_9
REMARK    9  A    between atoms: C_13  and  C_14
REMARK   10  A    between atoms: C_14  and  C_15
REMARK   11  A    between atoms: C_14  and  C_16
REMARK                            x       y       z     vdW  Elec       q    Type
REMARK                         _______ _______ _______ _____ _____    ______ ____
ROOT
ATOM      1  C   UNL     1       4.896   5.589  17.758  0.00  0.00    +0.000 A 
ATOM      2  C   UNL     1       5.960   5.536  18.659  0.00  0.00    +0.000 A 
ATOM      3  C   UNL     1       7.202   5.048  18.257  0.00  0.00    +0.000 A 
ATOM      4  C   UNL     1       7.392   4.606  16.946  0.00  0.00    +0.000 A 
ATOM      5  C   UNL     1       6.340   4.648  16.023  0.00  0.00    +0.000 A 
ATOM      6  C   UNL     1       5.096   5.145  16.446  0.00  0.00    +0.000 A 
ENDROOT
BRANCH   5   7
ATOM      7  C   UNL     1       6.547   4.160  14.599  0.00  0.00    +0.000 C 
ATOM      8  C   UNL     1       5.213   3.994  13.864  0.00  0.00    +0.000 C 
ATOM      9  C   UNL     1       7.481   5.088  13.816  0.00  0.00    +0.000 C 
ENDBRANCH   5   7
BRANCH   1  10
ATOM     10  O   UNL     1       3.722   6.086  18.262  0.00  0.00    +0.000 OA
BRANCH  10  11
ATOM     11  C   UNL     1       3.384   5.650  19.586  0.00  0.00    +0.000 C 
BRANCH  11  12
ATOM     12  C   UNL     1       2.673   4.291  19.518  0.00  0.00    +0.000 C 
BRANCH  12  13
ATOM     13  N   UNL     1       3.429   3.165  20.113  0.00  0.00    +0.000 NA
BRANCH  13  15
ATOM     14  C   UNL     1       1.227   2.840  21.304  0.00  0.00    +0.000 C 
ATOM     15  C   UNL     1       2.747   2.703  21.335  0.00  0.00    +0.000 C 
ENDBRANCH  13  15
BRANCH  13  16
ATOM     16  C   UNL     1       3.745   2.087  19.162  0.00  0.00    +0.000 C 
ATOM     17  C   UNL     1       3.178   2.243  17.753  0.00  0.00    +0.000 C 
ENDBRANCH  13  16
ENDBRANCH  12  13
ENDBRANCH  11  12
ENDBRANCH  10  11
ENDBRANCH   1  10
TORSDOF 7
ENDMDL
MODEL 4
REMARK VINA RESULT:      -5.5      1.755      3.501
REMARK  Name = 
REMARK  11 active torsions:
REMARK  status: ('A' for Active; 'I' for Inactive)
REMARK    1  A    between atoms: C_1  and  C_2
REMARK    2  A    between atoms: C_2  and  N_3
REMARK    3  A    between atoms: N_3  and  C_4
REMARK    4  A    between atoms: N_3  and  C_6
REMARK    5  A    between atoms: C_4  and  C_5
REMARK    6  A    between atoms: C_6  and  C_7
REMARK    7  A    between atoms: C_7  and  O_8
REMARK    8  A    between atoms: O_8  and  C_9
REMARK    9  A    between atoms: C_13  and  C_14
REMARK   10  A    between atoms: C_14  and  C_15
REMARK   11  A    between atoms: C_14  and  C_16
REMARK                            x       y       z     vdW  Elec       q    Type
REMARK                         _______ _______ _______ _____ _____    ______ ____
ROOT
ATOM      1  C   UNL     1       2.981   6.401  18.390  0.00  0.00    +0.000 A 
ATOM      2  C   UNL     1       2.529   6.765  19.659  0.00  0.00    +0.000 A 
ATOM      3  C   UNL     1       1.827   5.854  20.446  0.00  0.00    +0.000 A 
ATOM      4  C   UNL     1       1.566   4.567  19.969  0.00  0.00    +0.000 A 
ATOM      5  C   UNL     1       2.009   4.179  18.698  0.00  0.00    +0.000 A 
ATOM      6  C   UNL     1       2.717   5.110  17.921  0.00  0.00    +0.000 A 
ENDROOT
BRANCH   5   7
ATOM      7  C   UNL     1       1.719   2.781  18.179  0.00  0.00    +0.000 C 
ATOM      8  C   UNL     1       2.987   1.921  18.148  0.00  0.00    +0.000 C 
ATOM      9  C   UNL     1       0.621   2.092  18.995  0.00  0.00    +0.000 C 
ENDBRANCH   5   7
BRANCH   1  10
ATOM     10  O   UNL     1       3.659   7.376  17.705  0.00  0.00    +0.000 OA
BRANCH  10  11
ATOM     11  C   UNL     1       4.524   6.909  16.660  0.00  0.00    +0.000 C 
BRANCH  11  12
ATOM     12  C   UNL     1       5.915   6.605  17.236  0.00  0.00    +0.000 C 
BRANCH  12  13
ATOM     13  N   UNL     1       6.230   5.164  17.366  0.00  0.00    +0.000 NA
BRANCH  13  15
ATOM     14  C   UNL     1       7.038   4.774  15.006  0.00  0.00    +0.000 C 
ATOM     15  C   UNL     1       5.990   4.489  16.078  0.00  0.00    +0.000 C 
ENDBRANCH  13  15
BRANCH  13  16
ATOM     16  C   UNL     1       7.555   4.890  17.945  0.00  0.00    +0.000 C 
ATOM     17  C   UNL     1       7.975   5.775  19.116  0.00  0.00    +0.000 C 
ENDBRANCH  13  16
ENDBRANCH  12  13
ENDBRANCH  11  12
ENDBRANCH  10  11
ENDBRANCH   1  10
TORSDOF 7
ENDMDL
MODEL 5
REMARK VINA RESULT:      -5.5      1.599      2.167
REMARK  Name = 
REMARK  11 active torsions:
REMARK  status: ('A' for Active; 'I' for Inactive)
REMARK    1  A    between atoms: C_1  and  C_2
REMARK    2  A    between atoms: C_2  and  N_3
REMARK    3  A    between atoms: N_3  and  C_4
REMARK    4  A    between atoms: N_3  and  C_6
REMARK    5  A    between atoms: C_4  and  C_5
REMARK    6  A    between atoms: C_6  and  C_7
REMARK    7  A    between atoms: C_7  and  O_8
REMARK    8  A    between atoms: O_8  and  C_9
REMARK    9  A    between atoms: C_13  and  C_14
REMARK   10  A    between atoms: C_14  and  C_15
REMARK   11  A    between atoms: C_14  and  C_16
REMARK                            x       y       z     vdW  Elec       q    Type
REMARK                         _______ _______ _______ _____ _____    ______ ____
ROOT
ATOM      1  C   UNL     1       4.665   3.759  18.501  0.00  0.00    +0.000 A 
ATOM      2  C   UNL     1       4.228   3.322  17.251  0.00  0.00    +0.000 A 
ATOM      3  C   UNL     1       2.866   3.177  16.990  0.00  0.00    +0.000 A 
ATOM      4  C   UNL     1       1.926   3.468  17.981  0.00  0.00    +0.000 A 
ATOM      5  C   UNL     1       2.340   3.907  19.244  0.00  0.00    +0.000 A 
ATOM      6  C   UNL     1       3.716   4.049  19.488  0.00  0.00    +0.000 A 
ENDROOT
BRANCH   5   7
ATOM      7  C   UNL     1       1.316   4.217  20.323  0.00  0.00    +0.000 C 
ATOM      8  C   UNL     1       1.390   3.207  21.473  0.00  0.00    +0.000 C 
ATOM      9  C   UNL     1       1.470   5.647  20.852  0.00  0.00    +0.000 C 
ENDBRANCH   5   7
BRANCH   1  10
ATOM     10  O   UNL     1       6.025   3.864  18.646  0.00  0.00    +0.000 OA
BRANCH  10  11
ATOM     11  C   UNL     1       6.541   5.202  18.678  0.00  0.00    +0.000 C 
BRANCH  11  12
ATOM     12  C   UNL     1       7.155   5.552  17.315  0.00  0.00    +0.000 C 
BRANCH  12  13
ATOM     13  N   UNL     1       6.624   6.787  16.695  0.00  0.00    +0.000 NA
BRANCH  13  15
ATOM     14  C   UNL     1       4.155   7.123  17.106  0.00  0.00    +0.000 C 
ATOM     15  C   UNL     1       5.252   6.546  16.214  0.00  0.00    +0.000 C 
ENDBRANCH  13  15
BRANCH  13  16
ATOM     16  C   UNL     1       6.759   7.987  17.537  0.00  0.00    +0.000 C 
ATOM     17  C   UNL     1       8.185   8.413  17.879  0.00  0.00    +0.000 C 
ENDBRANCH  13  16
ENDBRANCH  12  13
ENDBRANCH  11  12
ENDBRANCH  10  11
ENDBRANCH   1  10
TORSDOF 7
ENDMDL
MODEL 6
REMARK VINA RESULT:      -5.5      2.389      5.577
REMARK  Name = 
REMARK  11 active torsions:
REMARK  status: ('A' for Active; 'I' for Inactive)
REMARK    1  A    between atoms: C_1  and  C_2
REMARK    2  A    between atoms: C_2  and  N_3
REMARK    3  A    between atoms: N_3  and  C_4
REMARK    4  A    between atoms: N_3  and  C_6
REMARK    5  A    between atoms: C_4  and  C_5
REMARK    6  A    between atoms: C_6  and  C_7
REMARK    7  A    between atoms: C_7  and  O_8
REMARK    8  A    between atoms: O_8  and  C_9
REMARK    9  A    between atoms: C_13  and  C_14
REMARK   10  A    between atoms: C_14  and  C_15
REMARK   11  A    between atoms: C_14  and  C_16
REMARK                            x       y       z     vdW  Elec       q    Type
REMARK                         _______ _______ _______ _____ _____    ______ ____
ROOT
ATOM      1  C   UNL     1       5.949   4.654  17.404  0.00  0.00    +0.000 A 
ATOM      2  C   UNL     1       5.310   5.894  17.387  0.00  0.00    +0.000 A 
ATOM      3  C   UNL     1       5.059   6.542  16.179  0.00  0.00    +0.000 A 
ATOM      4  C   UNL     1       5.449   5.956  14.972  0.00  0.00    +0.000 A 
ATOM      5  C   UNL     1       6.093   4.712  14.964  0.00  0.00    +0.000 A 
ATOM      6  C   UNL     1       6.335   4.073  16.190  0.00  0.00    +0.000 A 
ENDROOT
BRANCH   5   7
ATOM      7  C   UNL     1       6.521   4.079  13.650  0.00  0.00    +0.000 C 
ATOM      8  C   UNL     1       5.311   3.710  12.785  0.00  0.00    +0.000 C 
ATOM      9  C   UNL     1       7.481   4.985  12.874  0.00  0.00    +0.000 C 
ENDBRANCH   5   7
BRANCH   1  10
ATOM     10  O   UNL     1       6.145   4.109  18.647  0.00  0.00    +0.000 OA
BRANCH  10  11
ATOM     11  C   UNL     1       5.002   4.122  19.514  0.00  0.00    +0.000 C 
BRANCH  11  12
ATOM     12  C   UNL     1       4.168   2.852  19.290  0.00  0.00    +0.000 C 
BRANCH  12  13
ATOM     13  N   UNL     1       2.723   3.092  19.067  0.00  0.00    +0.000 NA
BRANCH  13  15
ATOM     14  C   UNL     1       1.316   2.814  21.144  0.00  0.00    +0.000 C 
ATOM     15  C   UNL     1       1.936   2.171  19.906  0.00  0.00    +0.000 C 
ENDBRANCH  13  15
BRANCH  13  16
ATOM     16  C   UNL     1       2.324   4.503  19.191  0.00  0.00    +0.000 C 
ATOM     17  C   UNL     1       1.877   5.193  17.904  0.00  0.00    +0.000 C 
ENDBRANCH  13  16
ENDBRANCH  12  13
ENDBRANCH  11  12
ENDBRANCH  10  11
ENDBRANCH   1  10
TORSDOF 7
ENDMDL
MODEL 7
REMARK VINA RESULT:      -5.5      2.580      5.541
REMARK  Name = 
REMARK  11 active torsions:
REMARK  status: ('A' for Active; 'I' for Inactive)
REMARK    1  A    between atoms: C_1  and  C_2
REMARK    2  A    between atoms: C_2  and  N_3
REMARK    3  A    between atoms: N_3  and  C_4
REMARK    4  A    between atoms: N_3  and  C_6
REMARK    5  A    between atoms: C_4  and  C_5
REMARK    6  A    between atoms: C_6  and  C_7
REMARK    7  A    between atoms: C_7  and  O_8
REMARK    8  A    between atoms: O_8  and  C_9
REMARK    9  A    between atoms: C_13  and  C_14
REMARK   10  A    between atoms: C_14  and  C_15
REMARK   11  A    between atoms: C_14  and  C_16
REMARK                            x       y       z     vdW  Elec       q    Type
REMARK                         _______ _______ _______ _____ _____    ______ ____
ROOT
ATOM      1  C   UNL     1       3.993   5.402  17.451  0.00  0.00    +0.000 A 
ATOM      2  C   UNL     1       4.069   4.360  16.527  0.00  0.00    +0.000 A 
ATOM      3  C   UNL     1       5.304   3.941  16.036  0.00  0.00    +0.000 A 
ATOM      4  C   UNL     1       6.479   4.564  16.464  0.00  0.00    +0.000 A 
ATOM      5  C   UNL     1       6.428   5.613  17.390  0.00  0.00    +0.000 A 
ATOM      6  C   UNL     1       5.175   6.019  17.875  0.00  0.00    +0.000 A 
ENDROOT
BRANCH   5   7
ATOM      7  C   UNL     1       7.707   6.293  17.849  0.00  0.00    +0.000 C 
ATOM      8  C   UNL     1       7.655   7.805  17.607  0.00  0.00    +0.000 C 
ATOM      9  C   UNL     1       8.007   5.994  19.321  0.00  0.00    +0.000 C 
ENDBRANCH   5   7
BRANCH   1  10
ATOM     10  O   UNL     1       2.728   5.730  17.865  0.00  0.00    +0.000 OA
BRANCH  10  11
ATOM     11  C   UNL     1       1.748   4.690  17.743  0.00  0.00    +0.000 C 
BRANCH  11  12
ATOM     12  C   UNL     1       1.459   4.086  19.125  0.00  0.00    +0.000 C 
BRANCH  12  13
ATOM     13  N   UNL     1       2.518   3.191  19.643  0.00  0.00    +0.000 NA
BRANCH  13  15
ATOM     14  C   UNL     1       1.399   2.510  21.802  0.00  0.00    +0.000 C 
ATOM     15  C   UNL     1       2.541   3.255  21.115  0.00  0.00    +0.000 C 
ENDBRANCH  13  15
BRANCH  13  16
ATOM     16  C   UNL     1       2.461   1.821  19.107  0.00  0.00    +0.000 C 
ATOM     17  C   UNL     1       3.750   1.285  18.490  0.00  0.00    +0.000 C 
ENDBRANCH  13  16
ENDBRANCH  12  13
ENDBRANCH  11  12
ENDBRANCH  10  11
ENDBRANCH   1  10
TORSDOF 7
ENDMDL
MODEL 8
REMARK VINA RESULT:      -5.5      2.574      5.479
REMARK  Name = 
REMARK  11 active torsions:
REMARK  status: ('A' for Active; 'I' for Inactive)
REMARK    1  A    between atoms: C_1  and  C_2
REMARK    2  A    between atoms: C_2  and  N_3
REMARK    3  A    between atoms: N_3  and  C_4
REMARK    4  A    between atoms: N_3  and  C_6
REMARK    5  A    between atoms: C_4  and  C_5
REMARK    6  A    between atoms: C_6  and  C_7
REMARK    7  A    between atoms: C_7  and  O_8
REMARK    8  A    between atoms: O_8  and  C_9
REMARK    9  A    between atoms: C_13  and  C_14
REMARK   10  A    between atoms: C_14  and  C_15
REMARK   11  A    between atoms: C_14  and  C_16
REMARK                            x       y       z     vdW  Elec       q    Type
REMARK                         _______ _______ _______ _____ _____    ______ ____
ROOT
ATOM      1  C   UNL     1       4.512   4.571  16.745  0.00  0.00    +0.000 A 
ATOM      2  C   UNL     1       4.945   3.988  15.554  0.00  0.00    +0.000 A 
ATOM      3  C   UNL     1       6.280   4.084  15.165  0.00  0.00    +0.000 A 
ATOM      4  C   UNL     1       7.197   4.769  15.965  0.00  0.00    +0.000 A 
ATOM      5  C   UNL     1       6.787   5.364  17.164  0.00  0.00    +0.000 A 
ATOM      6  C   UNL     1       5.438   5.255  17.541  0.00  0.00    +0.000 A 
ENDROOT
BRANCH   5   7
ATOM      7  C   UNL     1       7.785   6.114  18.030  0.00  0.00    +0.000 C 
ATOM      8  C   UNL     1       7.713   7.626  17.787  0.00  0.00    +0.000 C 
ATOM      9  C   UNL     1       7.592   5.798  19.516  0.00  0.00    +0.000 C 
ENDBRANCH   5   7
BRANCH   1  10
ATOM     10  O   UNL     1       3.180   4.415  17.028  0.00  0.00    +0.000 OA
BRANCH  10  11
ATOM     11  C   UNL     1       2.862   3.361  17.947  0.00  0.00    +0.000 C 
BRANCH  11  12
ATOM     12  C   UNL     1       1.431   3.544  18.471  0.00  0.00    +0.000 C 
BRANCH  12  13
ATOM     13  N   UNL     1       1.339   4.088  19.846  0.00  0.00    +0.000 NA
BRANCH  13  15
ATOM     14  C   UNL     1       2.278   2.741  21.764  0.00  0.00    +0.000 C 
ATOM     15  C   UNL     1       1.121   2.986  20.799  0.00  0.00    +0.000 C 
ENDBRANCH  13  15
BRANCH  13  16
ATOM     16  C   UNL     1       2.450   4.983  20.211  0.00  0.00    +0.000 C 
ATOM     17  C   UNL     1       2.285   6.452  19.830  0.00  0.00    +0.000 C 
ENDBRANCH  13  16
ENDBRANCH  12  13
ENDBRANCH  11  12
ENDBRANCH  10  11
ENDBRANCH   1  10
TORSDOF 7
ENDMDL
MODEL 9
REMARK VINA RESULT:      -5.5      2.608      5.429
REMARK  Name = 
REMARK  11 active torsions:
REMARK  status: ('A' for Active; 'I' for Inactive)
REMARK    1  A    between atoms: C_1  and  C_2
REMARK    2  A    between atoms: C_2  and  N_3
REMARK    3  A    between atoms: N_3  and  C_4
REMARK    4  A    between atoms: N_3  and  C_6
REMARK    5  A    between atoms: C_4  and  C_5
REMARK    6  A    between atoms: C_6  and  C_7
REMARK    7  A    between atoms: C_7  and  O_8
REMARK    8  A    between atoms: O_8  and  C_9
REMARK    9  A    between atoms: C_13  and  C_14
REMARK   10  A    between atoms: C_14  and  C_15
REMARK   11  A    between atoms: C_14  and  C_16
REMARK                            x       y       z     vdW  Elec       q    Type
REMARK                         _______ _______ _______ _____ _____    ______ ____
ROOT
ATOM      1  C   UNL     1       4.487   4.096  18.247  0.00  0.00    +0.000 A 
ATOM      2  C   UNL     1       3.508   4.907  17.672  0.00  0.00    +0.000 A 
ATOM      3  C   UNL     1       3.836   6.170  17.183  0.00  0.00    +0.000 A 
ATOM      4  C   UNL     1       5.150   6.637  17.265  0.00  0.00    +0.000 A 
ATOM      5  C   UNL     1       6.150   5.842  17.839  0.00  0.00    +0.000 A 
ATOM      6  C   UNL     1       5.801   4.571  18.324  0.00  0.00    +0.000 A 
ENDROOT
BRANCH   5   7
ATOM      7  C   UNL     1       7.578   6.353  17.933  0.00  0.00    +0.000 C 
ATOM      8  C   UNL     1       7.660   7.848  17.609  0.00  0.00    +0.000 C 
ATOM      9  C   UNL     1       8.189   6.066  19.307  0.00  0.00    +0.000 C 
ENDBRANCH   5   7
BRANCH   1  10
ATOM     10  O   UNL     1       4.052   2.876  18.695  0.00  0.00    +0.000 OA
BRANCH  10  11
ATOM     11  C   UNL     1       4.043   2.707  20.120  0.00  0.00    +0.000 C 
BRANCH  11  12
ATOM     12  C   UNL     1       2.670   2.190  20.572  0.00  0.00    +0.000 C 
BRANCH  12  13
ATOM     13  N   UNL     1       1.670   3.247  20.847  0.00  0.00    +0.000 NA
BRANCH  13  15
ATOM     14  C   UNL     1       1.806   5.760  20.645  0.00  0.00    +0.000 C 
ATOM     15  C   UNL     1       2.359   4.480  21.267  0.00  0.00    +0.000 C 
ENDBRANCH  13  15
BRANCH  13  16
ATOM     16  C   UNL     1       0.696   3.447  19.761  0.00  0.00    +0.000 C 
ATOM     17  C   UNL     1       0.658   2.368  18.682  0.00  0.00    +0.000 C 
ENDBRANCH  13  16
ENDBRANCH  12  13
ENDBRANCH  11  12
ENDBRANCH  10  11
ENDBRANCH   1  10
TORSDOF 7
ENDMDL
