MODEL 1
REMARK VINA RESULT:      -6.4      0.000      0.000
REMARK  Name = 
REMARK  6 active torsions:
REMARK  status: ('A' for Active; 'I' for Inactive)
REMARK    1  A    between atoms: C_1  and  C_2
REMARK    2  A    between atoms: C_2  and  O_3
REMARK    3  A    between atoms: C_14  and  C_15
REMARK    4  A    between atoms: C_18  and  C_19
REMARK    5  A    between atoms: C_21  and  O_22
REMARK    6  A    between atoms: C_24  and  C_25
REMARK                            x       y       z     vdW  Elec       q    Type
REMARK                         _______ _______ _______ _____ _____    ______ ____
ROOT
ATOM      1  C   UNL     1      -0.169   8.005  21.063  0.00  0.00    +0.000 C 
ATOM      2  C   UNL     1       1.163   7.841  20.355  0.00  0.00    +0.000 C 
ATOM      3  C   UNL     1       1.250   8.804  19.167  0.00  0.00    +0.000 C 
ATOM      4  C   UNL     1       2.626   8.478  18.627  0.00  0.00    +0.000 C 
ATOM      5  C   UNL     1       2.552   6.967  18.586  0.00  0.00    +0.000 C 
ATOM      6  C   UNL     1       3.805   6.184  18.310  0.00  0.00    +0.000 C 
ATOM      7  C   UNL     1       4.798   6.936  17.453  0.00  0.00    +0.000 C 
ATOM      8  C   UNL     1       6.131   6.279  17.699  0.00  0.00    +0.000 C 
ATOM      9  C   UNL     1       6.120   4.810  17.404  0.00  0.00    +0.000 C 
ATOM     10  C   UNL     1       7.212   4.364  16.738  0.00  0.00    +0.000 C 
ATOM     11  C   UNL     1       6.979   4.782  15.312  0.00  0.00    +0.000 C 
ATOM     12  O   UNL     1       7.787   5.459  14.686  0.00  0.00    +0.000 OA
ATOM     13  C   UNL     1       5.717   4.258  14.732  0.00  0.00    +0.000 C 
ATOM     14  C   UNL     1       4.712   3.866  15.578  0.00  0.00    +0.000 C 
ATOM     15  C   UNL     1       4.744   4.062  17.133  0.00  0.00    +0.000 C 
ATOM     16  C   UNL     1       4.843   2.691  17.826  0.00  0.00    +0.000 C 
ATOM     17  C   UNL     1       3.405   4.862  17.625  0.00  0.00    +0.000 C 
ATOM     18  C   UNL     1       2.280   4.176  18.532  0.00  0.00    +0.000 C 
ATOM     19  C   UNL     1       1.132   5.169  19.180  0.00  0.00    +0.000 C 
ATOM     20  C   UNL     1       1.780   6.439  19.848  0.00  0.00    +0.000 C 
ATOM     21  C   UNL     1       2.545   5.857  21.078  0.00  0.00    +0.000 C 
ENDROOT
BRANCH   2  22
ATOM     22  O   UNL     1       2.123   8.371  21.327  0.00  0.00    +0.000 OA
ATOM     23  H   UNL     1       2.788   8.908  20.866  0.00  0.00    +0.000 HD
ENDBRANCH   2  22
BRANCH  13  24
ATOM     24  C   UNL     1       5.613   4.160  13.266  0.00  0.00    +0.000 C 
ATOM     25  O   UNL     1       6.238   3.358  12.581  0.00  0.00    +0.000 OA
ENDBRANCH  13  24
BRANCH  18  26
ATOM     26  O   UNL     1       1.631   3.131  17.807  0.00  0.00    +0.000 OA
ATOM     27  H   UNL     1       1.578   2.342  18.372  0.00  0.00    +0.000 HD
ENDBRANCH  18  26
TORSDOF 3
ENDMDL
MODEL 2
REMARK VINA RESULT:      -6.2      6.767     12.361
REMARK  Name = 
REMARK  6 active torsions:
REMARK  status: ('A' for Active; 'I' for Inactive)
REMARK    1  A    between atoms: C_1  and  C_2
REMARK    2  A    between atoms: C_2  and  O_3
REMARK    3  A    between atoms: C_14  and  C_15
REMARK    4  A    between atoms: C_18  and  C_19
REMARK    5  A    between atoms: C_21  and  O_22
REMARK    6  A    between atoms: C_24  and  C_25
REMARK                            x       y       z     vdW  Elec       q    Type
REMARK                         _______ _______ _______ _____ _____    ______ ____
ROOT
ATOM      1  C   UNL     1       1.327  10.164  18.392  0.00  0.00    +0.000 C 
ATOM      2  C   UNL     1       0.410  11.013  19.253  0.00  0.00    +0.000 C 
ATOM      3  C   UNL     1       0.345  10.442  20.673  0.00  0.00    +0.000 C 
ATOM      4  C   UNL     1      -0.596  11.423  21.339  0.00  0.00    +0.000 C 
ATOM      5  C   UNL     1      -1.707  11.474  20.313  0.00  0.00    +0.000 C 
ATOM      6  C   UNL     1      -2.785  12.512  20.456  0.00  0.00    +0.000 C 
ATOM      7  C   UNL     1      -3.036  12.912  21.893  0.00  0.00    +0.000 C 
ATOM      8  C   UNL     1      -3.713  14.256  21.832  0.00  0.00    +0.000 C 
ATOM      9  C   UNL     1      -4.970  14.238  21.016  0.00  0.00    +0.000 C 
ATOM     10  C   UNL     1      -6.004  14.921  21.565  0.00  0.00    +0.000 C 
ATOM     11  C   UNL     1      -6.533  14.007  22.635  0.00  0.00    +0.000 C 
ATOM     12  O   UNL     1      -6.645  14.359  23.803  0.00  0.00    +0.000 OA
ATOM     13  C   UNL     1      -6.948  12.673  22.132  0.00  0.00    +0.000 C 
ATOM     14  C   UNL     1      -6.437  12.225  20.942  0.00  0.00    +0.000 C 
ATOM     15  C   UNL     1      -5.325  12.970  20.126  0.00  0.00    +0.000 C 
ATOM     16  C   UNL     1      -5.918  13.507  18.810  0.00  0.00    +0.000 C 
ATOM     17  C   UNL     1      -4.077  11.957  19.826  0.00  0.00    +0.000 C 
ATOM     18  C   UNL     1      -3.711  11.459  18.350  0.00  0.00    +0.000 C 
ATOM     19  C   UNL     1      -2.274  10.669  18.160  0.00  0.00    +0.000 C 
ATOM     20  C   UNL     1      -1.096  11.439  18.866  0.00  0.00    +0.000 C 
ATOM     21  C   UNL     1      -0.950  12.743  18.019  0.00  0.00    +0.000 C 
ENDROOT
BRANCH   2  22
ATOM     22  O   UNL     1       1.157  12.266  19.396  0.00  0.00    +0.000 OA
ATOM     23  H   UNL     1       2.098  12.068  19.533  0.00  0.00    +0.000 HD
ENDBRANCH   2  22
BRANCH  13  24
ATOM     24  C   UNL     1      -7.914  11.898  22.930  0.00  0.00    +0.000 C 
ATOM     25  O   UNL     1      -7.606  11.155  23.855  0.00  0.00    +0.000 OA
ENDBRANCH  13  24
BRANCH  18  26
ATOM     26  O   UNL     1      -4.760  10.641  17.831  0.00  0.00    +0.000 OA
ATOM     27  H   UNL     1      -4.697  10.626  16.861  0.00  0.00    +0.000 HD
ENDBRANCH  18  26
TORSDOF 3
ENDMDL
MODEL 3
REMARK VINA RESULT:      -6.0      2.240      4.465
REMARK  Name = 
REMARK  6 active torsions:
REMARK  status: ('A' for Active; 'I' for Inactive)
REMARK    1  A    between atoms: C_1  and  C_2
REMARK    2  A    between atoms: C_2  and  O_3
REMARK    3  A    between atoms: C_14  and  C_15
REMARK    4  A    between atoms: C_18  and  C_19
REMARK    5  A    between atoms: C_21  and  O_22
REMARK    6  A    between atoms: C_24  and  C_25
REMARK                            x       y       z     vdW  Elec       q    Type
REMARK                         _______ _______ _______ _____ _____    ______ ____
ROOT
ATOM      1  C   UNL     1       0.839   2.144  22.382  0.00  0.00    +0.000 C 
ATOM      2  C   UNL     1       1.779   2.404  21.219  0.00  0.00    +0.000 C 
ATOM      3  C   UNL     1       3.209   2.008  21.601  0.00  0.00    +0.000 C 
ATOM      4  C   UNL     1       3.953   2.340  20.325  0.00  0.00    +0.000 C 
ATOM      5  C   UNL     1       3.422   3.731  20.053  0.00  0.00    +0.000 C 
ATOM      6  C   UNL     1       3.732   4.385  18.736  0.00  0.00    +0.000 C 
ATOM      7  C   UNL     1       5.043   3.924  18.139  0.00  0.00    +0.000 C 
ATOM      8  C   UNL     1       4.956   4.239  16.668  0.00  0.00    +0.000 C 
ATOM      9  C   UNL     1       4.683   5.688  16.398  0.00  0.00    +0.000 C 
ATOM     10  C   UNL     1       5.418   6.217  15.390  0.00  0.00    +0.000 C 
ATOM     11  C   UNL     1       6.773   6.453  15.998  0.00  0.00    +0.000 C 
ATOM     12  O   UNL     1       7.799   5.991  15.513  0.00  0.00    +0.000 OA
ATOM     13  C   UNL     1       6.749   7.332  17.194  0.00  0.00    +0.000 C 
ATOM     14  C   UNL     1       5.576   7.473  17.889  0.00  0.00    +0.000 C 
ATOM     15  C   UNL     1       4.272   6.657  17.588  0.00  0.00    +0.000 C 
ATOM     16  C   UNL     1       3.186   7.599  17.036  0.00  0.00    +0.000 C 
ATOM     17  C   UNL     1       3.752   5.911  18.948  0.00  0.00    +0.000 C 
ATOM     18  C   UNL     1       2.385   6.310  19.677  0.00  0.00    +0.000 C 
ATOM     19  C   UNL     1       1.849   5.300  20.868  0.00  0.00    +0.000 C 
ATOM     20  C   UNL     1       1.894   3.795  20.410  0.00  0.00    +0.000 C 
ATOM     21  C   UNL     1       0.800   3.716  19.298  0.00  0.00    +0.000 C 
ENDROOT
BRANCH   2  22
ATOM     22  O   UNL     1       1.372   1.400  20.233  0.00  0.00    +0.000 OA
ATOM     23  H   UNL     1       1.654   0.519  20.531  0.00  0.00    +0.000 HD
ENDBRANCH   2  22
BRANCH  13  24
ATOM     24  C   UNL     1       7.990   8.033  17.567  0.00  0.00    +0.000 C 
ATOM     25  O   UNL     1       8.042   9.209  17.908  0.00  0.00    +0.000 OA
ENDBRANCH  13  24
BRANCH  18  26
ATOM     26  O   UNL     1       2.472   7.635  20.199  0.00  0.00    +0.000 OA
ATOM     27  H   UNL     1       3.239   7.690  20.793  0.00  0.00    +0.000 HD
ENDBRANCH  18  26
TORSDOF 3
ENDMDL
MODEL 4
REMARK VINA RESULT:      -5.9      9.363     12.521
REMARK  Name = 
REMARK  6 active torsions:
REMARK  status: ('A' for Active; 'I' for Inactive)
REMARK    1  A    between atoms: C_1  and  C_2
REMARK    2  A    between atoms: C_2  and  O_3
REMARK    3  A    between atoms: C_14  and  C_15
REMARK    4  A    between atoms: C_18  and  C_19
REMARK    5  A    between atoms: C_21  and  O_22
REMARK    6  A    between atoms: C_24  and  C_25
REMARK                            x       y       z     vdW  Elec       q    Type
REMARK                         _______ _______ _______ _____ _____    ______ ____
ROOT
ATOM      1  C   UNL     1      11.759  12.759  16.946  0.00  0.00    +0.000 C 
ATOM      2  C   UNL     1      11.098  13.554  18.057  0.00  0.00    +0.000 C 
ATOM      3  C   UNL     1      12.154  14.335  18.846  0.00  0.00    +0.000 C 
ATOM      4  C   UNL     1      11.290  15.038  19.871  0.00  0.00    +0.000 C 
ATOM      5  C   UNL     1      10.446  13.880  20.357  0.00  0.00    +0.000 C 
ATOM      6  C   UNL     1       9.270  14.160  21.250  0.00  0.00    +0.000 C 
ATOM      7  C   UNL     1       9.452  15.398  22.099  0.00  0.00    +0.000 C 
ATOM      8  C   UNL     1       8.065  15.819  22.512  0.00  0.00    +0.000 C 
ATOM      9  C   UNL     1       7.319  14.737  23.232  0.00  0.00    +0.000 C 
ATOM     10  C   UNL     1       6.627  15.161  24.317  0.00  0.00    +0.000 C 
ATOM     11  C   UNL     1       7.671  15.328  25.386  0.00  0.00    +0.000 C 
ATOM     12  O   UNL     1       7.826  16.382  25.993  0.00  0.00    +0.000 OA
ATOM     13  C   UNL     1       8.447  14.094  25.665  0.00  0.00    +0.000 C 
ATOM     14  C   UNL     1       8.497  13.113  24.709  0.00  0.00    +0.000 C 
ATOM     15  C   UNL     1       7.897  13.257  23.268  0.00  0.00    +0.000 C 
ATOM     16  C   UNL     1       6.695  12.309  23.109  0.00  0.00    +0.000 C 
ATOM     17  C   UNL     1       9.043  12.928  22.148  0.00  0.00    +0.000 C 
ATOM     18  C   UNL     1       8.967  11.648  21.192  0.00  0.00    +0.000 C 
ATOM     19  C   UNL     1      10.033  11.588  19.933  0.00  0.00    +0.000 C 
ATOM     20  C   UNL     1      10.072  12.951  19.147  0.00  0.00    +0.000 C 
ATOM     21  C   UNL     1       8.665  13.027  18.474  0.00  0.00    +0.000 C 
ENDROOT
BRANCH   2  22
ATOM     22  O   UNL     1      10.349  14.582  17.329  0.00  0.00    +0.000 OA
ATOM     23  H   UNL     1      10.423  15.429  17.799  0.00  0.00    +0.000 HD
ENDBRANCH   2  22
BRANCH  13  24
ATOM     24  C   UNL     1       9.114  13.972  26.973  0.00  0.00    +0.000 C 
ATOM     25  O   UNL     1      10.213  14.447  27.235  0.00  0.00    +0.000 OA
ENDBRANCH  13  24
BRANCH  18  26
ATOM     26  O   UNL     1       9.090  10.450  21.959  0.00  0.00    +0.000 OA
ATOM     27  H   UNL     1      10.024  10.321  22.194  0.00  0.00    +0.000 HD
ENDBRANCH  18  26
TORSDOF 3
ENDMDL
MODEL 5
REMARK VINA RESULT:      -5.9      7.742     11.779
REMARK  Name = 
REMARK  6 active torsions:
REMARK  status: ('A' for Active; 'I' for Inactive)
REMARK    1  A    between atoms: C_1  and  C_2
REMARK    2  A    between atoms: C_2  and  O_3
REMARK    3  A    between atoms: C_14  and  C_15
REMARK    4  A    between atoms: C_18  and  C_19
REMARK    5  A    between atoms: C_21  and  O_22
REMARK    6  A    between atoms: C_24  and  C_25
REMARK                            x       y       z     vdW  Elec       q    Type
REMARK                         _______ _______ _______ _____ _____    ______ ____
ROOT
ATOM      1  C   UNL     1       2.110  11.890  18.800  0.00  0.00    +0.000 C 
ATOM      2  C   UNL     1       0.772  12.267  19.409  0.00  0.00    +0.000 C 
ATOM      3  C   UNL     1       0.587  11.558  20.754  0.00  0.00    +0.000 C 
ATOM      4  C   UNL     1      -0.774  12.071  21.170  0.00  0.00    +0.000 C 
ATOM      5  C   UNL     1      -1.553  11.844  19.893  0.00  0.00    +0.000 C 
ATOM      6  C   UNL     1      -2.936  12.419  19.770  0.00  0.00    +0.000 C 
ATOM      7  C   UNL     1      -3.646  12.547  21.099  0.00  0.00    +0.000 C 
ATOM      8  C   UNL     1      -4.732  13.569  20.887  0.00  0.00    +0.000 C 
ATOM      9  C   UNL     1      -5.666  13.204  19.774  0.00  0.00    +0.000 C 
ATOM     10  C   UNL     1      -6.976  13.420  20.048  0.00  0.00    +0.000 C 
ATOM     11  C   UNL     1      -7.370  12.268  20.929  0.00  0.00    +0.000 C 
ATOM     12  O   UNL     1      -7.874  12.429  22.035  0.00  0.00    +0.000 OA
ATOM     13  C   UNL     1      -7.140  10.936  20.315  0.00  0.00    +0.000 C 
ATOM     14  C   UNL     1      -6.237  10.827  19.290  0.00  0.00    +0.000 C 
ATOM     15  C   UNL     1      -5.315  11.997  18.801  0.00  0.00    +0.000 C 
ATOM     16  C   UNL     1      -5.735  12.433  17.386  0.00  0.00    +0.000 C 
ATOM     17  C   UNL     1      -3.750  11.521  18.818  0.00  0.00    +0.000 C 
ATOM     18  C   UNL     1      -2.892  11.345  17.478  0.00  0.00    +0.000 C 
ATOM     19  C   UNL     1      -1.264  11.132  17.654  0.00  0.00    +0.000 C 
ATOM     20  C   UNL     1      -0.650  12.182  18.653  0.00  0.00    +0.000 C 
ATOM     21  C   UNL     1      -0.795  13.539  17.894  0.00  0.00    +0.000 C 
ENDROOT
BRANCH   2  22
ATOM     22  O   UNL     1       0.954  13.678  19.761  0.00  0.00    +0.000 OA
ATOM     23  H   UNL     1       0.118  14.038  20.101  0.00  0.00    +0.000 HD
ENDBRANCH   2  22
BRANCH  13  24
ATOM     24  C   UNL     1      -7.915   9.791  20.823  0.00  0.00    +0.000 C 
ATOM     25  O   UNL     1      -7.517   8.632  20.821  0.00  0.00    +0.000 OA
ENDBRANCH  13  24
BRANCH  18  26
ATOM     26  O   UNL     1      -3.417  10.275  16.693  0.00  0.00    +0.000 OA
ATOM     27  H   UNL     1      -4.120  10.622  16.118  0.00  0.00    +0.000 HD
ENDBRANCH  18  26
TORSDOF 3
ENDMDL
MODEL 6
REMARK VINA RESULT:      -5.9      7.935     10.795
REMARK  Name = 
REMARK  6 active torsions:
REMARK  status: ('A' for Active; 'I' for Inactive)
REMARK    1  A    between atoms: C_1  and  C_2
REMARK    2  A    between atoms: C_2  and  O_3
REMARK    3  A    between atoms: C_14  and  C_15
REMARK    4  A    between atoms: C_18  and  C_19
REMARK    5  A    between atoms: C_21  and  O_22
REMARK    6  A    between atoms: C_24  and  C_25
REMARK                            x       y       z     vdW  Elec       q    Type
REMARK                         _______ _______ _______ _____ _____    ______ ____
ROOT
ATOM      1  C   UNL     1       5.564  17.095  18.801  0.00  0.00    +0.000 C 
ATOM      2  C   UNL     1       4.315  16.688  19.562  0.00  0.00    +0.000 C 
ATOM      3  C   UNL     1       4.663  16.389  21.024  0.00  0.00    +0.000 C 
ATOM      4  C   UNL     1       3.304  16.019  21.577  0.00  0.00    +0.000 C 
ATOM      5  C   UNL     1       2.838  15.039  20.522  0.00  0.00    +0.000 C 
ATOM      6  C   UNL     1       1.412  14.565  20.546  0.00  0.00    +0.000 C 
ATOM      7  C   UNL     1       0.816  14.550  21.937  0.00  0.00    +0.000 C 
ATOM      8  C   UNL     1      -0.678  14.568  21.742  0.00  0.00    +0.000 C 
ATOM      9  C   UNL     1      -1.169  13.431  20.898  0.00  0.00    +0.000 C 
ATOM     10  C   UNL     1      -2.297  12.838  21.358  0.00  0.00    +0.000 C 
ATOM     11  C   UNL     1      -1.828  11.965  22.489  0.00  0.00    +0.000 C 
ATOM     12  O   UNL     1      -2.294  12.048  23.619  0.00  0.00    +0.000 OA
ATOM     13  C   UNL     1      -0.797  10.973  22.092  0.00  0.00    +0.000 C 
ATOM     14  C   UNL     1      -0.061  11.200  20.959  0.00  0.00    +0.000 C 
ATOM     15  C   UNL     1      -0.134  12.517  20.111  0.00  0.00    +0.000 C 
ATOM     16  C   UNL     1      -0.764  12.216  18.739  0.00  0.00    +0.000 C 
ATOM     17  C   UNL     1       1.363  13.152  19.933  0.00  0.00    +0.000 C 
ATOM     18  C   UNL     1       2.103  13.222  18.515  0.00  0.00    +0.000 C 
ATOM     19  C   UNL     1       3.479  14.130  18.432  0.00  0.00    +0.000 C 
ATOM     20  C   UNL     1       3.278  15.541  19.100  0.00  0.00    +0.000 C 
ATOM     21  C   UNL     1       2.269  16.258  18.148  0.00  0.00    +0.000 C 
ENDROOT
BRANCH   2  22
ATOM     22  O   UNL     1       3.540  17.930  19.616  0.00  0.00    +0.000 OA
ATOM     23  H   UNL     1       2.779  17.863  19.015  0.00  0.00    +0.000 HD
ENDBRANCH   2  22
BRANCH  13  24
ATOM     24  C   UNL     1      -0.628   9.772  22.929  0.00  0.00    +0.000 C 
ATOM     25  O   UNL     1       0.262   9.629  23.760  0.00  0.00    +0.000 OA
ENDBRANCH  13  24
BRANCH  18  26
ATOM     26  O   UNL     1       2.388  11.906  18.042  0.00  0.00    +0.000 OA
ATOM     27  H   UNL     1       1.614  11.570  17.559  0.00  0.00    +0.000 HD
ENDBRANCH  18  26
TORSDOF 3
ENDMDL
MODEL 7
REMARK VINA RESULT:      -5.9      5.740      9.723
REMARK  Name = 
REMARK  6 active torsions:
REMARK  status: ('A' for Active; 'I' for Inactive)
REMARK    1  A    between atoms: C_1  and  C_2
REMARK    2  A    between atoms: C_2  and  O_3
REMARK    3  A    between atoms: C_14  and  C_15
REMARK    4  A    between atoms: C_18  and  C_19
REMARK    5  A    between atoms: C_21  and  O_22
REMARK    6  A    between atoms: C_24  and  C_25
REMARK                            x       y       z     vdW  Elec       q    Type
REMARK                         _______ _______ _______ _____ _____    ______ ____
ROOT
ATOM      1  C   UNL     1      -7.624  13.782  20.638  0.00  0.00    +0.000 C 
ATOM      2  C   UNL     1      -6.320  13.447  19.938  0.00  0.00    +0.000 C 
ATOM      3  C   UNL     1      -6.463  12.133  19.163  0.00  0.00    +0.000 C 
ATOM      4  C   UNL     1      -5.082  12.001  18.556  0.00  0.00    +0.000 C 
ATOM      5  C   UNL     1      -4.223  12.266  19.774  0.00  0.00    +0.000 C 
ATOM      6  C   UNL     1      -2.743  12.454  19.595  0.00  0.00    +0.000 C 
ATOM      7  C   UNL     1      -2.190  11.705  18.403  0.00  0.00    +0.000 C 
ATOM      8  C   UNL     1      -0.887  12.381  18.063  0.00  0.00    +0.000 C 
ATOM      9  C   UNL     1       0.072  12.409  19.214  0.00  0.00    +0.000 C 
ATOM     10  C   UNL     1       1.353  12.118  18.883  0.00  0.00    +0.000 C 
ATOM     11  C   UNL     1       1.373  10.622  18.738  0.00  0.00    +0.000 C 
ATOM     12  O   UNL     1       1.761  10.066  17.717  0.00  0.00    +0.000 OA
ATOM     13  C   UNL     1       0.931   9.895  19.954  0.00  0.00    +0.000 C 
ATOM     14  C   UNL     1       0.157  10.553  20.875  0.00  0.00    +0.000 C 
ATOM     15  C   UNL     1      -0.417  11.998  20.669  0.00  0.00    +0.000 C 
ATOM     16  C   UNL     1       0.259  12.969  21.654  0.00  0.00    +0.000 C 
ATOM     17  C   UNL     1      -2.038  11.992  20.886  0.00  0.00    +0.000 C 
ATOM     18  C   UNL     1      -2.744  12.744  22.109  0.00  0.00    +0.000 C 
ATOM     19  C   UNL     1      -4.388  12.889  22.052  0.00  0.00    +0.000 C 
ATOM     20  C   UNL     1      -4.871  13.402  20.644  0.00  0.00    +0.000 C 
ATOM     21  C   UNL     1      -4.338  14.868  20.584  0.00  0.00    +0.000 C 
ENDROOT
BRANCH   2  22
ATOM     22  O   UNL     1      -6.227  14.476  18.899  0.00  0.00    +0.000 OA
ATOM     23  H   UNL     1      -6.461  15.340  19.277  0.00  0.00    +0.000 HD
ENDBRANCH   2  22
BRANCH  13  24
ATOM     24  C   UNL     1       1.365   8.498  20.127  0.00  0.00    +0.000 C 
ATOM     25  O   UNL     1       1.063   7.794  21.085  0.00  0.00    +0.000 OA
ENDBRANCH  13  24
BRANCH  18  26
ATOM     26  O   UNL     1      -2.377  12.129  23.344  0.00  0.00    +0.000 OA
ATOM     27  H   UNL     1      -3.158  11.689  23.721  0.00  0.00    +0.000 HD
ENDBRANCH  18  26
TORSDOF 3
ENDMDL
MODEL 8
REMARK VINA RESULT:      -5.8      5.769     11.429
REMARK  Name = 
REMARK  6 active torsions:
REMARK  status: ('A' for Active; 'I' for Inactive)
REMARK    1  A    between atoms: C_1  and  C_2
REMARK    2  A    between atoms: C_2  and  O_3
REMARK    3  A    between atoms: C_14  and  C_15
REMARK    4  A    between atoms: C_18  and  C_19
REMARK    5  A    between atoms: C_21  and  O_22
REMARK    6  A    between atoms: C_24  and  C_25
REMARK                            x       y       z     vdW  Elec       q    Type
REMARK                         _______ _______ _______ _____ _____    ______ ____
ROOT
ATOM      1  C   UNL     1       1.886   8.791  18.215  0.00  0.00    +0.000 C 
ATOM      2  C   UNL     1       1.090  10.040  18.548  0.00  0.00    +0.000 C 
ATOM      3  C   UNL     1       1.982  11.279  18.427  0.00  0.00    +0.000 C 
ATOM      4  C   UNL     1       1.006  12.378  18.789  0.00  0.00    +0.000 C 
ATOM      5  C   UNL     1       0.399  11.798  20.048  0.00  0.00    +0.000 C 
ATOM      6  C   UNL     1      -0.805  12.466  20.652  0.00  0.00    +0.000 C 
ATOM      7  C   UNL     1      -0.857  13.952  20.378  0.00  0.00    +0.000 C 
ATOM      8  C   UNL     1      -2.297  14.353  20.571  0.00  0.00    +0.000 C 
ATOM      9  C   UNL     1      -2.821  14.004  21.931  0.00  0.00    +0.000 C 
ATOM     10  C   UNL     1      -3.576  14.972  22.505  0.00  0.00    +0.000 C 
ATOM     11  C   UNL     1      -2.578  15.978  23.008  0.00  0.00    +0.000 C 
ATOM     12  O   UNL     1      -2.622  17.161  22.692  0.00  0.00    +0.000 OA
ATOM     13  C   UNL     1      -1.580  15.413  23.951  0.00  0.00    +0.000 C 
ATOM     14  C   UNL     1      -1.350  14.062  23.941  0.00  0.00    +0.000 C 
ATOM     15  C   UNL     1      -1.973  13.071  22.897  0.00  0.00    +0.000 C 
ATOM     16  C   UNL     1      -2.974  12.138  23.602  0.00  0.00    +0.000 C 
ATOM     17  C   UNL     1      -0.790  12.206  22.171  0.00  0.00    +0.000 C 
ATOM     18  C   UNL     1      -0.626  10.628  22.383  0.00  0.00    +0.000 C 
ATOM     19  C   UNL     1       0.427   9.843  21.383  0.00  0.00    +0.000 C 
ATOM     20  C   UNL     1       0.203  10.249  19.879  0.00  0.00    +0.000 C 
ATOM     21  C   UNL     1      -1.196   9.644  19.540  0.00  0.00    +0.000 C 
ENDROOT
BRANCH   2  22
ATOM     22  O   UNL     1       0.157  10.148  17.424  0.00  0.00    +0.000 OA
ATOM     23  H   UNL     1      -0.009  11.086  17.230  0.00  0.00    +0.000 HD
ENDBRANCH   2  22
BRANCH  13  24
ATOM     24  C   UNL     1      -0.896  16.334  24.875  0.00  0.00    +0.000 C 
ATOM     25  O   UNL     1      -0.005  16.001  25.648  0.00  0.00    +0.000 OA
ENDBRANCH  13  24
BRANCH  18  26
ATOM     26  O   UNL     1      -0.275  10.346  23.738  0.00  0.00    +0.000 OA
ATOM     27  H   UNL     1       0.127   9.462  23.781  0.00  0.00    +0.000 HD
ENDBRANCH  18  26
TORSDOF 3
ENDMDL
MODEL 9
REMARK VINA RESULT:      -5.8      6.400     12.035
REMARK  Name = 
REMARK  6 active torsions:
REMARK  status: ('A' for Active; 'I' for Inactive)
REMARK    1  A    between atoms: C_1  and  C_2
REMARK    2  A    between atoms: C_2  and  O_3
REMARK    3  A    between atoms: C_14  and  C_15
REMARK    4  A    between atoms: C_18  and  C_19
REMARK    5  A    between atoms: C_21  and  O_22
REMARK    6  A    between atoms: C_24  and  C_25
REMARK                            x       y       z     vdW  Elec       q    Type
REMARK                         _______ _______ _______ _____ _____    ______ ____
ROOT
ATOM      1  C   UNL     1       1.361   8.184  20.699  0.00  0.00    +0.000 C 
ATOM      2  C   UNL     1       0.781   9.331  21.507  0.00  0.00    +0.000 C 
ATOM      3  C   UNL     1      -0.324   8.816  22.434  0.00  0.00    +0.000 C 
ATOM      4  C   UNL     1      -0.743  10.094  23.126  0.00  0.00    +0.000 C 
ATOM      5  C   UNL     1      -0.894  11.014  21.934  0.00  0.00    +0.000 C 
ATOM      6  C   UNL     1      -1.095  12.485  22.168  0.00  0.00    +0.000 C 
ATOM      7  C   UNL     1      -1.795  12.787  23.474  0.00  0.00    +0.000 C 
ATOM      8  C   UNL     1      -1.461  14.220  23.795  0.00  0.00    +0.000 C 
ATOM      9  C   UNL     1      -1.855  15.169  22.703  0.00  0.00    +0.000 C 
ATOM     10  C   UNL     1      -2.437  16.313  23.138  0.00  0.00    +0.000 C 
ATOM     11  C   UNL     1      -3.847  15.912  23.474  0.00  0.00    +0.000 C 
ATOM     12  O   UNL     1      -4.341  16.114  24.577  0.00  0.00    +0.000 OA
ATOM     13  C   UNL     1      -4.585  15.306  22.338  0.00  0.00    +0.000 C 
ATOM     14  C   UNL     1      -3.874  14.762  21.300  0.00  0.00    +0.000 C 
ATOM     15  C   UNL     1      -2.313  14.609  21.288  0.00  0.00    +0.000 C 
ATOM     16  C   UNL     1      -1.709  15.546  20.226  0.00  0.00    +0.000 C 
ATOM     17  C   UNL     1      -1.905  13.054  20.987  0.00  0.00    +0.000 C 
ATOM     18  C   UNL     1      -1.165  12.607  19.641  0.00  0.00    +0.000 C 
ATOM     19  C   UNL     1      -0.569  11.068  19.589  0.00  0.00    +0.000 C 
ATOM     20  C   UNL     1       0.245  10.722  20.892  0.00  0.00    +0.000 C 
ATOM     21  C   UNL     1       1.504  11.641  20.793  0.00  0.00    +0.000 C 
ENDROOT
BRANCH   2  22
ATOM     22  O   UNL     1       1.879   9.689  22.409  0.00  0.00    +0.000 OA
ATOM     23  H   UNL     1       1.560   9.680  23.327  0.00  0.00    +0.000 HD
ENDBRANCH   2  22
BRANCH  13  24
ATOM     24  C   UNL     1      -6.057  15.338  22.369  0.00  0.00    +0.000 C 
ATOM     25  O   UNL     1      -6.762  14.384  22.680  0.00  0.00    +0.000 OA
ENDBRANCH  13  24
BRANCH  18  26
ATOM     26  O   UNL     1      -2.021  12.809  18.516  0.00  0.00    +0.000 OA
ATOM     27  H   UNL     1      -1.483  12.802  17.706  0.00  0.00    +0.000 HD
ENDBRANCH  18  26
TORSDOF 3
ENDMDL
