MODEL 1
REMARK VINA RESULT:      -8.4      0.000      0.000
REMARK  Name = 
REMARK  6 active torsions:
REMARK  status: ('A' for Active; 'I' for Inactive)
REMARK    1  A    between atoms: C_2  and  C_19
REMARK    2  A    between atoms: N_3  and  C_4
REMARK    3  A    between atoms: C_4  and  C_5
REMARK    4  A    between atoms: C_5  and  O_6
REMARK    5  A    between atoms: O_6  and  C_7
REMARK    6  A    between atoms: C_7  and  C_9
REMARK                            x       y       z     vdW  Elec       q    Type
REMARK                         _______ _______ _______ _____ _____    ______ ____
ROOT
ATOM      1  C   UNL     1       8.763  10.363  18.822  0.00  0.00    +0.000 C 
ENDROOT
BRANCH   1   4
ATOM      2  O   UNL     1       9.073  12.812  17.477  0.00  0.00    +0.000 OA
ATOM      3  C   UNL     1      10.083  12.167  17.761  0.00  0.00    +0.000 C 
ATOM      4  N   UNL     1      10.024  10.983  18.461  0.00  0.00    +0.000 N 
ATOM      5  H   UNL     1      10.891  10.488  18.651  0.00  0.00    +0.000 HD
BRANCH   3   6
ATOM      6  C   UNL     1      11.511  12.662  17.455  0.00  0.00    +0.000 C 
ATOM      7  C   UNL     1      12.331  12.831  18.732  0.00  0.00    +0.000 C 
ATOM      8  O   UNL     1      11.828  13.894  19.553  0.00  0.00    +0.000 OA
ATOM      9  C   UNL     1      11.469  14.989  18.815  0.00  0.00    +0.000 A 
ATOM     10  C   UNL     1      11.175  16.151  19.525  0.00  0.00    +0.000 A 
ATOM     11  C   UNL     1      10.823  17.316  18.840  0.00  0.00    +0.000 A 
ATOM     12  C   UNL     1      10.776  17.317  17.445  0.00  0.00    +0.000 A 
ATOM     13  C   UNL     1      11.052  16.149  16.734  0.00  0.00    +0.000 A 
ATOM     14  C   UNL     1      11.369  14.978  17.421  0.00  0.00    +0.000 A 
ATOM     15  O   UNL     1      11.548  13.851  16.662  0.00  0.00    +0.000 OA
ENDBRANCH   3   6
ENDBRANCH   1   4
BRANCH   1  16
ATOM     16  C   UNL     1       8.294   9.283  17.838  0.00  0.00    +0.000 C 
BRANCH  16  17
ATOM     17  O   UNL     1       8.315   7.986  18.472  0.00  0.00    +0.000 OA
BRANCH  17  18
ATOM     18  C   UNL     1       7.584   7.023  17.837  0.00  0.00    +0.000 C 
ATOM     19  O   UNL     1       6.973   7.212  16.791  0.00  0.00    +0.000 OA
BRANCH  18  20
ATOM     20  C   UNL     1       7.601   5.711  18.627  0.00  0.00    +0.000 C 
ATOM     21  C   UNL     1       7.671   4.501  17.702  0.00  0.00    +0.000 C 
ATOM     22  O   UNL     1       6.495   4.378  16.892  0.00  0.00    +0.000 OA
ATOM     23  C   UNL     1       5.352   4.616  17.610  0.00  0.00    +0.000 A 
ATOM     24  C   UNL     1       4.145   4.293  16.991  0.00  0.00    +0.000 A 
ATOM     25  C   UNL     1       2.939   4.505  17.662  0.00  0.00    +0.000 A 
ATOM     26  C   UNL     1       2.944   5.036  18.954  0.00  0.00    +0.000 A 
ATOM     27  C   UNL     1       4.151   5.372  19.568  0.00  0.00    +0.000 A 
ATOM     28  C   UNL     1       5.353   5.180  18.888  0.00  0.00    +0.000 A 
ATOM     29  O   UNL     1       6.496   5.582  19.529  0.00  0.00    +0.000 OA
ENDBRANCH  18  20
ENDBRANCH  17  18
ENDBRANCH  16  17
ENDBRANCH   1  16
TORSDOF 6
ENDMDL
MODEL 2
REMARK VINA RESULT:      -8.4      0.790     10.518
REMARK  Name = 
REMARK  6 active torsions:
REMARK  status: ('A' for Active; 'I' for Inactive)
REMARK    1  A    between atoms: C_2  and  C_19
REMARK    2  A    between atoms: N_3  and  C_4
REMARK    3  A    between atoms: C_4  and  C_5
REMARK    4  A    between atoms: C_5  and  O_6
REMARK    5  A    between atoms: O_6  and  C_7
REMARK    6  A    between atoms: C_7  and  C_9
REMARK                            x       y       z     vdW  Elec       q    Type
REMARK                         _______ _______ _______ _____ _____    ______ ____
ROOT
ATOM      1  C   UNL     1       8.444   9.374  17.954  0.00  0.00    +0.000 C 
ENDROOT
BRANCH   1   4
ATOM      2  O   UNL     1       7.114   7.194  16.777  0.00  0.00    +0.000 OA
ATOM      3  C   UNL     1       7.621   7.041  17.889  0.00  0.00    +0.000 C 
ATOM      4  N   UNL     1       8.333   8.041  18.515  0.00  0.00    +0.000 N 
ATOM      5  H   UNL     1       8.714   7.859  19.438  0.00  0.00    +0.000 HD
BRANCH   3   6
ATOM      6  C   UNL     1       7.603   5.697  18.644  0.00  0.00    +0.000 C 
ATOM      7  C   UNL     1       7.663   4.513  17.682  0.00  0.00    +0.000 C 
ATOM      8  O   UNL     1       6.475   4.411  16.886  0.00  0.00    +0.000 OA
ATOM      9  C   UNL     1       5.343   4.647  17.617  0.00  0.00    +0.000 A 
ATOM     10  C   UNL     1       4.128   4.361  16.996  0.00  0.00    +0.000 A 
ATOM     11  C   UNL     1       2.931   4.556  17.688  0.00  0.00    +0.000 A 
ATOM     12  C   UNL     1       2.952   5.027  19.002  0.00  0.00    +0.000 A 
ATOM     13  C   UNL     1       4.167   5.331  19.617  0.00  0.00    +0.000 A 
ATOM     14  C   UNL     1       5.359   5.169  18.914  0.00  0.00    +0.000 A 
ATOM     15  O   UNL     1       6.506   5.564  19.551  0.00  0.00    +0.000 OA
ENDBRANCH   3   6
ENDBRANCH   1   4
BRANCH   1  16
ATOM     16  C   UNL     1       8.808  10.454  18.980  0.00  0.00    +0.000 C 
BRANCH  16  17
ATOM     17  O   UNL     1      10.074  11.060  18.639  0.00  0.00    +0.000 OA
BRANCH  17  18
ATOM     18  C   UNL     1       9.990  12.150  17.820  0.00  0.00    +0.000 C 
ATOM     19  O   UNL     1       8.931  12.665  17.481  0.00  0.00    +0.000 OA
BRANCH  18  20
ATOM     20  C   UNL     1      11.380  12.599  17.360  0.00  0.00    +0.000 C 
ATOM     21  C   UNL     1      12.326  12.790  18.540  0.00  0.00    +0.000 C 
ATOM     22  O   UNL     1      11.905  13.859  19.396  0.00  0.00    +0.000 OA
ATOM     23  C   UNL     1      11.485  14.951  18.682  0.00  0.00    +0.000 A 
ATOM     24  C   UNL     1      11.280  16.128  19.401  0.00  0.00    +0.000 A 
ATOM     25  C   UNL     1      10.855  17.282  18.741  0.00  0.00    +0.000 A 
ATOM     26  C   UNL     1      10.639  17.257  17.360  0.00  0.00    +0.000 A 
ATOM     27  C   UNL     1      10.831  16.076  16.644  0.00  0.00    +0.000 A 
ATOM     28  C   UNL     1      11.235  14.919  17.308  0.00  0.00    +0.000 A 
ATOM     29  O   UNL     1      11.351  13.781  16.552  0.00  0.00    +0.000 OA
ENDBRANCH  18  20
ENDBRANCH  17  18
ENDBRANCH  16  17
ENDBRANCH   1  16
TORSDOF 6
ENDMDL
MODEL 3
REMARK VINA RESULT:      -8.4      7.297     10.382
REMARK  Name = 
REMARK  6 active torsions:
REMARK  status: ('A' for Active; 'I' for Inactive)
REMARK    1  A    between atoms: C_2  and  C_19
REMARK    2  A    between atoms: N_3  and  C_4
REMARK    3  A    between atoms: C_4  and  C_5
REMARK    4  A    between atoms: C_5  and  O_6
REMARK    5  A    between atoms: O_6  and  C_7
REMARK    6  A    between atoms: C_7  and  C_9
REMARK                            x       y       z     vdW  Elec       q    Type
REMARK                         _______ _______ _______ _____ _____    ______ ____
ROOT
ATOM      1  C   UNL     1       1.735   5.903  20.398  0.00  0.00    +0.000 C 
ENDROOT
BRANCH   1   4
ATOM      2  O   UNL     1       1.556   4.537  17.947  0.00  0.00    +0.000 OA
ATOM      3  C   UNL     1       2.406   4.172  18.761  0.00  0.00    +0.000 C 
ATOM      4  N   UNL     1       2.594   4.816  19.963  0.00  0.00    +0.000 N 
ATOM      5  H   UNL     1       3.300   4.459  20.600  0.00  0.00    +0.000 HD
BRANCH   3   6
ATOM      6  C   UNL     1       3.406   3.034  18.479  0.00  0.00    +0.000 C 
ATOM      7  C   UNL     1       4.523   2.998  19.519  0.00  0.00    +0.000 C 
ATOM      8  O   UNL     1       5.370   4.152  19.433  0.00  0.00    +0.000 OA
ATOM      9  C   UNL     1       5.647   4.492  18.137  0.00  0.00    +0.000 A 
ATOM     10  C   UNL     1       6.631   5.458  17.942  0.00  0.00    +0.000 A 
ATOM     11  C   UNL     1       6.984   5.841  16.646  0.00  0.00    +0.000 A 
ATOM     12  C   UNL     1       6.359   5.248  15.549  0.00  0.00    +0.000 A 
ATOM     13  C   UNL     1       5.360   4.293  15.744  0.00  0.00    +0.000 A 
ATOM     14  C   UNL     1       4.984   3.938  17.038  0.00  0.00    +0.000 A 
ATOM     15  O   UNL     1       3.942   3.056  17.154  0.00  0.00    +0.000 OA
ENDBRANCH   3   6
ENDBRANCH   1   4
BRANCH   1  16
ATOM     16  C   UNL     1       2.195   7.288  19.928  0.00  0.00    +0.000 C 
BRANCH  16  17
ATOM     17  O   UNL     1       1.754   8.303  20.856  0.00  0.00    +0.000 OA
BRANCH  17  18
ATOM     18  C   UNL     1       0.703   9.061  20.423  0.00  0.00    +0.000 C 
ATOM     19  O   UNL     1      -0.405   9.048  20.945  0.00  0.00    +0.000 OA
BRANCH  18  20
ATOM     20  C   UNL     1       1.091   9.881  19.189  0.00  0.00    +0.000 C 
ATOM     21  C   UNL     1       1.124  11.374  19.496  0.00  0.00    +0.000 C 
ATOM     22  O   UNL     1      -0.174  11.881  19.830  0.00  0.00    +0.000 OA
ATOM     23  C   UNL     1      -1.147  11.382  19.004  0.00  0.00    +0.000 A 
ATOM     24  C   UNL     1      -2.402  11.984  19.080  0.00  0.00    +0.000 A 
ATOM     25  C   UNL     1      -3.442  11.531  18.266  0.00  0.00    +0.000 A 
ATOM     26  C   UNL     1      -3.222  10.479  17.373  0.00  0.00    +0.000 A 
ATOM     27  C   UNL     1      -1.969   9.868  17.307  0.00  0.00    +0.000 A 
ATOM     28  C   UNL     1      -0.938  10.307  18.136  0.00  0.00    +0.000 A 
ATOM     29  O   UNL     1       0.250   9.627  18.058  0.00  0.00    +0.000 OA
ENDBRANCH  18  20
ENDBRANCH  17  18
ENDBRANCH  16  17
ENDBRANCH   1  16
TORSDOF 6
ENDMDL
MODEL 4
REMARK VINA RESULT:      -8.3      7.276     11.444
REMARK  Name = 
REMARK  6 active torsions:
REMARK  status: ('A' for Active; 'I' for Inactive)
REMARK    1  A    between atoms: C_2  and  C_19
REMARK    2  A    between atoms: N_3  and  C_4
REMARK    3  A    between atoms: C_4  and  C_5
REMARK    4  A    between atoms: C_5  and  O_6
REMARK    5  A    between atoms: O_6  and  C_7
REMARK    6  A    between atoms: C_7  and  C_9
REMARK                            x       y       z     vdW  Elec       q    Type
REMARK                         _______ _______ _______ _____ _____    ______ ____
ROOT
ATOM      1  C   UNL     1       2.025   8.244  17.559  0.00  0.00    +0.000 C 
ENDROOT
BRANCH   1   4
ATOM      2  O   UNL     1       4.372   6.898  16.792  0.00  0.00    +0.000 OA
ATOM      3  C   UNL     1       3.885   6.646  17.896  0.00  0.00    +0.000 C 
ATOM      4  N   UNL     1       2.766   7.295  18.369  0.00  0.00    +0.000 N 
ATOM      5  H   UNL     1       2.403   7.032  19.280  0.00  0.00    +0.000 HD
BRANCH   3   6
ATOM      6  C   UNL     1       4.528   5.664  18.894  0.00  0.00    +0.000 C 
ATOM      7  C   UNL     1       5.093   4.434  18.187  0.00  0.00    +0.000 C 
ATOM      8  O   UNL     1       4.056   3.625  17.615  0.00  0.00    +0.000 OA
ATOM      9  C   UNL     1       2.977   3.505  18.448  0.00  0.00    +0.000 A 
ATOM     10  C   UNL     1       2.011   2.568  18.088  0.00  0.00    +0.000 A 
ATOM     11  C   UNL     1       0.892   2.374  18.901  0.00  0.00    +0.000 A 
ATOM     12  C   UNL     1       0.749   3.111  20.078  0.00  0.00    +0.000 A 
ATOM     13  C   UNL     1       1.706   4.062  20.429  0.00  0.00    +0.000 A 
ATOM     14  C   UNL     1       2.804   4.279  19.600  0.00  0.00    +0.000 A 
ATOM     15  O   UNL     1       3.661   5.284  19.966  0.00  0.00    +0.000 OA
ENDBRANCH   3   6
ENDBRANCH   1   4
BRANCH   1  16
ATOM     16  C   UNL     1       2.016   9.671  18.121  0.00  0.00    +0.000 C 
BRANCH  16  17
ATOM     17  O   UNL     1       1.112   9.761  19.243  0.00  0.00    +0.000 OA
BRANCH  17  18
ATOM     18  C   UNL     1       0.016  10.550  19.038  0.00  0.00    +0.000 C 
ATOM     19  O   UNL     1      -1.035  10.142  18.558  0.00  0.00    +0.000 OA
BRANCH  18  20
ATOM     20  C   UNL     1       0.299  11.998  19.446  0.00  0.00    +0.000 C 
ATOM     21  C   UNL     1       1.176  12.068  20.692  0.00  0.00    +0.000 C 
ATOM     22  O   UNL     1       0.514  11.528  21.843  0.00  0.00    +0.000 OA
ATOM     23  C   UNL     1      -0.796  11.926  21.914  0.00  0.00    +0.000 A 
ATOM     24  C   UNL     1      -1.466  11.661  23.107  0.00  0.00    +0.000 A 
ATOM     25  C   UNL     1      -2.802  12.040  23.254  0.00  0.00    +0.000 A 
ATOM     26  C   UNL     1      -3.463  12.688  22.208  0.00  0.00    +0.000 A 
ATOM     27  C   UNL     1      -2.795  12.941  21.009  0.00  0.00    +0.000 A 
ATOM     28  C   UNL     1      -1.468  12.543  20.856  0.00  0.00    +0.000 A 
ATOM     29  O   UNL     1      -0.891  12.773  19.634  0.00  0.00    +0.000 OA
ENDBRANCH  18  20
ENDBRANCH  17  18
ENDBRANCH  16  17
ENDBRANCH   1  16
TORSDOF 6
ENDMDL
MODEL 5
REMARK VINA RESULT:      -8.3      7.202      8.953
REMARK  Name = 
REMARK  6 active torsions:
REMARK  status: ('A' for Active; 'I' for Inactive)
REMARK    1  A    between atoms: C_2  and  C_19
REMARK    2  A    between atoms: N_3  and  C_4
REMARK    3  A    between atoms: C_4  and  C_5
REMARK    4  A    between atoms: C_5  and  O_6
REMARK    5  A    between atoms: O_6  and  C_7
REMARK    6  A    between atoms: C_7  and  C_9
REMARK                            x       y       z     vdW  Elec       q    Type
REMARK                         _______ _______ _______ _____ _____    ______ ____
ROOT
ATOM      1  C   UNL     1       1.490   8.674  18.733  0.00  0.00    +0.000 C 
ENDROOT
BRANCH   1   4
ATOM      2  O   UNL     1      -0.758  10.299  18.276  0.00  0.00    +0.000 OA
ATOM      3  C   UNL     1       0.258  10.820  18.738  0.00  0.00    +0.000 C 
ATOM      4  N   UNL     1       1.386  10.089  19.037  0.00  0.00    +0.000 N 
ATOM      5  H   UNL     1       2.198  10.577  19.401  0.00  0.00    +0.000 HD
BRANCH   3   6
ATOM      6  C   UNL     1       0.339  12.311  19.122  0.00  0.00    +0.000 C 
ATOM      7  C   UNL     1       1.279  12.535  20.304  0.00  0.00    +0.000 C 
ATOM      8  O   UNL     1       0.765  11.956  21.511  0.00  0.00    +0.000 OA
ATOM      9  C   UNL     1      -0.580  12.164  21.651  0.00  0.00    +0.000 A 
ATOM     10  C   UNL     1      -1.137  11.836  22.885  0.00  0.00    +0.000 A 
ATOM     11  C   UNL     1      -2.500  12.042  23.111  0.00  0.00    +0.000 A 
ATOM     12  C   UNL     1      -3.299  12.586  22.104  0.00  0.00    +0.000 A 
ATOM     13  C   UNL     1      -2.746  12.897  20.862  0.00  0.00    +0.000 A 
ATOM     14  C   UNL     1      -1.393  12.658  20.627  0.00  0.00    +0.000 A 
ATOM     15  O   UNL     1      -0.936  12.912  19.360  0.00  0.00    +0.000 OA
ENDBRANCH   3   6
ENDBRANCH   1   4
BRANCH   1  16
ATOM     16  C   UNL     1       2.735   8.301  17.919  0.00  0.00    +0.000 C 
BRANCH  16  17
ATOM     17  O   UNL     1       2.866   6.865  17.836  0.00  0.00    +0.000 OA
BRANCH  17  18
ATOM     18  C   UNL     1       4.126   6.417  17.560  0.00  0.00    +0.000 C 
ATOM     19  O   UNL     1       4.701   6.615  16.495  0.00  0.00    +0.000 OA
BRANCH  18  20
ATOM     20  C   UNL     1       4.690   5.609  18.732  0.00  0.00    +0.000 C 
ATOM     21  C   UNL     1       5.309   4.297  18.263  0.00  0.00    +0.000 C 
ATOM     22  O   UNL     1       4.331   3.414  17.700  0.00  0.00    +0.000 OA
ATOM     23  C   UNL     1       3.177   3.391  18.438  0.00  0.00    +0.000 A 
ATOM     24  C   UNL     1       2.252   2.396  18.124  0.00  0.00    +0.000 A 
ATOM     25  C   UNL     1       1.054   2.309  18.836  0.00  0.00    +0.000 A 
ATOM     26  C   UNL     1       0.786   3.215  19.866  0.00  0.00    +0.000 A 
ATOM     27  C   UNL     1       1.706   4.219  20.171  0.00  0.00    +0.000 A 
ATOM     28  C   UNL     1       2.891   4.318  19.445  0.00  0.00    +0.000 A 
ATOM     29  O   UNL     1       3.724   5.360  19.761  0.00  0.00    +0.000 OA
ENDBRANCH  18  20
ENDBRANCH  17  18
ENDBRANCH  16  17
ENDBRANCH   1  16
TORSDOF 6
ENDMDL
MODEL 6
REMARK VINA RESULT:      -8.3      7.561     10.539
REMARK  Name = 
REMARK  6 active torsions:
REMARK  status: ('A' for Active; 'I' for Inactive)
REMARK    1  A    between atoms: C_2  and  C_19
REMARK    2  A    between atoms: N_3  and  C_4
REMARK    3  A    between atoms: C_4  and  C_5
REMARK    4  A    between atoms: C_5  and  O_6
REMARK    5  A    between atoms: O_6  and  C_7
REMARK    6  A    between atoms: C_7  and  C_9
REMARK                            x       y       z     vdW  Elec       q    Type
REMARK                         _______ _______ _______ _____ _____    ______ ____
ROOT
ATOM      1  C   UNL     1       2.131   7.629  20.205  0.00  0.00    +0.000 C 
ENDROOT
BRANCH   1   4
ATOM      2  O   UNL     1       2.384   6.455  17.662  0.00  0.00    +0.000 OA
ATOM      3  C   UNL     1       2.502   5.735  18.655  0.00  0.00    +0.000 C 
ATOM      4  N   UNL     1       2.441   6.237  19.936  0.00  0.00    +0.000 N 
ATOM      5  H   UNL     1       2.530   5.591  20.715  0.00  0.00    +0.000 HD
BRANCH   3   6
ATOM      6  C   UNL     1       2.829   4.231  18.569  0.00  0.00    +0.000 C 
ATOM      7  C   UNL     1       3.799   3.805  19.669  0.00  0.00    +0.000 C 
ATOM      8  O   UNL     1       5.096   4.390  19.493  0.00  0.00    +0.000 OA
ATOM      9  C   UNL     1       5.492   4.382  18.184  0.00  0.00    +0.000 A 
ATOM     10  C   UNL     1       6.819   4.725  17.931  0.00  0.00    +0.000 A 
ATOM     11  C   UNL     1       7.302   4.717  16.621  0.00  0.00    +0.000 A 
ATOM     12  C   UNL     1       6.460   4.355  15.569  0.00  0.00    +0.000 A 
ATOM     13  C   UNL     1       5.127   4.029  15.819  0.00  0.00    +0.000 A 
ATOM     14  C   UNL     1       4.637   4.072  17.123  0.00  0.00    +0.000 A 
ATOM     15  O   UNL     1       3.299   3.819  17.284  0.00  0.00    +0.000 OA
ENDBRANCH   3   6
ENDBRANCH   1   4
BRANCH   1  16
ATOM     16  C   UNL     1       1.059   7.832  21.282  0.00  0.00    +0.000 C 
BRANCH  16  17
ATOM     17  O   UNL     1       0.142   8.875  20.884  0.00  0.00    +0.000 OA
BRANCH  17  18
ATOM     18  C   UNL     1       0.489  10.132  21.287  0.00  0.00    +0.000 C 
ATOM     19  O   UNL     1       0.430  10.515  22.451  0.00  0.00    +0.000 OA
BRANCH  18  20
ATOM     20  C   UNL     1       0.914  10.993  20.094  0.00  0.00    +0.000 C 
ATOM     21  C   UNL     1       0.413  12.427  20.231  0.00  0.00    +0.000 C 
ATOM     22  O   UNL     1      -1.018  12.499  20.192  0.00  0.00    +0.000 OA
ATOM     23  C   UNL     1      -1.546  11.688  19.222  0.00  0.00    +0.000 A 
ATOM     24  C   UNL     1      -2.900  11.856  18.934  0.00  0.00    +0.000 A 
ATOM     25  C   UNL     1      -3.507  11.066  17.956  0.00  0.00    +0.000 A 
ATOM     26  C   UNL     1      -2.756  10.113  17.263  0.00  0.00    +0.000 A 
ATOM     27  C   UNL     1      -1.404   9.936  17.562  0.00  0.00    +0.000 A 
ATOM     28  C   UNL     1      -0.805  10.710  18.554  0.00  0.00    +0.000 A 
ATOM     29  O   UNL     1       0.511  10.446  18.833  0.00  0.00    +0.000 OA
ENDBRANCH  18  20
ENDBRANCH  17  18
ENDBRANCH  16  17
ENDBRANCH   1  16
TORSDOF 6
ENDMDL
MODEL 7
REMARK VINA RESULT:      -8.2      1.921     10.330
REMARK  Name = 
REMARK  6 active torsions:
REMARK  status: ('A' for Active; 'I' for Inactive)
REMARK    1  A    between atoms: C_2  and  C_19
REMARK    2  A    between atoms: N_3  and  C_4
REMARK    3  A    between atoms: C_4  and  C_5
REMARK    4  A    between atoms: C_5  and  O_6
REMARK    5  A    between atoms: O_6  and  C_7
REMARK    6  A    between atoms: C_7  and  C_9
REMARK                            x       y       z     vdW  Elec       q    Type
REMARK                         _______ _______ _______ _____ _____    ______ ____
ROOT
ATOM      1  C   UNL     1       8.230   8.033  18.170  0.00  0.00    +0.000 C 
ENDROOT
BRANCH   1   4
ATOM      2  O   UNL     1       7.700   5.274  18.062  0.00  0.00    +0.000 OA
ATOM      3  C   UNL     1       7.187   6.004  17.212  0.00  0.00    +0.000 C 
ATOM      4  N   UNL     1       7.355   7.370  17.221  0.00  0.00    +0.000 N 
ATOM      5  H   UNL     1       6.921   7.917  16.484  0.00  0.00    +0.000 HD
BRANCH   3   6
ATOM      6  C   UNL     1       6.232   5.481  16.121  0.00  0.00    +0.000 C 
ATOM      7  C   UNL     1       5.210   6.541  15.716  0.00  0.00    +0.000 C 
ATOM      8  O   UNL     1       4.296   6.835  16.781  0.00  0.00    +0.000 OA
ATOM      9  C   UNL     1       3.893   5.706  17.441  0.00  0.00    +0.000 A 
ATOM     10  C   UNL     1       2.843   5.853  18.346  0.00  0.00    +0.000 A 
ATOM     11  C   UNL     1       2.362   4.741  19.040  0.00  0.00    +0.000 A 
ATOM     12  C   UNL     1       2.926   3.483  18.819  0.00  0.00    +0.000 A 
ATOM     13  C   UNL     1       3.989   3.339  17.927  0.00  0.00    +0.000 A 
ATOM     14  C   UNL     1       4.491   4.455  17.261  0.00  0.00    +0.000 A 
ATOM     15  O   UNL     1       5.586   4.253  16.463  0.00  0.00    +0.000 OA
ENDBRANCH   3   6
ENDBRANCH   1   4
BRANCH   1  16
ATOM     16  C   UNL     1       8.311   9.553  17.989  0.00  0.00    +0.000 C 
BRANCH  16  17
ATOM     17  O   UNL     1       9.020  10.152  19.095  0.00  0.00    +0.000 OA
BRANCH  17  18
ATOM     18  C   UNL     1       9.960  11.079  18.743  0.00  0.00    +0.000 C 
ATOM     19  O   UNL     1      10.449  11.160  17.622  0.00  0.00    +0.000 OA
BRANCH  18  20
ATOM     20  C   UNL     1      10.338  11.958  19.939  0.00  0.00    +0.000 C 
ATOM     21  C   UNL     1       9.116  12.649  20.535  0.00  0.00    +0.000 C 
ATOM     22  O   UNL     1       8.528  13.581  19.618  0.00  0.00    +0.000 OA
ATOM     23  C   UNL     1       9.477  14.326  18.967  0.00  0.00    +0.000 A 
ATOM     24  C   UNL     1       9.019  15.421  18.235  0.00  0.00    +0.000 A 
ATOM     25  C   UNL     1       9.927  16.228  17.547  0.00  0.00    +0.000 A 
ATOM     26  C   UNL     1      11.294  15.940  17.597  0.00  0.00    +0.000 A 
ATOM     27  C   UNL     1      11.750  14.837  18.319  0.00  0.00    +0.000 A 
ATOM     28  C   UNL     1      10.840  14.020  18.987  0.00  0.00    +0.000 A 
ATOM     29  O   UNL     1      11.351  12.922  19.631  0.00  0.00    +0.000 OA
ENDBRANCH  18  20
ENDBRANCH  17  18
ENDBRANCH  16  17
ENDBRANCH   1  16
TORSDOF 6
ENDMDL
MODEL 8
REMARK VINA RESULT:      -8.2      1.933      3.034
REMARK  Name = 
REMARK  6 active torsions:
REMARK  status: ('A' for Active; 'I' for Inactive)
REMARK    1  A    between atoms: C_2  and  C_19
REMARK    2  A    between atoms: N_3  and  C_4
REMARK    3  A    between atoms: C_4  and  C_5
REMARK    4  A    between atoms: C_5  and  O_6
REMARK    5  A    between atoms: O_6  and  C_7
REMARK    6  A    between atoms: C_7  and  C_9
REMARK                            x       y       z     vdW  Elec       q    Type
REMARK                         _______ _______ _______ _____ _____    ______ ____
ROOT
ATOM      1  C   UNL     1       7.766   8.020  17.795  0.00  0.00    +0.000 C 
ENDROOT
BRANCH   1   4
ATOM      2  O   UNL     1       8.344  10.771  17.730  0.00  0.00    +0.000 OA
ATOM      3  C   UNL     1       8.919  10.070  18.565  0.00  0.00    +0.000 C 
ATOM      4  N   UNL     1       8.658   8.724  18.697  0.00  0.00    +0.000 N 
ATOM      5  H   UNL     1       9.176   8.196  19.393  0.00  0.00    +0.000 HD
BRANCH   3   6
ATOM      6  C   UNL     1       9.903  10.639  19.606  0.00  0.00    +0.000 C 
ATOM      7  C   UNL     1       9.244  11.704  20.478  0.00  0.00    +0.000 C 
ATOM      8  O   UNL     1       8.911  12.878  19.727  0.00  0.00    +0.000 OA
ATOM      9  C   UNL     1       9.900  13.225  18.847  0.00  0.00    +0.000 A 
ATOM     10  C   UNL     1       9.777  14.466  18.227  0.00  0.00    +0.000 A 
ATOM     11  C   UNL     1      10.759  14.898  17.333  0.00  0.00    +0.000 A 
ATOM     12  C   UNL     1      11.868  14.091  17.071  0.00  0.00    +0.000 A 
ATOM     13  C   UNL     1      11.982  12.840  17.677  0.00  0.00    +0.000 A 
ATOM     14  C   UNL     1      10.983  12.396  18.542  0.00  0.00    +0.000 A 
ATOM     15  O   UNL     1      11.121  11.126  19.038  0.00  0.00    +0.000 OA
ENDBRANCH   3   6
ENDBRANCH   1   4
BRANCH   1  16
ATOM     16  C   UNL     1       7.556   6.543  18.152  0.00  0.00    +0.000 C 
BRANCH  16  17
ATOM     17  O   UNL     1       6.270   6.091  17.675  0.00  0.00    +0.000 OA
BRANCH  17  18
ATOM     18  C   UNL     1       5.511   5.435  18.601  0.00  0.00    +0.000 C 
ATOM     19  O   UNL     1       4.991   5.982  19.566  0.00  0.00    +0.000 OA
BRANCH  18  20
ATOM     20  C   UNL     1       5.440   3.937  18.289  0.00  0.00    +0.000 C 
ATOM     21  C   UNL     1       4.604   3.663  17.044  0.00  0.00    +0.000 C 
ATOM     22  O   UNL     1       3.229   4.022  17.232  0.00  0.00    +0.000 OA
ATOM     23  C   UNL     1       2.762   3.632  18.460  0.00  0.00    +0.000 A 
ATOM     24  C   UNL     1       1.384   3.714  18.659  0.00  0.00    +0.000 A 
ATOM     25  C   UNL     1       0.835   3.331  19.885  0.00  0.00    +0.000 A 
ATOM     26  C   UNL     1       1.665   2.863  20.906  0.00  0.00    +0.000 A 
ATOM     27  C   UNL     1       3.044   2.794  20.710  0.00  0.00    +0.000 A 
ATOM     28  C   UNL     1       3.594   3.197  19.494  0.00  0.00    +0.000 A 
ATOM     29  O   UNL     1       4.960   3.155  19.389  0.00  0.00    +0.000 OA
ENDBRANCH  18  20
ENDBRANCH  17  18
ENDBRANCH  16  17
ENDBRANCH   1  16
TORSDOF 6
ENDMDL
MODEL 9
REMARK VINA RESULT:      -8.2      1.724      2.882
REMARK  Name = 
REMARK  6 active torsions:
REMARK  status: ('A' for Active; 'I' for Inactive)
REMARK    1  A    between atoms: C_2  and  C_19
REMARK    2  A    between atoms: N_3  and  C_4
REMARK    3  A    between atoms: C_4  and  C_5
REMARK    4  A    between atoms: C_5  and  O_6
REMARK    5  A    between atoms: O_6  and  C_7
REMARK    6  A    between atoms: C_7  and  C_9
REMARK                            x       y       z     vdW  Elec       q    Type
REMARK                         _______ _______ _______ _____ _____    ______ ____
ROOT
ATOM      1  C   UNL     1       8.114   8.301  17.967  0.00  0.00    +0.000 C 
ENDROOT
BRANCH   1   4
ATOM      2  O   UNL     1       8.537  11.078  17.832  0.00  0.00    +0.000 OA
ATOM      3  C   UNL     1       9.121  10.437  18.708  0.00  0.00    +0.000 C 
ATOM      4  N   UNL     1       8.932   9.083  18.875  0.00  0.00    +0.000 N 
ATOM      5  H   UNL     1       9.455   8.607  19.604  0.00  0.00    +0.000 HD
BRANCH   3   6
ATOM      6  C   UNL     1      10.035  11.093  19.762  0.00  0.00    +0.000 C 
ATOM      7  C   UNL     1       9.318  12.219  20.502  0.00  0.00    +0.000 C 
ATOM      8  O   UNL     1       9.033  13.329  19.640  0.00  0.00    +0.000 OA
ATOM      9  C   UNL     1      10.077  13.611  18.801  0.00  0.00    +0.000 A 
ATOM     10  C   UNL     1       9.992  14.799  18.077  0.00  0.00    +0.000 A 
ATOM     11  C   UNL     1      11.030  15.165  17.218  0.00  0.00    +0.000 A 
ATOM     12  C   UNL     1      12.154  14.347  17.093  0.00  0.00    +0.000 A 
ATOM     13  C   UNL     1      12.231  13.149  17.804  0.00  0.00    +0.000 A 
ATOM     14  C   UNL     1      11.179  12.768  18.634  0.00  0.00    +0.000 A 
ATOM     15  O   UNL     1      11.286  11.542  19.237  0.00  0.00    +0.000 OA
ENDBRANCH   3   6
ENDBRANCH   1   4
BRANCH   1  16
ATOM     16  C   UNL     1       7.911   6.846  18.406  0.00  0.00    +0.000 C 
BRANCH  16  17
ATOM     17  O   UNL     1       6.516   6.485  18.310  0.00  0.00    +0.000 OA
BRANCH  17  18
ATOM     18  C   UNL     1       6.276   5.151  18.148  0.00  0.00    +0.000 C 
ATOM     19  O   UNL     1       6.603   4.296  18.964  0.00  0.00    +0.000 OA
BRANCH  18  20
ATOM     20  C   UNL     1       5.591   4.876  16.806  0.00  0.00    +0.000 C 
ATOM     21  C   UNL     1       4.577   5.961  16.461  0.00  0.00    +0.000 C 
ATOM     22  O   UNL     1       3.482   5.984  17.387  0.00  0.00    +0.000 OA
ATOM     23  C   UNL     1       3.045   4.722  17.693  0.00  0.00    +0.000 A 
ATOM     24  C   UNL     1       1.841   4.629  18.391  0.00  0.00    +0.000 A 
ATOM     25  C   UNL     1       1.332   3.376  18.736  0.00  0.00    +0.000 A 
ATOM     26  C   UNL     1       2.025   2.217  18.377  0.00  0.00    +0.000 A 
ATOM     27  C   UNL     1       3.236   2.311  17.691  0.00  0.00    +0.000 A 
ATOM     28  C   UNL     1       3.755   3.564  17.367  0.00  0.00    +0.000 A 
ATOM     29  O   UNL     1       4.975   3.584  16.741  0.00  0.00    +0.000 OA
ENDBRANCH  18  20
ENDBRANCH  17  18
ENDBRANCH  16  17
ENDBRANCH   1  16
TORSDOF 6
ENDMDL
