MODEL 1
REMARK VINA RESULT:      -7.5      0.000      0.000
REMARK  Name = 
REMARK  5 active torsions:
REMARK  status: ('A' for Active; 'I' for Inactive)
REMARK    1  A    between atoms: N_1  and  C_2
REMARK    2  A    between atoms: C_2  and  N_4
REMARK    3  A    between atoms: C_15  and  C_16
REMARK    4  A    between atoms: C_16  and  C_17
REMARK    5  A    between atoms: C_20  and  O_21
REMARK                            x       y       z     vdW  Elec       q    Type
REMARK                         _______ _______ _______ _____ _____    ______ ____
ROOT
ATOM      1  N   UNL     1       3.715   3.648  19.203  0.00  0.00    +0.000 N 
ATOM      2  C   UNL     1       4.719   4.562  18.931  0.00  0.00    +0.000 A 
ATOM      3  N   UNL     1       5.964   4.422  19.402  0.00  0.00    +0.000 NA
ATOM      4  N   UNL     1       6.610   5.529  19.004  0.00  0.00    +0.000 N 
ATOM      5  C   UNL     1       7.943   5.802  19.340  0.00  0.00    +0.000 A 
ATOM      6  O   UNL     1       8.623   5.039  20.011  0.00  0.00    +0.000 OA
ATOM      7  N   UNL     1       8.353   7.021  18.821  0.00  0.00    +0.000 N 
ATOM      8  C   UNL     1       7.616   7.882  18.052  0.00  0.00    +0.000 A 
ATOM      9  S   UNL     1       8.256   9.319  17.515  0.00  0.00    +0.000 S 
ATOM     10  N   UNL     1       6.332   7.524  17.745  0.00  0.00    +0.000 N 
ATOM     11  C   UNL     1       5.817   6.353  18.247  0.00  0.00    +0.000 A 
ATOM     12  C   UNL     1       4.571   5.763  18.159  0.00  0.00    +0.000 A 
ATOM     13  H   UNL     1       2.801   3.834  18.821  0.00  0.00    +0.000 HD
ATOM     14  H   UNL     1       9.302   7.284  19.044  0.00  0.00    +0.000 HD
ATOM     15  H   UNL     1       5.767   8.151  17.180  0.00  0.00    +0.000 HD
ENDROOT
BRANCH   1  16
ATOM     16  C   UNL     1       3.762   2.623  20.097  0.00  0.00    +0.000 C 
ATOM     17  S   UNL     1       2.583   2.458  21.257  0.00  0.00    +0.000 S 
BRANCH  16  18
ATOM     18  N   UNL     1       4.790   1.752  20.037  0.00  0.00    +0.000 N 
ATOM     19  H   UNL     1       5.426   1.624  20.811  0.00  0.00    +0.000 HD
ATOM     20  H   UNL     1       5.013   1.316  19.142  0.00  0.00    +0.000 HD
ENDBRANCH  16  18
ENDBRANCH   1  16
BRANCH  12  21
ATOM     21  C   UNL     1       3.383   6.261  17.408  0.00  0.00    +0.000 C 
BRANCH  21  22
ATOM     22  C   UNL     1       2.689   7.306  18.251  0.00  0.00    +0.000 A 
ATOM     23  C   UNL     1       2.258   8.524  17.694  0.00  0.00    +0.000 A 
ATOM     24  C   UNL     1       1.522   9.442  18.452  0.00  0.00    +0.000 A 
ATOM     25  C   UNL     1       1.213   9.146  19.774  0.00  0.00    +0.000 A 
ATOM     26  C   UNL     1       1.647   7.960  20.353  0.00  0.00    +0.000 A 
ATOM     27  C   UNL     1       2.382   7.045  19.596  0.00  0.00    +0.000 A 
BRANCH  25  28
ATOM     28  O   UNL     1       0.466   9.990  20.541  0.00  0.00    +0.000 OA
ATOM     29  H   UNL     1       1.064  10.537  21.079  0.00  0.00    +0.000 HD
ENDBRANCH  25  28
ENDBRANCH  21  22
ENDBRANCH  12  21
TORSDOF 5
ENDMDL
MODEL 2
REMARK VINA RESULT:      -7.4      0.131      1.014
REMARK  Name = 
REMARK  5 active torsions:
REMARK  status: ('A' for Active; 'I' for Inactive)
REMARK    1  A    between atoms: N_1  and  C_2
REMARK    2  A    between atoms: C_2  and  N_4
REMARK    3  A    between atoms: C_15  and  C_16
REMARK    4  A    between atoms: C_16  and  C_17
REMARK    5  A    between atoms: C_20  and  O_21
REMARK                            x       y       z     vdW  Elec       q    Type
REMARK                         _______ _______ _______ _____ _____    ______ ____
ROOT
ATOM      1  N   UNL     1       3.775   3.593  19.162  0.00  0.00    +0.000 N 
ATOM      2  C   UNL     1       4.774   4.517  18.907  0.00  0.00    +0.000 A 
ATOM      3  N   UNL     1       6.007   4.397  19.410  0.00  0.00    +0.000 NA
ATOM      4  N   UNL     1       6.650   5.509  19.019  0.00  0.00    +0.000 N 
ATOM      5  C   UNL     1       7.971   5.802  19.386  0.00  0.00    +0.000 A 
ATOM      6  O   UNL     1       8.643   5.053  20.081  0.00  0.00    +0.000 OA
ATOM      7  N   UNL     1       8.378   7.021  18.866  0.00  0.00    +0.000 N 
ATOM      8  C   UNL     1       7.650   7.865  18.071  0.00  0.00    +0.000 A 
ATOM      9  S   UNL     1       8.285   9.306  17.537  0.00  0.00    +0.000 S 
ATOM     10  N   UNL     1       6.379   7.489  17.735  0.00  0.00    +0.000 N 
ATOM     11  C   UNL     1       5.866   6.316  18.235  0.00  0.00    +0.000 A 
ATOM     12  C   UNL     1       4.631   5.709  18.121  0.00  0.00    +0.000 A 
ATOM     13  H   UNL     1       2.868   3.764  18.756  0.00  0.00    +0.000 HD
ATOM     14  H   UNL     1       9.318   7.298  19.110  0.00  0.00    +0.000 HD
ATOM     15  H   UNL     1       5.820   8.103  17.150  0.00  0.00    +0.000 HD
ENDROOT
BRANCH   1  16
ATOM     16  C   UNL     1       3.812   2.577  20.067  0.00  0.00    +0.000 C 
ATOM     17  S   UNL     1       2.640   2.443  21.237  0.00  0.00    +0.000 S 
BRANCH  16  18
ATOM     18  N   UNL     1       4.825   1.688  20.008  0.00  0.00    +0.000 N 
ATOM     19  H   UNL     1       5.616   1.823  19.396  0.00  0.00    +0.000 HD
ATOM     20  H   UNL     1       4.722   0.793  20.486  0.00  0.00    +0.000 HD
ENDBRANCH  16  18
ENDBRANCH   1  16
BRANCH  12  21
ATOM     21  C   UNL     1       3.455   6.185  17.336  0.00  0.00    +0.000 C 
BRANCH  21  22
ATOM     22  C   UNL     1       2.655   7.132  18.200  0.00  0.00    +0.000 A 
ATOM     23  C   UNL     1       2.404   6.847  19.554  0.00  0.00    +0.000 A 
ATOM     24  C   UNL     1       1.756   7.775  20.377  0.00  0.00    +0.000 A 
ATOM     25  C   UNL     1       1.355   8.996  19.849  0.00  0.00    +0.000 A 
ATOM     26  C   UNL     1       1.572   9.291  18.509  0.00  0.00    +0.000 A 
ATOM     27  C   UNL     1       2.218   8.364  17.688  0.00  0.00    +0.000 A 
BRANCH  25  28
ATOM     28  O   UNL     1       0.754   9.948  20.619  0.00  0.00    +0.000 OA
ATOM     29  H   UNL     1       0.017  10.336  20.119  0.00  0.00    +0.000 HD
ENDBRANCH  25  28
ENDBRANCH  21  22
ENDBRANCH  12  21
TORSDOF 5
ENDMDL
MODEL 3
REMARK VINA RESULT:      -7.2      3.744      4.949
REMARK  Name = 
REMARK  5 active torsions:
REMARK  status: ('A' for Active; 'I' for Inactive)
REMARK    1  A    between atoms: N_1  and  C_2
REMARK    2  A    between atoms: C_2  and  N_4
REMARK    3  A    between atoms: C_15  and  C_16
REMARK    4  A    between atoms: C_16  and  C_17
REMARK    5  A    between atoms: C_20  and  O_21
REMARK                            x       y       z     vdW  Elec       q    Type
REMARK                         _______ _______ _______ _____ _____    ______ ____
ROOT
ATOM      1  N   UNL     1       6.825   4.978  18.528  0.00  0.00    +0.000 N 
ATOM      2  C   UNL     1       6.646   4.684  17.187  0.00  0.00    +0.000 A 
ATOM      3  N   UNL     1       7.507   5.083  16.244  0.00  0.00    +0.000 NA
ATOM      4  N   UNL     1       6.955   4.690  15.085  0.00  0.00    +0.000 N 
ATOM      5  C   UNL     1       7.524   4.964  13.833  0.00  0.00    +0.000 A 
ATOM      6  O   UNL     1       8.577   5.571  13.706  0.00  0.00    +0.000 OA
ATOM      7  N   UNL     1       6.738   4.466  12.805  0.00  0.00    +0.000 N 
ATOM      8  C   UNL     1       5.566   3.767  12.924  0.00  0.00    +0.000 A 
ATOM      9  S   UNL     1       4.734   3.246  11.582  0.00  0.00    +0.000 S 
ATOM     10  N   UNL     1       5.097   3.516  14.184  0.00  0.00    +0.000 N 
ATOM     11  C   UNL     1       5.782   4.005  15.270  0.00  0.00    +0.000 A 
ATOM     12  C   UNL     1       5.537   3.963  16.629  0.00  0.00    +0.000 A 
ATOM     13  H   UNL     1       6.123   4.651  19.174  0.00  0.00    +0.000 HD
ATOM     14  H   UNL     1       7.085   4.646  11.874  0.00  0.00    +0.000 HD
ATOM     15  H   UNL     1       4.227   3.005  14.294  0.00  0.00    +0.000 HD
ENDROOT
BRANCH   1  16
ATOM     16  C   UNL     1       7.739   5.832  19.063  0.00  0.00    +0.000 C 
ATOM     17  S   UNL     1       7.994   7.330  18.388  0.00  0.00    +0.000 S 
BRANCH  16  18
ATOM     18  N   UNL     1       8.446   5.439  20.142  0.00  0.00    +0.000 N 
ATOM     19  H   UNL     1       9.161   6.023  20.551  0.00  0.00    +0.000 HD
ATOM     20  H   UNL     1       8.355   4.476  20.466  0.00  0.00    +0.000 HD
ENDBRANCH  16  18
ENDBRANCH   1  16
BRANCH  12  21
ATOM     21  C   UNL     1       4.401   3.294  17.326  0.00  0.00    +0.000 C 
BRANCH  21  22
ATOM     22  C   UNL     1       3.672   4.328  18.153  0.00  0.00    +0.000 A 
ATOM     23  C   UNL     1       3.360   4.093  19.504  0.00  0.00    +0.000 A 
ATOM     24  C   UNL     1       2.782   5.094  20.294  0.00  0.00    +0.000 A 
ATOM     25  C   UNL     1       2.513   6.337  19.734  0.00  0.00    +0.000 A 
ATOM     26  C   UNL     1       2.791   6.585  18.396  0.00  0.00    +0.000 A 
ATOM     27  C   UNL     1       3.367   5.586  17.609  0.00  0.00    +0.000 A 
BRANCH  25  28
ATOM     28  O   UNL     1       1.986   7.355  20.472  0.00  0.00    +0.000 OA
ATOM     29  H   UNL     1       2.697   7.973  20.708  0.00  0.00    +0.000 HD
ENDBRANCH  25  28
ENDBRANCH  21  22
ENDBRANCH  12  21
TORSDOF 5
ENDMDL
MODEL 4
REMARK VINA RESULT:      -7.1      3.776      4.881
REMARK  Name = 
REMARK  5 active torsions:
REMARK  status: ('A' for Active; 'I' for Inactive)
REMARK    1  A    between atoms: N_1  and  C_2
REMARK    2  A    between atoms: C_2  and  N_4
REMARK    3  A    between atoms: C_15  and  C_16
REMARK    4  A    between atoms: C_16  and  C_17
REMARK    5  A    between atoms: C_20  and  O_21
REMARK                            x       y       z     vdW  Elec       q    Type
REMARK                         _______ _______ _______ _____ _____    ______ ____
ROOT
ATOM      1  N   UNL     1       6.818   4.999  18.489  0.00  0.00    +0.000 N 
ATOM      2  C   UNL     1       6.641   4.701  17.149  0.00  0.00    +0.000 A 
ATOM      3  N   UNL     1       7.509   5.089  16.208  0.00  0.00    +0.000 NA
ATOM      4  N   UNL     1       6.959   4.696  15.048  0.00  0.00    +0.000 N 
ATOM      5  C   UNL     1       7.535   4.960  13.797  0.00  0.00    +0.000 A 
ATOM      6  O   UNL     1       8.594   5.557  13.672  0.00  0.00    +0.000 OA
ATOM      7  N   UNL     1       6.749   4.465  12.768  0.00  0.00    +0.000 N 
ATOM      8  C   UNL     1       5.570   3.777  12.885  0.00  0.00    +0.000 A 
ATOM      9  S   UNL     1       4.740   3.258  11.542  0.00  0.00    +0.000 S 
ATOM     10  N   UNL     1       5.094   3.535  14.144  0.00  0.00    +0.000 N 
ATOM     11  C   UNL     1       5.779   4.022  15.231  0.00  0.00    +0.000 A 
ATOM     12  C   UNL     1       5.528   3.988  16.589  0.00  0.00    +0.000 A 
ATOM     13  H   UNL     1       6.110   4.681  19.133  0.00  0.00    +0.000 HD
ATOM     14  H   UNL     1       7.101   4.639  11.837  0.00  0.00    +0.000 HD
ATOM     15  H   UNL     1       4.219   3.032  14.252  0.00  0.00    +0.000 HD
ENDROOT
BRANCH   1  16
ATOM     16  C   UNL     1       7.737   5.847  19.025  0.00  0.00    +0.000 C 
ATOM     17  S   UNL     1       7.998   7.345  18.353  0.00  0.00    +0.000 S 
BRANCH  16  18
ATOM     18  N   UNL     1       8.444   5.448  20.101  0.00  0.00    +0.000 N 
ATOM     19  H   UNL     1       8.204   5.745  21.036  0.00  0.00    +0.000 HD
ATOM     20  H   UNL     1       9.322   4.949  19.955  0.00  0.00    +0.000 HD
ENDBRANCH  16  18
ENDBRANCH   1  16
BRANCH  12  21
ATOM     21  C   UNL     1       4.383   3.332  17.284  0.00  0.00    +0.000 C 
BRANCH  21  22
ATOM     22  C   UNL     1       3.746   4.341  18.211  0.00  0.00    +0.000 A 
ATOM     23  C   UNL     1       3.304   5.589  17.737  0.00  0.00    +0.000 A 
ATOM     24  C   UNL     1       2.618   6.476  18.575  0.00  0.00    +0.000 A 
ATOM     25  C   UNL     1       2.371   6.117  19.894  0.00  0.00    +0.000 A 
ATOM     26  C   UNL     1       2.817   4.900  20.392  0.00  0.00    +0.000 A 
ATOM     27  C   UNL     1       3.502   4.016  19.554  0.00  0.00    +0.000 A 
BRANCH  25  28
ATOM     28  O   UNL     1       1.674   6.931  20.739  0.00  0.00    +0.000 OA
ATOM     29  H   UNL     1       1.562   7.799  20.317  0.00  0.00    +0.000 HD
ENDBRANCH  25  28
ENDBRANCH  21  22
ENDBRANCH  12  21
TORSDOF 5
ENDMDL
MODEL 5
REMARK VINA RESULT:      -6.8      6.908      9.404
REMARK  Name = 
REMARK  5 active torsions:
REMARK  status: ('A' for Active; 'I' for Inactive)
REMARK    1  A    between atoms: N_1  and  C_2
REMARK    2  A    between atoms: C_2  and  N_4
REMARK    3  A    between atoms: C_15  and  C_16
REMARK    4  A    between atoms: C_16  and  C_17
REMARK    5  A    between atoms: C_20  and  O_21
REMARK                            x       y       z     vdW  Elec       q    Type
REMARK                         _______ _______ _______ _____ _____    ______ ____
ROOT
ATOM      1  N   UNL     1      -0.611  12.303  21.364  0.00  0.00    +0.000 N 
ATOM      2  C   UNL     1      -1.251  12.024  20.168  0.00  0.00    +0.000 A 
ATOM      3  N   UNL     1      -2.576  12.132  20.021  0.00  0.00    +0.000 NA
ATOM      4  N   UNL     1      -2.821  11.700  18.774  0.00  0.00    +0.000 N 
ATOM      5  C   UNL     1      -4.112  11.603  18.235  0.00  0.00    +0.000 A 
ATOM      6  O   UNL     1      -5.113  11.921  18.860  0.00  0.00    +0.000 OA
ATOM      7  N   UNL     1      -4.079  11.107  16.940  0.00  0.00    +0.000 N 
ATOM      8  C   UNL     1      -2.970  10.763  16.214  0.00  0.00    +0.000 A 
ATOM      9  S   UNL     1      -3.105  10.169  14.667  0.00  0.00    +0.000 S 
ATOM     10  N   UNL     1      -1.747  10.918  16.804  0.00  0.00    +0.000 N 
ATOM     11  C   UNL     1      -1.673  11.363  18.102  0.00  0.00    +0.000 A 
ATOM     12  C   UNL     1      -0.614  11.565  18.965  0.00  0.00    +0.000 A 
ATOM     13  H   UNL     1       0.389  12.183  21.395  0.00  0.00    +0.000 HD
ATOM     14  H   UNL     1      -4.982  10.996  16.501  0.00  0.00    +0.000 HD
ATOM     15  H   UNL     1      -0.912  10.664  16.285  0.00  0.00    +0.000 HD
ENDROOT
BRANCH   1  16
ATOM     16  C   UNL     1      -1.197  12.529  22.571  0.00  0.00    +0.000 C 
ATOM     17  S   UNL     1      -1.158  14.041  23.260  0.00  0.00    +0.000 S 
BRANCH  16  18
ATOM     18  N   UNL     1      -1.798  11.503  23.207  0.00  0.00    +0.000 N 
ATOM     19  H   UNL     1      -1.447  11.141  24.082  0.00  0.00    +0.000 HD
ATOM     20  H   UNL     1      -2.538  10.991  22.726  0.00  0.00    +0.000 HD
ENDBRANCH  16  18
ENDBRANCH   1  16
BRANCH  12  21
ATOM     21  C   UNL     1       0.837  11.375  18.680  0.00  0.00    +0.000 C 
BRANCH  21  22
ATOM     22  C   UNL     1       1.212   9.955  19.036  0.00  0.00    +0.000 A 
ATOM     23  C   UNL     1       1.893   9.130  18.123  0.00  0.00    +0.000 A 
ATOM     24  C   UNL     1       2.332   7.854  18.493  0.00  0.00    +0.000 A 
ATOM     25  C   UNL     1       2.091   7.396  19.783  0.00  0.00    +0.000 A 
ATOM     26  C   UNL     1       1.401   8.183  20.696  0.00  0.00    +0.000 A 
ATOM     27  C   UNL     1       0.963   9.457  20.324  0.00  0.00    +0.000 A 
BRANCH  25  28
ATOM     28  O   UNL     1       2.532   6.176  20.204  0.00  0.00    +0.000 OA
ATOM     29  H   UNL     1       2.140   5.983  21.071  0.00  0.00    +0.000 HD
ENDBRANCH  25  28
ENDBRANCH  21  22
ENDBRANCH  12  21
TORSDOF 5
ENDMDL
MODEL 6
REMARK VINA RESULT:      -6.6      3.523      6.251
REMARK  Name = 
REMARK  5 active torsions:
REMARK  status: ('A' for Active; 'I' for Inactive)
REMARK    1  A    between atoms: N_1  and  C_2
REMARK    2  A    between atoms: C_2  and  N_4
REMARK    3  A    between atoms: C_15  and  C_16
REMARK    4  A    between atoms: C_16  and  C_17
REMARK    5  A    between atoms: C_20  and  O_21
REMARK                            x       y       z     vdW  Elec       q    Type
REMARK                         _______ _______ _______ _____ _____    ______ ____
ROOT
ATOM      1  N   UNL     1       1.785   8.008  20.369  0.00  0.00    +0.000 N 
ATOM      2  C   UNL     1       1.996   6.667  20.095  0.00  0.00    +0.000 A 
ATOM      3  N   UNL     1       1.506   5.691  20.868  0.00  0.00    +0.000 NA
ATOM      4  N   UNL     1       1.988   4.556  20.339  0.00  0.00    +0.000 N 
ATOM      5  C   UNL     1       1.748   3.290  20.891  0.00  0.00    +0.000 A 
ATOM      6  O   UNL     1       1.066   3.125  21.892  0.00  0.00    +0.000 OA
ATOM      7  N   UNL     1       2.382   2.296  20.161  0.00  0.00    +0.000 N 
ATOM      8  C   UNL     1       3.134   2.454  19.027  0.00  0.00    +0.000 A 
ATOM      9  S   UNL     1       3.839   1.151  18.273  0.00  0.00    +0.000 S 
ATOM     10  N   UNL     1       3.293   3.721  18.538  0.00  0.00    +0.000 N 
ATOM     11  C   UNL     1       2.739   4.782  19.214  0.00  0.00    +0.000 A 
ATOM     12  C   UNL     1       2.769   6.146  19.003  0.00  0.00    +0.000 A 
ATOM     13  H   UNL     1       2.201   8.681  19.744  0.00  0.00    +0.000 HD
ATOM     14  H   UNL     1       2.262   1.359  20.518  0.00  0.00    +0.000 HD
ATOM     15  H   UNL     1       3.851   3.861  17.702  0.00  0.00    +0.000 HD
ENDROOT
BRANCH   1  16
ATOM     16  C   UNL     1       1.246   8.537  21.501  0.00  0.00    +0.000 C 
ATOM     17  S   UNL     1      -0.398   8.737  21.642  0.00  0.00    +0.000 S 
BRANCH  16  18
ATOM     18  N   UNL     1       2.069   8.911  22.501  0.00  0.00    +0.000 N 
ATOM     19  H   UNL     1       2.232   9.883  22.721  0.00  0.00    +0.000 HD
ATOM     20  H   UNL     1       2.647   8.202  22.954  0.00  0.00    +0.000 HD
ENDBRANCH  16  18
ENDBRANCH   1  16
BRANCH  12  21
ATOM     21  C   UNL     1       3.428   6.877  17.882  0.00  0.00    +0.000 C 
BRANCH  21  22
ATOM     22  C   UNL     1       4.763   6.225  17.606  0.00  0.00    +0.000 A 
ATOM     23  C   UNL     1       5.760   6.158  18.596  0.00  0.00    +0.000 A 
ATOM     24  C   UNL     1       6.952   5.460  18.371  0.00  0.00    +0.000 A 
ATOM     25  C   UNL     1       7.153   4.823  17.153  0.00  0.00    +0.000 A 
ATOM     26  C   UNL     1       6.193   4.895  16.151  0.00  0.00    +0.000 A 
ATOM     27  C   UNL     1       5.004   5.592  16.376  0.00  0.00    +0.000 A 
BRANCH  25  28
ATOM     28  O   UNL     1       8.281   4.100  16.900  0.00  0.00    +0.000 OA
ATOM     29  H   UNL     1       9.019   4.712  16.746  0.00  0.00    +0.000 HD
ENDBRANCH  25  28
ENDBRANCH  21  22
ENDBRANCH  12  21
TORSDOF 5
ENDMDL
MODEL 7
REMARK VINA RESULT:      -6.6      1.281      1.319
REMARK  Name = 
REMARK  5 active torsions:
REMARK  status: ('A' for Active; 'I' for Inactive)
REMARK    1  A    between atoms: N_1  and  C_2
REMARK    2  A    between atoms: C_2  and  N_4
REMARK    3  A    between atoms: C_15  and  C_16
REMARK    4  A    between atoms: C_16  and  C_17
REMARK    5  A    between atoms: C_20  and  O_21
REMARK                            x       y       z     vdW  Elec       q    Type
REMARK                         _______ _______ _______ _____ _____    ______ ____
ROOT
ATOM      1  N   UNL     1       2.945   4.026  17.700  0.00  0.00    +0.000 N 
ATOM      2  C   UNL     1       4.070   4.833  17.691  0.00  0.00    +0.000 A 
ATOM      3  N   UNL     1       5.296   4.358  17.943  0.00  0.00    +0.000 NA
ATOM      4  N   UNL     1       6.093   5.438  17.930  0.00  0.00    +0.000 N 
ATOM      5  C   UNL     1       7.467   5.380  18.204  0.00  0.00    +0.000 A 
ATOM      6  O   UNL     1       8.045   4.333  18.461  0.00  0.00    +0.000 OA
ATOM      7  N   UNL     1       8.044   6.639  18.146  0.00  0.00    +0.000 N 
ATOM      8  C   UNL     1       7.422   7.821  17.841  0.00  0.00    +0.000 A 
ATOM      9  S   UNL     1       8.261   9.256  17.826  0.00  0.00    +0.000 S 
ATOM     10  N   UNL     1       6.085   7.784  17.556  0.00  0.00    +0.000 N 
ATOM     11  C   UNL     1       5.411   6.588  17.628  0.00  0.00    +0.000 A 
ATOM     12  C   UNL     1       4.084   6.249  17.452  0.00  0.00    +0.000 A 
ATOM     13  H   UNL     1       2.057   4.465  17.514  0.00  0.00    +0.000 HD
ATOM     14  H   UNL     1       9.033   6.668  18.352  0.00  0.00    +0.000 HD
ATOM     15  H   UNL     1       5.604   8.649  17.333  0.00  0.00    +0.000 HD
ENDROOT
BRANCH   1  16
ATOM     16  C   UNL     1       2.866   2.737  18.129  0.00  0.00    +0.000 C 
ATOM     17  S   UNL     1       1.572   2.226  19.038  0.00  0.00    +0.000 S 
BRANCH  16  18
ATOM     18  N   UNL     1       3.863   1.884  17.818  0.00  0.00    +0.000 N 
ATOM     19  H   UNL     1       4.783   1.969  18.226  0.00  0.00    +0.000 HD
ATOM     20  H   UNL     1       3.726   1.227  17.050  0.00  0.00    +0.000 HD
ENDBRANCH  16  18
ENDBRANCH   1  16
BRANCH  12  21
ATOM     21  C   UNL     1       2.959   7.152  17.074  0.00  0.00    +0.000 C 
BRANCH  21  22
ATOM     22  C   UNL     1       2.378   7.746  18.336  0.00  0.00    +0.000 A 
ATOM     23  C   UNL     1       1.751   9.005  18.328  0.00  0.00    +0.000 A 
ATOM     24  C   UNL     1       1.121   9.503  19.475  0.00  0.00    +0.000 A 
ATOM     25  C   UNL     1       1.114   8.741  20.637  0.00  0.00    +0.000 A 
ATOM     26  C   UNL     1       1.746   7.505  20.676  0.00  0.00    +0.000 A 
ATOM     27  C   UNL     1       2.375   7.009  19.532  0.00  0.00    +0.000 A 
BRANCH  25  28
ATOM     28  O   UNL     1       0.481   9.166  21.768  0.00  0.00    +0.000 OA
ATOM     29  H   UNL     1       0.819   8.660  22.525  0.00  0.00    +0.000 HD
ENDBRANCH  25  28
ENDBRANCH  21  22
ENDBRANCH  12  21
TORSDOF 5
ENDMDL
MODEL 8
REMARK VINA RESULT:      -6.6      2.944      5.613
REMARK  Name = 
REMARK  5 active torsions:
REMARK  status: ('A' for Active; 'I' for Inactive)
REMARK    1  A    between atoms: N_1  and  C_2
REMARK    2  A    between atoms: C_2  and  N_4
REMARK    3  A    between atoms: C_15  and  C_16
REMARK    4  A    between atoms: C_16  and  C_17
REMARK    5  A    between atoms: C_20  and  O_21
REMARK                            x       y       z     vdW  Elec       q    Type
REMARK                         _______ _______ _______ _____ _____    ______ ____
ROOT
ATOM      1  N   UNL     1       3.193   4.719  18.704  0.00  0.00    +0.000 N 
ATOM      2  C   UNL     1       2.818   6.040  18.877  0.00  0.00    +0.000 A 
ATOM      3  N   UNL     1       2.149   6.461  19.957  0.00  0.00    +0.000 NA
ATOM      4  N   UNL     1       1.895   7.758  19.722  0.00  0.00    +0.000 N 
ATOM      5  C   UNL     1       1.158   8.566  20.599  0.00  0.00    +0.000 A 
ATOM      6  O   UNL     1       0.704   8.150  21.655  0.00  0.00    +0.000 OA
ATOM      7  N   UNL     1       1.026   9.854  20.103  0.00  0.00    +0.000 N 
ATOM      8  C   UNL     1       1.542  10.348  18.934  0.00  0.00    +0.000 A 
ATOM      9  S   UNL     1       1.281  11.924  18.476  0.00  0.00    +0.000 S 
ATOM     10  N   UNL     1       2.275   9.499  18.152  0.00  0.00    +0.000 N 
ATOM     11  C   UNL     1       2.430   8.188  18.535  0.00  0.00    +0.000 A 
ATOM     12  C   UNL     1       3.053   7.107  17.945  0.00  0.00    +0.000 A 
ATOM     13  H   UNL     1       3.683   4.482  17.855  0.00  0.00    +0.000 HD
ATOM     14  H   UNL     1       0.488  10.483  20.682  0.00  0.00    +0.000 HD
ATOM     15  H   UNL     1       2.662   9.843  17.279  0.00  0.00    +0.000 HD
ENDROOT
BRANCH   1  16
ATOM     16  C   UNL     1       2.804   3.653  19.455  0.00  0.00    +0.000 C 
ATOM     17  S   UNL     1       3.921   2.552  20.004  0.00  0.00    +0.000 S 
BRANCH  16  18
ATOM     18  N   UNL     1       1.494   3.496  19.734  0.00  0.00    +0.000 N 
ATOM     19  H   UNL     1       0.908   4.276  19.994  0.00  0.00    +0.000 HD
ATOM     20  H   UNL     1       1.120   2.551  19.822  0.00  0.00    +0.000 HD
ENDBRANCH  16  18
ENDBRANCH   1  16
BRANCH  12  21
ATOM     21  C   UNL     1       3.811   7.086  16.660  0.00  0.00    +0.000 C 
BRANCH  21  22
ATOM     22  C   UNL     1       5.095   6.319  16.876  0.00  0.00    +0.000 A 
ATOM     23  C   UNL     1       6.073   6.774  17.779  0.00  0.00    +0.000 A 
ATOM     24  C   UNL     1       7.211   6.007  18.055  0.00  0.00    +0.000 A 
ATOM     25  C   UNL     1       7.377   4.779  17.427  0.00  0.00    +0.000 A 
ATOM     26  C   UNL     1       6.437   4.319  16.514  0.00  0.00    +0.000 A 
ATOM     27  C   UNL     1       5.302   5.085  16.239  0.00  0.00    +0.000 A 
BRANCH  25  28
ATOM     28  O   UNL     1       8.449   3.978  17.691  0.00  0.00    +0.000 OA
ATOM     29  H   UNL     1       8.620   3.417  16.917  0.00  0.00    +0.000 HD
ENDBRANCH  25  28
ENDBRANCH  21  22
ENDBRANCH  12  21
TORSDOF 5
ENDMDL
MODEL 9
REMARK VINA RESULT:      -6.6      7.184      9.843
REMARK  Name = 
REMARK  5 active torsions:
REMARK  status: ('A' for Active; 'I' for Inactive)
REMARK    1  A    between atoms: N_1  and  C_2
REMARK    2  A    between atoms: C_2  and  N_4
REMARK    3  A    between atoms: C_15  and  C_16
REMARK    4  A    between atoms: C_16  and  C_17
REMARK    5  A    between atoms: C_20  and  O_21
REMARK                            x       y       z     vdW  Elec       q    Type
REMARK                         _______ _______ _______ _____ _____    ______ ____
ROOT
ATOM      1  N   UNL     1      -1.652  12.668  20.896  0.00  0.00    +0.000 N 
ATOM      2  C   UNL     1      -2.115  12.263  19.656  0.00  0.00    +0.000 A 
ATOM      3  N   UNL     1      -3.419  12.189  19.367  0.00  0.00    +0.000 NA
ATOM      4  N   UNL     1      -3.469  11.683  18.124  0.00  0.00    +0.000 N 
ATOM      5  C   UNL     1      -4.670  11.396  17.460  0.00  0.00    +0.000 A 
ATOM      6  O   UNL     1      -5.766  11.601  17.962  0.00  0.00    +0.000 OA
ATOM      7  N   UNL     1      -4.434  10.863  16.203  0.00  0.00    +0.000 N 
ATOM      8  C   UNL     1      -3.217  10.643  15.613  0.00  0.00    +0.000 A 
ATOM      9  S   UNL     1      -3.105   9.981  14.093  0.00  0.00    +0.000 S 
ATOM     10  N   UNL     1      -2.095  10.980  16.318  0.00  0.00    +0.000 N 
ATOM     11  C   UNL     1      -2.222  11.478  17.593  0.00  0.00    +0.000 A 
ATOM     12  C   UNL     1      -1.298  11.850  18.550  0.00  0.00    +0.000 A 
ATOM     13  H   UNL     1      -0.653  12.683  21.037  0.00  0.00    +0.000 HD
ATOM     14  H   UNL     1      -5.261  10.617  15.679  0.00  0.00    +0.000 HD
ATOM     15  H   UNL     1      -1.184  10.820  15.902  0.00  0.00    +0.000 HD
ENDROOT
BRANCH   1  16
ATOM     16  C   UNL     1      -2.390  12.858  22.023  0.00  0.00    +0.000 C 
ATOM     17  S   UNL     1      -2.247  11.819  23.313  0.00  0.00    +0.000 S 
BRANCH  16  18
ATOM     18  N   UNL     1      -3.251  13.895  22.072  0.00  0.00    +0.000 N 
ATOM     19  H   UNL     1      -3.746  14.136  22.918  0.00  0.00    +0.000 HD
ATOM     20  H   UNL     1      -3.513  14.357  21.201  0.00  0.00    +0.000 HD
ENDBRANCH  16  18
ENDBRANCH   1  16
BRANCH  12  21
ATOM     21  C   UNL     1       0.188  11.844  18.427  0.00  0.00    +0.000 C 
BRANCH  21  22
ATOM     22  C   UNL     1       0.697  10.486  18.849  0.00  0.00    +0.000 A 
ATOM     23  C   UNL     1       1.427   9.673  17.964  0.00  0.00    +0.000 A 
ATOM     24  C   UNL     1       1.988   8.463  18.392  0.00  0.00    +0.000 A 
ATOM     25  C   UNL     1       1.821   8.061  19.711  0.00  0.00    +0.000 A 
ATOM     26  C   UNL     1       1.084   8.836  20.598  0.00  0.00    +0.000 A 
ATOM     27  C   UNL     1       0.525  10.042  20.170  0.00  0.00    +0.000 A 
BRANCH  25  28
ATOM     28  O   UNL     1       2.379   6.911  20.185  0.00  0.00    +0.000 OA
ATOM     29  H   UNL     1       2.035   6.161  19.673  0.00  0.00    +0.000 HD
ENDBRANCH  25  28
ENDBRANCH  21  22
ENDBRANCH  12  21
TORSDOF 5
ENDMDL
