MODEL 1
REMARK VINA RESULT:      -7.0      0.000      0.000
REMARK  Name = 
REMARK  13 active torsions:
REMARK  status: ('A' for Active; 'I' for Inactive)
REMARK    1  A    between atoms: C_1  and  O_2
REMARK    2  A    between atoms: O_2  and  C_3
REMARK    3  A    between atoms: N_7  and  C_8
REMARK    4  A    between atoms: N_11  and  C_12
REMARK    5  A    between atoms: N_21  and  C_22
REMARK    6  A    between atoms: C_28  and  C_29
REMARK    7  A    between atoms: C_29  and  C_30
REMARK    8  A    between atoms: C_30  and  C_31
REMARK    9  A    between atoms: C_31  and  N_32
REMARK   10  A    between atoms: N_32  and  C_33
REMARK   11  A    between atoms: N_32  and  C_34
REMARK   12  A    between atoms: C_34  and  C_35
REMARK   13  A    between atoms: C_35  and  O_36
REMARK                            x       y       z     vdW  Elec       q    Type
REMARK                         _______ _______ _______ _____ _____    ______ ____
ROOT
ATOM      1  C   UNL     1       2.133   7.597  19.397  0.00  0.00    +0.000 A 
ATOM      2  C   UNL     1       2.042   8.975  19.141  0.00  0.00    +0.000 A 
ATOM      3  C   UNL     1       1.291   9.855  19.969  0.00  0.00    +0.000 A 
ATOM      4  C   UNL     1       1.151  11.248  19.793  0.00  0.00    +0.000 A 
ATOM      5  N   UNL     1       1.752  11.850  18.692  0.00  0.00    +0.000 N 
ATOM      6  N   UNL     1       0.426  11.999  20.638  0.00  0.00    +0.000 NA
ATOM      7  C   UNL     1      -0.185  11.396  21.665  0.00  0.00    +0.000 A 
ATOM      8  N   UNL     1      -0.872  12.160  22.582  0.00  0.00    +0.000 N 
ATOM      9  C   UNL     1      -1.966  11.579  23.337  0.00  0.00    +0.000 C 
ATOM     10  C   UNL     1      -3.294  12.298  23.080  0.00  0.00    +0.000 C 
ATOM     11  C   UNL     1      -3.327  13.718  23.655  0.00  0.00    +0.000 C 
ATOM     12  N   UNL     1      -2.814  14.786  22.784  0.00  0.00    +0.000 NA
ATOM     13  C   UNL     1      -2.608  16.013  23.554  0.00  0.00    +0.000 C 
ATOM     14  C   UNL     1      -1.617  14.439  21.993  0.00  0.00    +0.000 C 
ATOM     15  C   UNL     1      -0.557  13.576  22.698  0.00  0.00    +0.000 C 
ATOM     16  N   UNL     1      -0.123  10.070  21.880  0.00  0.00    +0.000 NA
ATOM     17  C   UNL     1       0.606   9.326  21.052  0.00  0.00    +0.000 A 
ATOM     18  C   UNL     1       0.706   7.961  21.302  0.00  0.00    +0.000 A 
ATOM     19  C   UNL     1       1.471   7.069  20.509  0.00  0.00    +0.000 A 
ATOM     20  H   UNL     1       2.743  11.644  18.626  0.00  0.00    +0.000 HD
ENDROOT
BRANCH   5  21
ATOM     21  C   UNL     1       1.376  13.175  18.187  0.00  0.00    +0.000 C 
ATOM     22  C   UNL     1       2.384  14.143  18.827  0.00  0.00    +0.000 C 
ATOM     23  C   UNL     1       1.937  15.597  18.867  0.00  0.00    +0.000 C 
ATOM     24  N   UNL     1       0.595  15.713  19.444  0.00  0.00    +0.000 NA
ATOM     25  C   UNL     1       0.239  17.122  19.608  0.00  0.00    +0.000 C 
ATOM     26  C   UNL     1      -0.372  15.012  18.598  0.00  0.00    +0.000 C 
ATOM     27  C   UNL     1      -0.082  13.509  18.539  0.00  0.00    +0.000 C 
ENDBRANCH   5  21
BRANCH   1  29
ATOM     28  C   UNL     1       3.391   7.631  17.361  0.00  0.00    +0.000 C 
ATOM     29  O   UNL     1       2.978   6.951  18.539  0.00  0.00    +0.000 OA
ENDBRANCH   1  29
BRANCH  19  30
ATOM     30  C   UNL     1       1.573   5.646  21.010  0.00  0.00    +0.000 C 
BRANCH  30  31
ATOM     31  C   UNL     1       0.931   4.615  20.077  0.00  0.00    +0.000 C 
BRANCH  31  32
ATOM     32  C   UNL     1       1.545   3.209  20.187  0.00  0.00    +0.000 C 
BRANCH  32  33
ATOM     33  N   UNL     1       1.868   2.628  18.862  0.00  0.00    +0.000 NA
ATOM     34  C   UNL     1       1.952   3.688  17.842  0.00  0.00    +0.000 C 
BRANCH  33  35
ATOM     35  C   UNL     1       3.166   1.904  18.879  0.00  0.00    +0.000 C 
BRANCH  35  36
ATOM     36  C   UNL     1       4.153   2.401  19.947  0.00  0.00    +0.000 C 
BRANCH  36  37
ATOM     37  O   UNL     1       5.259   1.510  20.055  0.00  0.00    +0.000 OA
ATOM     38  H   UNL     1       4.926   0.754  20.581  0.00  0.00    +0.000 HD
ENDBRANCH  36  37
ENDBRANCH  35  36
ENDBRANCH  33  35
ENDBRANCH  32  33
ENDBRANCH  31  32
ENDBRANCH  30  31
ENDBRANCH  19  30
TORSDOF 9
ENDMDL
MODEL 2
REMARK VINA RESULT:      -6.6      3.777      9.954
REMARK  Name = 
REMARK  13 active torsions:
REMARK  status: ('A' for Active; 'I' for Inactive)
REMARK    1  A    between atoms: C_1  and  O_2
REMARK    2  A    between atoms: O_2  and  C_3
REMARK    3  A    between atoms: N_7  and  C_8
REMARK    4  A    between atoms: N_11  and  C_12
REMARK    5  A    between atoms: N_21  and  C_22
REMARK    6  A    between atoms: C_28  and  C_29
REMARK    7  A    between atoms: C_29  and  C_30
REMARK    8  A    between atoms: C_30  and  C_31
REMARK    9  A    between atoms: C_31  and  N_32
REMARK   10  A    between atoms: N_32  and  C_33
REMARK   11  A    between atoms: N_32  and  C_34
REMARK   12  A    between atoms: C_34  and  C_35
REMARK   13  A    between atoms: C_35  and  O_36
REMARK                            x       y       z     vdW  Elec       q    Type
REMARK                         _______ _______ _______ _____ _____    ______ ____
ROOT
ATOM      1  C   UNL     1      -0.101   9.852  20.685  0.00  0.00    +0.000 A 
ATOM      2  C   UNL     1       0.429   8.560  20.832  0.00  0.00    +0.000 A 
ATOM      3  C   UNL     1       1.463   8.062  19.991  0.00  0.00    +0.000 A 
ATOM      4  C   UNL     1       2.059   6.786  20.071  0.00  0.00    +0.000 A 
ATOM      5  N   UNL     1       1.590   5.883  21.020  0.00  0.00    +0.000 N 
ATOM      6  N   UNL     1       3.040   6.409  19.234  0.00  0.00    +0.000 NA
ATOM      7  C   UNL     1       3.446   7.273  18.296  0.00  0.00    +0.000 A 
ATOM      8  N   UNL     1       4.499   6.930  17.478  0.00  0.00    +0.000 N 
ATOM      9  C   UNL     1       4.613   7.519  16.156  0.00  0.00    +0.000 C 
ATOM     10  C   UNL     1       4.572   6.465  15.046  0.00  0.00    +0.000 C 
ATOM     11  C   UNL     1       5.816   5.570  15.023  0.00  0.00    +0.000 C 
ATOM     12  N   UNL     1       5.776   4.376  15.879  0.00  0.00    +0.000 NA
ATOM     13  C   UNL     1       7.114   3.799  16.008  0.00  0.00    +0.000 C 
ATOM     14  C   UNL     1       5.141   4.563  17.199  0.00  0.00    +0.000 C 
ATOM     15  C   UNL     1       5.425   5.895  17.912  0.00  0.00    +0.000 C 
ATOM     16  N   UNL     1       2.905   8.493  18.139  0.00  0.00    +0.000 NA
ATOM     17  C   UNL     1       1.943   8.874  18.975  0.00  0.00    +0.000 A 
ATOM     18  C   UNL     1       1.416  10.155  18.840  0.00  0.00    +0.000 A 
ATOM     19  C   UNL     1       0.407  10.685  19.683  0.00  0.00    +0.000 A 
ATOM     20  H   UNL     1       1.592   6.266  21.959  0.00  0.00    +0.000 HD
ENDROOT
BRANCH   5  21
ATOM     21  C   UNL     1       1.840   4.439  20.958  0.00  0.00    +0.000 C 
ATOM     22  C   UNL     1       3.346   4.309  20.681  0.00  0.00    +0.000 C 
ATOM     23  C   UNL     1       3.777   2.973  20.095  0.00  0.00    +0.000 C 
ATOM     24  N   UNL     1       2.955   2.626  18.933  0.00  0.00    +0.000 NA
ATOM     25  C   UNL     1       3.471   1.415  18.296  0.00  0.00    +0.000 C 
ATOM     26  C   UNL     1       1.559   2.462  19.342  0.00  0.00    +0.000 C 
ATOM     27  C   UNL     1       0.974   3.772  19.878  0.00  0.00    +0.000 C 
ENDBRANCH   5  21
BRANCH   1  29
ATOM     28  C   UNL     1      -0.605  10.102  23.012  0.00  0.00    +0.000 C 
ATOM     29  O   UNL     1      -1.015  10.165  21.653  0.00  0.00    +0.000 OA
ENDBRANCH   1  29
BRANCH  19  30
ATOM     30  C   UNL     1       0.053  12.140  19.474  0.00  0.00    +0.000 C 
BRANCH  30  31
ATOM     31  C   UNL     1      -0.686  12.413  18.161  0.00  0.00    +0.000 C 
BRANCH  31  32
ATOM     32  C   UNL     1      -2.109  11.830  18.116  0.00  0.00    +0.000 C 
BRANCH  32  33
ATOM     33  N   UNL     1      -2.236  10.725  17.136  0.00  0.00    +0.000 NA
ATOM     34  C   UNL     1      -2.976   9.596  17.726  0.00  0.00    +0.000 C 
BRANCH  33  35
ATOM     35  C   UNL     1      -2.957  11.156  15.910  0.00  0.00    +0.000 C 
BRANCH  35  36
ATOM     36  C   UNL     1      -2.990  10.102  14.792  0.00  0.00    +0.000 C 
BRANCH  36  37
ATOM     37  O   UNL     1      -4.294  10.019  14.225  0.00  0.00    +0.000 OA
ATOM     38  H   UNL     1      -4.905  10.224  14.961  0.00  0.00    +0.000 HD
ENDBRANCH  36  37
ENDBRANCH  35  36
ENDBRANCH  33  35
ENDBRANCH  32  33
ENDBRANCH  31  32
ENDBRANCH  30  31
ENDBRANCH  19  30
TORSDOF 9
ENDMDL
MODEL 3
REMARK VINA RESULT:      -6.4      2.072      4.723
REMARK  Name = 
REMARK  13 active torsions:
REMARK  status: ('A' for Active; 'I' for Inactive)
REMARK    1  A    between atoms: C_1  and  O_2
REMARK    2  A    between atoms: O_2  and  C_3
REMARK    3  A    between atoms: N_7  and  C_8
REMARK    4  A    between atoms: N_11  and  C_12
REMARK    5  A    between atoms: N_21  and  C_22
REMARK    6  A    between atoms: C_28  and  C_29
REMARK    7  A    between atoms: C_29  and  C_30
REMARK    8  A    between atoms: C_30  and  C_31
REMARK    9  A    between atoms: C_31  and  N_32
REMARK   10  A    between atoms: N_32  and  C_33
REMARK   11  A    between atoms: N_32  and  C_34
REMARK   12  A    between atoms: C_34  and  C_35
REMARK   13  A    between atoms: C_35  and  O_36
REMARK                            x       y       z     vdW  Elec       q    Type
REMARK                         _______ _______ _______ _____ _____    ______ ____
ROOT
ATOM      1  C   UNL     1       1.554   7.347  19.981  0.00  0.00    +0.000 A 
ATOM      2  C   UNL     1       0.901   8.395  20.651  0.00  0.00    +0.000 A 
ATOM      3  C   UNL     1       0.931   9.736  20.177  0.00  0.00    +0.000 A 
ATOM      4  C   UNL     1       0.300  10.846  20.778  0.00  0.00    +0.000 A 
ATOM      5  N   UNL     1      -0.388  10.662  21.973  0.00  0.00    +0.000 N 
ATOM      6  N   UNL     1       0.378  12.078  20.248  0.00  0.00    +0.000 NA
ATOM      7  C   UNL     1       1.085  12.245  19.123  0.00  0.00    +0.000 A 
ATOM      8  N   UNL     1       1.115  13.486  18.527  0.00  0.00    +0.000 N 
ATOM      9  C   UNL     1       2.243  13.865  17.696  0.00  0.00    +0.000 C 
ATOM     10  C   UNL     1       2.974  15.097  18.239  0.00  0.00    +0.000 C 
ATOM     11  C   UNL     1       2.146  16.382  18.128  0.00  0.00    +0.000 C 
ATOM     12  N   UNL     1       1.243  16.674  19.252  0.00  0.00    +0.000 NA
ATOM     13  C   UNL     1       0.300  17.731  18.883  0.00  0.00    +0.000 C 
ATOM     14  C   UNL     1       0.547  15.507  19.826  0.00  0.00    +0.000 C 
ATOM     15  C   UNL     1       0.060  14.441  18.830  0.00  0.00    +0.000 C 
ATOM     16  N   UNL     1       1.738  11.243  18.511  0.00  0.00    +0.000 NA
ATOM     17  C   UNL     1       1.651  10.019  19.027  0.00  0.00    +0.000 A 
ATOM     18  C   UNL     1       2.290   8.975  18.366  0.00  0.00    +0.000 A 
ATOM     19  C   UNL     1       2.251   7.626  18.802  0.00  0.00    +0.000 A 
ATOM     20  H   UNL     1      -1.084   9.926  21.914  0.00  0.00    +0.000 HD
ENDROOT
BRANCH   5  21
ATOM     21  C   UNL     1      -0.746  11.759  22.879  0.00  0.00    +0.000 C 
ATOM     22  C   UNL     1      -2.261  11.619  23.092  0.00  0.00    +0.000 C 
ATOM     23  C   UNL     1      -2.958  12.881  23.580  0.00  0.00    +0.000 C 
ATOM     24  N   UNL     1      -2.607  14.027  22.737  0.00  0.00    +0.000 NA
ATOM     25  C   UNL     1      -3.392  15.197  23.128  0.00  0.00    +0.000 C 
ATOM     26  C   UNL     1      -1.170  14.292  22.830  0.00  0.00    +0.000 C 
ATOM     27  C   UNL     1      -0.347  13.119  22.287  0.00  0.00    +0.000 C 
ENDBRANCH   5  21
BRANCH   1  29
ATOM     28  C   UNL     1       2.437   5.301  20.852  0.00  0.00    +0.000 C 
ATOM     29  O   UNL     1       1.321   6.126  20.549  0.00  0.00    +0.000 OA
ENDBRANCH   1  29
BRANCH  19  30
ATOM     30  C   UNL     1       2.889   6.606  17.886  0.00  0.00    +0.000 C 
BRANCH  30  31
ATOM     31  C   UNL     1       4.420   6.604  17.933  0.00  0.00    +0.000 C 
BRANCH  31  32
ATOM     32  C   UNL     1       5.067   5.513  17.063  0.00  0.00    +0.000 C 
BRANCH  32  33
ATOM     33  N   UNL     1       6.054   4.702  17.816  0.00  0.00    +0.000 NA
ATOM     34  C   UNL     1       7.312   4.589  17.057  0.00  0.00    +0.000 C 
BRANCH  33  35
ATOM     35  C   UNL     1       6.368   5.304  19.137  0.00  0.00    +0.000 C 
BRANCH  35  36
ATOM     36  C   UNL     1       7.843   5.693  19.321  0.00  0.00    +0.000 C 
BRANCH  36  37
ATOM     37  O   UNL     1       8.293   5.336  20.625  0.00  0.00    +0.000 OA
ATOM     38  H   UNL     1       9.211   5.670  20.678  0.00  0.00    +0.000 HD
ENDBRANCH  36  37
ENDBRANCH  35  36
ENDBRANCH  33  35
ENDBRANCH  32  33
ENDBRANCH  31  32
ENDBRANCH  30  31
ENDBRANCH  19  30
TORSDOF 9
ENDMDL
MODEL 4
REMARK VINA RESULT:      -6.4      2.920      5.165
REMARK  Name = 
REMARK  13 active torsions:
REMARK  status: ('A' for Active; 'I' for Inactive)
REMARK    1  A    between atoms: C_1  and  O_2
REMARK    2  A    between atoms: O_2  and  C_3
REMARK    3  A    between atoms: N_7  and  C_8
REMARK    4  A    between atoms: N_11  and  C_12
REMARK    5  A    between atoms: N_21  and  C_22
REMARK    6  A    between atoms: C_28  and  C_29
REMARK    7  A    between atoms: C_29  and  C_30
REMARK    8  A    between atoms: C_30  and  C_31
REMARK    9  A    between atoms: C_31  and  N_32
REMARK   10  A    between atoms: N_32  and  C_33
REMARK   11  A    between atoms: N_32  and  C_34
REMARK   12  A    between atoms: C_34  and  C_35
REMARK   13  A    between atoms: C_35  and  O_36
REMARK                            x       y       z     vdW  Elec       q    Type
REMARK                         _______ _______ _______ _____ _____    ______ ____
ROOT
ATOM      1  C   UNL     1      -0.692  10.328  18.537  0.00  0.00    +0.000 A 
ATOM      2  C   UNL     1      -1.083  11.494  19.215  0.00  0.00    +0.000 A 
ATOM      3  C   UNL     1      -0.141  12.423  19.737  0.00  0.00    +0.000 A 
ATOM      4  C   UNL     1      -0.442  13.619  20.422  0.00  0.00    +0.000 A 
ATOM      5  N   UNL     1      -1.775  13.934  20.670  0.00  0.00    +0.000 N 
ATOM      6  N   UNL     1       0.521  14.441  20.870  0.00  0.00    +0.000 NA
ATOM      7  C   UNL     1       1.799  14.098  20.665  0.00  0.00    +0.000 A 
ATOM      8  N   UNL     1       2.797  14.964  21.053  0.00  0.00    +0.000 N 
ATOM      9  C   UNL     1       4.116  14.451  21.376  0.00  0.00    +0.000 C 
ATOM     10  C   UNL     1       4.519  14.755  22.822  0.00  0.00    +0.000 C 
ATOM     11  C   UNL     1       4.767  16.247  23.074  0.00  0.00    +0.000 C 
ATOM     12  N   UNL     1       3.592  17.049  23.447  0.00  0.00    +0.000 NA
ATOM     13  C   UNL     1       3.900  18.476  23.345  0.00  0.00    +0.000 C 
ATOM     14  C   UNL     1       2.344  16.715  22.733  0.00  0.00    +0.000 C 
ATOM     15  C   UNL     1       2.480  16.371  21.240  0.00  0.00    +0.000 C 
ATOM     16  N   UNL     1       2.164  12.960  20.049  0.00  0.00    +0.000 NA
ATOM     17  C   UNL     1       1.211  12.152  19.592  0.00  0.00    +0.000 A 
ATOM     18  C   UNL     1       1.590  10.998  18.914  0.00  0.00    +0.000 A 
ATOM     19  C   UNL     1       0.671  10.071  18.360  0.00  0.00    +0.000 A 
ATOM     20  H   UNL     1      -2.341  13.928  19.828  0.00  0.00    +0.000 HD
ENDROOT
BRANCH   5  21
ATOM     21  C   UNL     1      -2.203  14.912  21.677  0.00  0.00    +0.000 C 
ATOM     22  C   UNL     1      -2.692  14.068  22.865  0.00  0.00    +0.000 C 
ATOM     23  C   UNL     1      -3.622  14.794  23.825  0.00  0.00    +0.000 C 
ATOM     24  N   UNL     1      -4.719  15.440  23.098  0.00  0.00    +0.000 NA
ATOM     25  C   UNL     1      -5.680  16.010  24.041  0.00  0.00    +0.000 C 
ATOM     26  C   UNL     1      -4.184  16.462  22.196  0.00  0.00    +0.000 C 
ATOM     27  C   UNL     1      -3.287  15.845  21.118  0.00  0.00    +0.000 C 
ENDBRANCH   5  21
BRANCH   1  29
ATOM     28  C   UNL     1      -2.276  10.007  16.772  0.00  0.00    +0.000 C 
ATOM     29  O   UNL     1      -1.750   9.624  18.035  0.00  0.00    +0.000 OA
ENDBRANCH   1  29
BRANCH  19  30
ATOM     30  C   UNL     1       1.263   8.947  17.542  0.00  0.00    +0.000 C 
BRANCH  30  31
ATOM     31  C   UNL     1       2.499   8.304  18.178  0.00  0.00    +0.000 C 
BRANCH  31  32
ATOM     32  C   UNL     1       2.343   6.798  18.456  0.00  0.00    +0.000 C 
BRANCH  32  33
ATOM     33  N   UNL     1       3.560   6.029  18.103  0.00  0.00    +0.000 NA
ATOM     34  C   UNL     1       4.497   6.872  17.340  0.00  0.00    +0.000 C 
BRANCH  33  35
ATOM     35  C   UNL     1       4.269   5.534  19.312  0.00  0.00    +0.000 C 
BRANCH  35  36
ATOM     36  C   UNL     1       5.730   5.129  19.067  0.00  0.00    +0.000 C 
BRANCH  36  37
ATOM     37  O   UNL     1       5.832   3.720  18.885  0.00  0.00    +0.000 OA
ATOM     38  H   UNL     1       4.933   3.431  18.627  0.00  0.00    +0.000 HD
ENDBRANCH  36  37
ENDBRANCH  35  36
ENDBRANCH  33  35
ENDBRANCH  32  33
ENDBRANCH  31  32
ENDBRANCH  30  31
ENDBRANCH  19  30
TORSDOF 9
ENDMDL
MODEL 5
REMARK VINA RESULT:      -6.4      0.938      1.175
REMARK  Name = 
REMARK  13 active torsions:
REMARK  status: ('A' for Active; 'I' for Inactive)
REMARK    1  A    between atoms: C_1  and  O_2
REMARK    2  A    between atoms: O_2  and  C_3
REMARK    3  A    between atoms: N_7  and  C_8
REMARK    4  A    between atoms: N_11  and  C_12
REMARK    5  A    between atoms: N_21  and  C_22
REMARK    6  A    between atoms: C_28  and  C_29
REMARK    7  A    between atoms: C_29  and  C_30
REMARK    8  A    between atoms: C_30  and  C_31
REMARK    9  A    between atoms: C_31  and  N_32
REMARK   10  A    between atoms: N_32  and  C_33
REMARK   11  A    between atoms: N_32  and  C_34
REMARK   12  A    between atoms: C_34  and  C_35
REMARK   13  A    between atoms: C_35  and  O_36
REMARK                            x       y       z     vdW  Elec       q    Type
REMARK                         _______ _______ _______ _____ _____    ______ ____
ROOT
ATOM      1  C   UNL     1       2.014   7.764  19.477  0.00  0.00    +0.000 A 
ATOM      2  C   UNL     1       1.952   9.146  19.234  0.00  0.00    +0.000 A 
ATOM      3  C   UNL     1       1.191  10.028  20.050  0.00  0.00    +0.000 A 
ATOM      4  C   UNL     1       1.078  11.425  19.886  0.00  0.00    +0.000 A 
ATOM      5  N   UNL     1       1.721  12.029  18.809  0.00  0.00    +0.000 N 
ATOM      6  N   UNL     1       0.340  12.178  20.718  0.00  0.00    +0.000 NA
ATOM      7  C   UNL     1      -0.310  11.574  21.720  0.00  0.00    +0.000 A 
ATOM      8  N   UNL     1      -1.011  12.340  22.625  0.00  0.00    +0.000 N 
ATOM      9  C   UNL     1      -2.136  11.768  23.341  0.00  0.00    +0.000 C 
ATOM     10  C   UNL     1      -3.444  12.511  23.054  0.00  0.00    +0.000 C 
ATOM     11  C   UNL     1      -3.472  13.925  23.643  0.00  0.00    +0.000 C 
ATOM     12  N   UNL     1      -2.916  14.994  22.800  0.00  0.00    +0.000 NA
ATOM     13  C   UNL     1      -2.714  16.209  23.590  0.00  0.00    +0.000 C 
ATOM     14  C   UNL     1      -1.702  14.637  22.040  0.00  0.00    +0.000 C 
ATOM     15  C   UNL     1      -0.677  13.749  22.766  0.00  0.00    +0.000 C 
ATOM     16  N   UNL     1      -0.275  10.245  21.921  0.00  0.00    +0.000 NA
ATOM     17  C   UNL     1       0.466   9.499  21.107  0.00  0.00    +0.000 A 
ATOM     18  C   UNL     1       0.538   8.130  21.344  0.00  0.00    +0.000 A 
ATOM     19  C   UNL     1       1.311   7.234  20.563  0.00  0.00    +0.000 A 
ATOM     20  H   UNL     1       2.710  11.808  18.770  0.00  0.00    +0.000 HD
ENDROOT
BRANCH   5  21
ATOM     21  C   UNL     1       1.380  13.366  18.309  0.00  0.00    +0.000 C 
ATOM     22  C   UNL     1       2.394  14.309  18.977  0.00  0.00    +0.000 C 
ATOM     23  C   UNL     1       1.975  15.770  19.021  0.00  0.00    +0.000 C 
ATOM     24  N   UNL     1       0.625  15.908  19.573  0.00  0.00    +0.000 NA
ATOM     25  C   UNL     1       0.293  17.322  19.742  0.00  0.00    +0.000 C 
ATOM     26  C   UNL     1      -0.339  15.233  18.702  0.00  0.00    +0.000 C 
ATOM     27  C   UNL     1      -0.077  13.725  18.636  0.00  0.00    +0.000 C 
ENDBRANCH   5  21
BRANCH   1  29
ATOM     28  C   UNL     1       3.380   7.820  17.513  0.00  0.00    +0.000 C 
ATOM     29  O   UNL     1       2.873   7.114  18.636  0.00  0.00    +0.000 OA
ENDBRANCH   1  29
BRANCH  19  30
ATOM     30  C   UNL     1       1.376   5.804  21.050  0.00  0.00    +0.000 C 
BRANCH  30  31
ATOM     31  C   UNL     1       1.861   4.811  19.990  0.00  0.00    +0.000 C 
BRANCH  31  32
ATOM     32  C   UNL     1       2.700   3.654  20.559  0.00  0.00    +0.000 C 
BRANCH  32  33
ATOM     33  N   UNL     1       3.922   3.395  19.760  0.00  0.00    +0.000 NA
ATOM     34  C   UNL     1       4.498   2.085  20.111  0.00  0.00    +0.000 C 
BRANCH  33  35
ATOM     35  C   UNL     1       3.636   3.395  18.302  0.00  0.00    +0.000 C 
BRANCH  35  36
ATOM     36  C   UNL     1       3.305   2.011  17.722  0.00  0.00    +0.000 C 
BRANCH  36  37
ATOM     37  O   UNL     1       1.894   1.824  17.655  0.00  0.00    +0.000 OA
ATOM     38  H   UNL     1       1.768   0.855  17.606  0.00  0.00    +0.000 HD
ENDBRANCH  36  37
ENDBRANCH  35  36
ENDBRANCH  33  35
ENDBRANCH  32  33
ENDBRANCH  31  32
ENDBRANCH  30  31
ENDBRANCH  19  30
TORSDOF 9
ENDMDL
MODEL 6
REMARK VINA RESULT:      -6.4      0.948      1.140
REMARK  Name = 
REMARK  13 active torsions:
REMARK  status: ('A' for Active; 'I' for Inactive)
REMARK    1  A    between atoms: C_1  and  O_2
REMARK    2  A    between atoms: O_2  and  C_3
REMARK    3  A    between atoms: N_7  and  C_8
REMARK    4  A    between atoms: N_11  and  C_12
REMARK    5  A    between atoms: N_21  and  C_22
REMARK    6  A    between atoms: C_28  and  C_29
REMARK    7  A    between atoms: C_29  and  C_30
REMARK    8  A    between atoms: C_30  and  C_31
REMARK    9  A    between atoms: C_31  and  N_32
REMARK   10  A    between atoms: N_32  and  C_33
REMARK   11  A    between atoms: N_32  and  C_34
REMARK   12  A    between atoms: C_34  and  C_35
REMARK   13  A    between atoms: C_35  and  O_36
REMARK                            x       y       z     vdW  Elec       q    Type
REMARK                         _______ _______ _______ _____ _____    ______ ____
ROOT
ATOM      1  C   UNL     1       2.486   8.226  18.368  0.00  0.00    +0.000 A 
ATOM      2  C   UNL     1       2.274   9.611  18.274  0.00  0.00    +0.000 A 
ATOM      3  C   UNL     1       1.555  10.340  19.263  0.00  0.00    +0.000 A 
ATOM      4  C   UNL     1       1.303  11.728  19.254  0.00  0.00    +0.000 A 
ATOM      5  N   UNL     1       1.742  12.485  18.172  0.00  0.00    +0.000 N 
ATOM      6  N   UNL     1       0.620  12.329  20.242  0.00  0.00    +0.000 NA
ATOM      7  C   UNL     1       0.162  11.578  21.251  0.00  0.00    +0.000 A 
ATOM      8  N   UNL     1      -0.476  12.189  22.308  0.00  0.00    +0.000 N 
ATOM      9  C   UNL     1      -1.443  11.449  23.097  0.00  0.00    +0.000 C 
ATOM     10  C   UNL     1      -2.837  12.083  23.050  0.00  0.00    +0.000 C 
ATOM     11  C   UNL     1      -2.907  13.430  23.777  0.00  0.00    +0.000 C 
ATOM     12  N   UNL     1      -2.562  14.618  22.982  0.00  0.00    +0.000 NA
ATOM     13  C   UNL     1      -2.361  15.773  23.858  0.00  0.00    +0.000 C 
ATOM     14  C   UNL     1      -1.433  14.450  22.046  0.00  0.00    +0.000 C 
ATOM     15  C   UNL     1      -0.248  13.606  22.547  0.00  0.00    +0.000 C 
ATOM     16  N   UNL     1       0.337  10.247  21.312  0.00  0.00    +0.000 NA
ATOM     17  C   UNL     1       1.025   9.651  20.342  0.00  0.00    +0.000 A 
ATOM     18  C   UNL     1       1.244   8.280  20.430  0.00  0.00    +0.000 A 
ATOM     19  C   UNL     1       1.981   7.536  19.475  0.00  0.00    +0.000 A 
ATOM     20  H   UNL     1       2.733  12.366  17.989  0.00  0.00    +0.000 HD
ENDROOT
BRANCH   5  21
ATOM     21  C   UNL     1       1.226  13.821  17.854  0.00  0.00    +0.000 C 
ATOM     22  C   UNL     1       2.288  14.794  18.388  0.00  0.00    +0.000 C 
ATOM     23  C   UNL     1       1.794  16.212  18.628  0.00  0.00    +0.000 C 
ATOM     24  N   UNL     1       0.572  16.207  19.437  0.00  0.00    +0.000 NA
ATOM     25  C   UNL     1       0.190  17.577  19.778  0.00  0.00    +0.000 C 
ATOM     26  C   UNL     1      -0.499  15.518  18.715  0.00  0.00    +0.000 C 
ATOM     27  C   UNL     1      -0.159  14.042  18.481  0.00  0.00    +0.000 C 
ENDBRANCH   5  21
BRANCH   1  29
ATOM     28  C   UNL     1       4.540   7.186  17.716  0.00  0.00    +0.000 C 
ATOM     29  O   UNL     1       3.279   7.740  17.367  0.00  0.00    +0.000 OA
ENDBRANCH   1  29
BRANCH  19  30
ATOM     30  C   UNL     1       2.232   6.082  19.805  0.00  0.00    +0.000 C 
BRANCH  30  31
ATOM     31  C   UNL     1       1.624   5.105  18.794  0.00  0.00    +0.000 C 
BRANCH  31  32
ATOM     32  C   UNL     1       1.049   3.828  19.432  0.00  0.00    +0.000 C 
BRANCH  32  33
ATOM     33  N   UNL     1       2.107   2.943  19.975  0.00  0.00    +0.000 NA
ATOM     34  C   UNL     1       1.779   2.536  21.353  0.00  0.00    +0.000 C 
BRANCH  33  35
ATOM     35  C   UNL     1       2.268   1.712  19.159  0.00  0.00    +0.000 C 
BRANCH  35  36
ATOM     36  C   UNL     1       3.483   1.731  18.219  0.00  0.00    +0.000 C 
BRANCH  36  37
ATOM     37  O   UNL     1       4.383   0.676  18.548  0.00  0.00    +0.000 OA
ATOM     38  H   UNL     1       5.176   1.122  18.910  0.00  0.00    +0.000 HD
ENDBRANCH  36  37
ENDBRANCH  35  36
ENDBRANCH  33  35
ENDBRANCH  32  33
ENDBRANCH  31  32
ENDBRANCH  30  31
ENDBRANCH  19  30
TORSDOF 9
ENDMDL
MODEL 7
REMARK VINA RESULT:      -6.2      1.224      1.465
REMARK  Name = 
REMARK  13 active torsions:
REMARK  status: ('A' for Active; 'I' for Inactive)
REMARK    1  A    between atoms: C_1  and  O_2
REMARK    2  A    between atoms: O_2  and  C_3
REMARK    3  A    between atoms: N_7  and  C_8
REMARK    4  A    between atoms: N_11  and  C_12
REMARK    5  A    between atoms: N_21  and  C_22
REMARK    6  A    between atoms: C_28  and  C_29
REMARK    7  A    between atoms: C_29  and  C_30
REMARK    8  A    between atoms: C_30  and  C_31
REMARK    9  A    between atoms: C_31  and  N_32
REMARK   10  A    between atoms: N_32  and  C_33
REMARK   11  A    between atoms: N_32  and  C_34
REMARK   12  A    between atoms: C_34  and  C_35
REMARK   13  A    between atoms: C_35  and  O_36
REMARK                            x       y       z     vdW  Elec       q    Type
REMARK                         _______ _______ _______ _____ _____    ______ ____
ROOT
ATOM      1  C   UNL     1       2.558   8.131  18.196  0.00  0.00    +0.000 A 
ATOM      2  C   UNL     1       2.360   9.520  18.133  0.00  0.00    +0.000 A 
ATOM      3  C   UNL     1       1.645  10.233  19.136  0.00  0.00    +0.000 A 
ATOM      4  C   UNL     1       1.406  11.623  19.159  0.00  0.00    +0.000 A 
ATOM      5  N   UNL     1       1.857  12.400  18.096  0.00  0.00    +0.000 N 
ATOM      6  N   UNL     1       0.725  12.208  20.158  0.00  0.00    +0.000 NA
ATOM      7  C   UNL     1       0.257  11.438  21.148  0.00  0.00    +0.000 A 
ATOM      8  N   UNL     1      -0.379  12.030  22.216  0.00  0.00    +0.000 N 
ATOM      9  C   UNL     1      -1.356  11.282  22.985  0.00  0.00    +0.000 C 
ATOM     10  C   UNL     1      -2.743  11.930  22.948  0.00  0.00    +0.000 C 
ATOM     11  C   UNL     1      -2.803  13.261  23.705  0.00  0.00    +0.000 C 
ATOM     12  N   UNL     1      -2.443  14.464  22.940  0.00  0.00    +0.000 NA
ATOM     13  C   UNL     1      -2.235  15.596  23.843  0.00  0.00    +0.000 C 
ATOM     14  C   UNL     1      -1.313  14.306  22.004  0.00  0.00    +0.000 C 
ATOM     15  C   UNL     1      -0.139  13.439  22.489  0.00  0.00    +0.000 C 
ATOM     16  N   UNL     1       0.418  10.104  21.179  0.00  0.00    +0.000 NA
ATOM     17  C   UNL     1       1.104   9.524  20.198  0.00  0.00    +0.000 A 
ATOM     18  C   UNL     1       1.310   8.149  20.255  0.00  0.00    +0.000 A 
ATOM     19  C   UNL     1       2.043   7.420  19.284  0.00  0.00    +0.000 A 
ATOM     20  H   UNL     1       2.847  12.276  17.914  0.00  0.00    +0.000 HD
ENDROOT
BRANCH   5  21
ATOM     21  C   UNL     1       1.355  13.748  17.808  0.00  0.00    +0.000 C 
ATOM     22  C   UNL     1       2.414  14.698  18.387  0.00  0.00    +0.000 C 
ATOM     23  C   UNL     1       1.925  16.113  18.658  0.00  0.00    +0.000 C 
ATOM     24  N   UNL     1       0.690  16.094  19.446  0.00  0.00    +0.000 NA
ATOM     25  C   UNL     1       0.312  17.456  19.820  0.00  0.00    +0.000 C 
ATOM     26  C   UNL     1      -0.373  15.432  18.687  0.00  0.00    +0.000 C 
ATOM     27  C   UNL     1      -0.039  13.962  18.417  0.00  0.00    +0.000 C 
ENDBRANCH   5  21
BRANCH   1  29
ATOM     28  C   UNL     1       4.677   7.263  17.501  0.00  0.00    +0.000 C 
ATOM     29  O   UNL     1       3.350   7.660  17.186  0.00  0.00    +0.000 OA
ENDBRANCH   1  29
BRANCH  19  30
ATOM     30  C   UNL     1       2.278   5.957  19.581  0.00  0.00    +0.000 C 
BRANCH  30  31
ATOM     31  C   UNL     1       1.860   5.020  18.444  0.00  0.00    +0.000 C 
BRANCH  31  32
ATOM     32  C   UNL     1       3.019   4.192  17.863  0.00  0.00    +0.000 C 
BRANCH  32  33
ATOM     33  N   UNL     1       3.096   2.835  18.455  0.00  0.00    +0.000 NA
ATOM     34  C   UNL     1       4.109   2.797  19.524  0.00  0.00    +0.000 C 
BRANCH  33  35
ATOM     35  C   UNL     1       1.796   2.415  19.040  0.00  0.00    +0.000 C 
BRANCH  35  36
ATOM     36  C   UNL     1       1.818   2.234  20.566  0.00  0.00    +0.000 C 
BRANCH  36  37
ATOM     37  O   UNL     1       0.790   3.011  21.174  0.00  0.00    +0.000 OA
ATOM     38  H   UNL     1       0.396   3.529  20.443  0.00  0.00    +0.000 HD
ENDBRANCH  36  37
ENDBRANCH  35  36
ENDBRANCH  33  35
ENDBRANCH  32  33
ENDBRANCH  31  32
ENDBRANCH  30  31
ENDBRANCH  19  30
TORSDOF 9
ENDMDL
MODEL 8
REMARK VINA RESULT:      -6.1      2.817      5.182
REMARK  Name = 
REMARK  13 active torsions:
REMARK  status: ('A' for Active; 'I' for Inactive)
REMARK    1  A    between atoms: C_1  and  O_2
REMARK    2  A    between atoms: O_2  and  C_3
REMARK    3  A    between atoms: N_7  and  C_8
REMARK    4  A    between atoms: N_11  and  C_12
REMARK    5  A    between atoms: N_21  and  C_22
REMARK    6  A    between atoms: C_28  and  C_29
REMARK    7  A    between atoms: C_29  and  C_30
REMARK    8  A    between atoms: C_30  and  C_31
REMARK    9  A    between atoms: C_31  and  N_32
REMARK   10  A    between atoms: N_32  and  C_33
REMARK   11  A    between atoms: N_32  and  C_34
REMARK   12  A    between atoms: C_34  and  C_35
REMARK   13  A    between atoms: C_35  and  O_36
REMARK                            x       y       z     vdW  Elec       q    Type
REMARK                         _______ _______ _______ _____ _____    ______ ____
ROOT
ATOM      1  C   UNL     1      -0.960  10.387  18.427  0.00  0.00    +0.000 A 
ATOM      2  C   UNL     1      -1.334  11.598  19.031  0.00  0.00    +0.000 A 
ATOM      3  C   UNL     1      -0.378  12.524  19.536  0.00  0.00    +0.000 A 
ATOM      4  C   UNL     1      -0.662  13.762  20.149  0.00  0.00    +0.000 A 
ATOM      5  N   UNL     1      -1.990  14.131  20.336  0.00  0.00    +0.000 N 
ATOM      6  N   UNL     1       0.314  14.575  20.587  0.00  0.00    +0.000 NA
ATOM      7  C   UNL     1       1.585  14.183  20.441  0.00  0.00    +0.000 A 
ATOM      8  N   UNL     1       2.599  15.036  20.818  0.00  0.00    +0.000 N 
ATOM      9  C   UNL     1       3.890  14.500  21.209  0.00  0.00    +0.000 C 
ATOM     10  C   UNL     1       4.257  14.866  22.650  0.00  0.00    +0.000 C 
ATOM     11  C   UNL     1       4.545  16.360  22.834  0.00  0.00    +0.000 C 
ATOM     12  N   UNL     1       3.387  17.216  23.127  0.00  0.00    +0.000 NA
ATOM     13  C   UNL     1       3.744  18.626  22.963  0.00  0.00    +0.000 C 
ATOM     14  C   UNL     1       2.151  16.885  22.391  0.00  0.00    +0.000 C 
ATOM     15  C   UNL     1       2.322  16.460  20.922  0.00  0.00    +0.000 C 
ATOM     16  N   UNL     1       1.932  13.004  19.896  0.00  0.00    +0.000 NA
ATOM     17  C   UNL     1       0.968  12.203  19.449  0.00  0.00    +0.000 A 
ATOM     18  C   UNL     1       1.329  11.004  18.844  0.00  0.00    +0.000 A 
ATOM     19  C   UNL     1       0.398  10.079  18.308  0.00  0.00    +0.000 A 
ATOM     20  H   UNL     1      -2.530  14.099  19.478  0.00  0.00    +0.000 HD
ENDROOT
BRANCH   5  21
ATOM     21  C   UNL     1      -2.417  15.172  21.278  0.00  0.00    +0.000 C 
ATOM     22  C   UNL     1      -2.586  14.446  22.622  0.00  0.00    +0.000 C 
ATOM     23  C   UNL     1      -3.470  15.164  23.630  0.00  0.00    +0.000 C 
ATOM     24  N   UNL     1      -4.750  15.541  23.024  0.00  0.00    +0.000 NA
ATOM     25  C   UNL     1      -5.642  16.099  24.040  0.00  0.00    +0.000 C 
ATOM     26  C   UNL     1      -4.523  16.489  21.932  0.00  0.00    +0.000 C 
ATOM     27  C   UNL     1      -3.706  15.857  20.800  0.00  0.00    +0.000 C 
ENDBRANCH   5  21
BRANCH   1  29
ATOM     28  C   UNL     1      -3.155  10.423  17.474  0.00  0.00    +0.000 C 
ATOM     29  O   UNL     1      -2.025   9.691  17.927  0.00  0.00    +0.000 OA
ENDBRANCH   1  29
BRANCH  19  30
ATOM     30  C   UNL     1       0.979   8.896  17.567  0.00  0.00    +0.000 C 
BRANCH  30  31
ATOM     31  C   UNL     1       2.401   8.530  18.004  0.00  0.00    +0.000 C 
BRANCH  31  32
ATOM     32  C   UNL     1       2.477   7.266  18.878  0.00  0.00    +0.000 C 
BRANCH  32  33
ATOM     33  N   UNL     1       2.545   6.024  18.071  0.00  0.00    +0.000 NA
ATOM     34  C   UNL     1       3.904   5.833  17.535  0.00  0.00    +0.000 C 
BRANCH  33  35
ATOM     35  C   UNL     1       2.195   4.825  18.876  0.00  0.00    +0.000 C 
BRANCH  35  36
ATOM     36  C   UNL     1       1.477   3.720  18.085  0.00  0.00    +0.000 C 
BRANCH  36  37
ATOM     37  O   UNL     1       2.298   2.560  17.993  0.00  0.00    +0.000 OA
ATOM     38  H   UNL     1       3.051   2.733  18.594  0.00  0.00    +0.000 HD
ENDBRANCH  36  37
ENDBRANCH  35  36
ENDBRANCH  33  35
ENDBRANCH  32  33
ENDBRANCH  31  32
ENDBRANCH  30  31
ENDBRANCH  19  30
TORSDOF 9
ENDMDL
MODEL 9
REMARK VINA RESULT:      -6.1      1.669      1.803
REMARK  Name = 
REMARK  13 active torsions:
REMARK  status: ('A' for Active; 'I' for Inactive)
REMARK    1  A    between atoms: C_1  and  O_2
REMARK    2  A    between atoms: O_2  and  C_3
REMARK    3  A    between atoms: N_7  and  C_8
REMARK    4  A    between atoms: N_11  and  C_12
REMARK    5  A    between atoms: N_21  and  C_22
REMARK    6  A    between atoms: C_28  and  C_29
REMARK    7  A    between atoms: C_29  and  C_30
REMARK    8  A    between atoms: C_30  and  C_31
REMARK    9  A    between atoms: C_31  and  N_32
REMARK   10  A    between atoms: N_32  and  C_33
REMARK   11  A    between atoms: N_32  and  C_34
REMARK   12  A    between atoms: C_34  and  C_35
REMARK   13  A    between atoms: C_35  and  O_36
REMARK                            x       y       z     vdW  Elec       q    Type
REMARK                         _______ _______ _______ _____ _____    ______ ____
ROOT
ATOM      1  C   UNL     1       2.434   8.250  18.003  0.00  0.00    +0.000 A 
ATOM      2  C   UNL     1       2.265   9.644  17.987  0.00  0.00    +0.000 A 
ATOM      3  C   UNL     1       1.579  10.339  19.022  0.00  0.00    +0.000 A 
ATOM      4  C   UNL     1       1.369  11.733  19.092  0.00  0.00    +0.000 A 
ATOM      5  N   UNL     1       1.822  12.534  18.048  0.00  0.00    +0.000 N 
ATOM      6  N   UNL     1       0.715  12.300  20.119  0.00  0.00    +0.000 NA
ATOM      7  C   UNL     1       0.244  11.509  21.091  0.00  0.00    +0.000 A 
ATOM      8  N   UNL     1      -0.364  12.079  22.186  0.00  0.00    +0.000 N 
ATOM      9  C   UNL     1      -1.347  11.327  22.945  0.00  0.00    +0.000 C 
ATOM     10  C   UNL     1      -2.720  12.005  22.948  0.00  0.00    +0.000 C 
ATOM     11  C   UNL     1      -2.741  13.312  23.748  0.00  0.00    +0.000 C 
ATOM     12  N   UNL     1      -2.367  14.531  23.016  0.00  0.00    +0.000 NA
ATOM     13  C   UNL     1      -2.122  15.629  23.951  0.00  0.00    +0.000 C 
ATOM     14  C   UNL     1      -1.253  14.380  22.060  0.00  0.00    +0.000 C 
ATOM     15  C   UNL     1      -0.091  13.473  22.500  0.00  0.00    +0.000 C 
ATOM     16  N   UNL     1       0.377  10.171  21.077  0.00  0.00    +0.000 NA
ATOM     17  C   UNL     1       1.037   9.609  20.068  0.00  0.00    +0.000 A 
ATOM     18  C   UNL     1       1.215   8.229  20.079  0.00  0.00    +0.000 A 
ATOM     19  C   UNL     1       1.919   7.516  19.075  0.00  0.00    +0.000 A 
ATOM     20  H   UNL     1       2.807  12.395  17.848  0.00  0.00    +0.000 HD
ENDROOT
BRANCH   5  21
ATOM     21  C   UNL     1       1.345  13.901  17.810  0.00  0.00    +0.000 C 
ATOM     22  C   UNL     1       2.410  14.809  18.443  0.00  0.00    +0.000 C 
ATOM     23  C   UNL     1       1.939  16.219  18.766  0.00  0.00    +0.000 C 
ATOM     24  N   UNL     1       0.693  16.186  19.536  0.00  0.00    +0.000 NA
ATOM     25  C   UNL     1       0.330  17.538  19.961  0.00  0.00    +0.000 C 
ATOM     26  C   UNL     1      -0.370  15.574  18.736  0.00  0.00    +0.000 C 
ATOM     27  C   UNL     1      -0.054  14.111  18.409  0.00  0.00    +0.000 C 
ENDBRANCH   5  21
BRANCH   1  29
ATOM     28  C   UNL     1       4.598   7.638  17.183  0.00  0.00    +0.000 C 
ATOM     29  O   UNL     1       3.202   7.796  16.968  0.00  0.00    +0.000 OA
ENDBRANCH   1  29
BRANCH  19  30
ATOM     30  C   UNL     1       2.127   6.040  19.323  0.00  0.00    +0.000 C 
BRANCH  30  31
ATOM     31  C   UNL     1       3.577   5.666  19.649  0.00  0.00    +0.000 C 
BRANCH  31  32
ATOM     32  C   UNL     1       3.854   4.154  19.606  0.00  0.00    +0.000 C 
BRANCH  32  33
ATOM     33  N   UNL     1       4.906   3.799  18.624  0.00  0.00    +0.000 NA
ATOM     34  C   UNL     1       4.381   3.898  17.250  0.00  0.00    +0.000 C 
BRANCH  33  35
ATOM     35  C   UNL     1       6.084   4.698  18.730  0.00  0.00    +0.000 C 
BRANCH  35  36
ATOM     36  C   UNL     1       6.962   4.743  17.470  0.00  0.00    +0.000 C 
BRANCH  36  37
ATOM     37  O   UNL     1       8.193   4.061  17.697  0.00  0.00    +0.000 OA
ATOM     38  H   UNL     1       8.603   3.976  16.813  0.00  0.00    +0.000 HD
ENDBRANCH  36  37
ENDBRANCH  35  36
ENDBRANCH  33  35
ENDBRANCH  32  33
ENDBRANCH  31  32
ENDBRANCH  30  31
ENDBRANCH  19  30
TORSDOF 9
ENDMDL
