MODEL 1
REMARK VINA RESULT:      -7.3      0.000      0.000
REMARK  Name = 
REMARK  7 active torsions:
REMARK  status: ('A' for Active; 'I' for Inactive)
REMARK    1  A    between atoms: C_1  and  O_2
REMARK    2  A    between atoms: O_2  and  C_3
REMARK    3  A    between atoms: C_3  and  C_5
REMARK    4  A    between atoms: C_8  and  O_9
REMARK    5  A    between atoms: O_9  and  C_10
REMARK    6  A    between atoms: N_12  and  C_13
REMARK    7  A    between atoms: C_18  and  N_19
REMARK                            x       y       z     vdW  Elec       q    Type
REMARK                         _______ _______ _______ _____ _____    ______ ____
ROOT
ATOM      1  C   UNL     1       5.085   4.327  17.753  0.00  0.00    +0.000 C 
ATOM      2  O   UNL     1       4.294   3.995  16.880  0.00  0.00    +0.000 OA
ATOM      3  N   UNL     1       4.721   4.617  19.053  0.00  0.00    +0.000 N 
ATOM      4  H   UNL     1       5.289   5.312  19.532  0.00  0.00    +0.000 HD
ENDROOT
BRANCH   3   5
ATOM      5  C   UNL     1       3.502   4.193  19.648  0.00  0.00    +0.000 A 
ATOM      6  C   UNL     1       2.538   5.165  19.975  0.00  0.00    +0.000 A 
ATOM      7  C   UNL     1       1.297   4.823  20.514  0.00  0.00    +0.000 A 
ATOM      8  C   UNL     1       0.981   3.491  20.738  0.00  0.00    +0.000 A 
ATOM      9  C   UNL     1       1.908   2.499  20.414  0.00  0.00    +0.000 A 
ATOM     10  C   UNL     1       3.162   2.841  19.863  0.00  0.00    +0.000 A 
BRANCH  10  11
ATOM     11  N   UNL     1       4.098   1.747  19.574  0.00  0.00    +0.000 N 
ATOM     12  O   UNL     1       5.075   1.595  20.323  0.00  0.00    +0.000 OA
ATOM     13  O   UNL     1       3.868   1.034  18.584  0.00  0.00    +0.000 OA
ENDBRANCH  10  11
ENDBRANCH   3   5
BRANCH   1  14
ATOM     14  O   UNL     1       6.462   4.464  17.570  0.00  0.00    +0.000 OA
BRANCH  14  18
ATOM     15  C   UNL     1       8.178   8.250  18.291  0.00  0.00    +0.000 A 
ATOM     16  C   UNL     1       8.476   7.143  19.100  0.00  0.00    +0.000 A 
ATOM     17  C   UNL     1       7.914   5.889  18.827  0.00  0.00    +0.000 A 
ATOM     18  C   UNL     1       7.046   5.742  17.746  0.00  0.00    +0.000 A 
ATOM     19  C   UNL     1       6.815   6.819  16.886  0.00  0.00    +0.000 A 
ATOM     20  C   UNL     1       7.354   8.076  17.173  0.00  0.00    +0.000 A 
BRANCH  15  21
ATOM     21  C   UNL     1       8.750   9.579  18.648  0.00  0.00    +0.000 C 
ATOM     22  O   UNL     1       9.465   9.769  19.619  0.00  0.00    +0.000 OA
BRANCH  21  24
ATOM     23  C   UNL     1       8.978  11.797  17.920  0.00  0.00    +0.000 C 
ATOM     24  O   UNL     1       8.359  10.520  17.752  0.00  0.00    +0.000 OA
ENDBRANCH  21  24
ENDBRANCH  15  21
ENDBRANCH  14  18
ENDBRANCH   1  14
TORSDOF 6
ENDMDL
MODEL 2
REMARK VINA RESULT:      -7.3      0.486      1.303
REMARK  Name = 
REMARK  7 active torsions:
REMARK  status: ('A' for Active; 'I' for Inactive)
REMARK    1  A    between atoms: C_1  and  O_2
REMARK    2  A    between atoms: O_2  and  C_3
REMARK    3  A    between atoms: C_3  and  C_5
REMARK    4  A    between atoms: C_8  and  O_9
REMARK    5  A    between atoms: O_9  and  C_10
REMARK    6  A    between atoms: N_12  and  C_13
REMARK    7  A    between atoms: C_18  and  N_19
REMARK                            x       y       z     vdW  Elec       q    Type
REMARK                         _______ _______ _______ _____ _____    ______ ____
ROOT
ATOM      1  C   UNL     1       4.989   4.269  17.661  0.00  0.00    +0.000 C 
ATOM      2  O   UNL     1       4.219   3.823  16.821  0.00  0.00    +0.000 OA
ATOM      3  N   UNL     1       4.609   4.636  18.937  0.00  0.00    +0.000 N 
ATOM      4  H   UNL     1       5.134   5.398  19.358  0.00  0.00    +0.000 HD
ENDROOT
BRANCH   3   5
ATOM      5  C   UNL     1       3.419   4.185  19.570  0.00  0.00    +0.000 A 
ATOM      6  C   UNL     1       2.417   5.127  19.871  0.00  0.00    +0.000 A 
ATOM      7  C   UNL     1       1.201   4.754  20.445  0.00  0.00    +0.000 A 
ATOM      8  C   UNL     1       0.948   3.421  20.731  0.00  0.00    +0.000 A 
ATOM      9  C   UNL     1       1.913   2.457  20.434  0.00  0.00    +0.000 A 
ATOM     10  C   UNL     1       3.143   2.830  19.848  0.00  0.00    +0.000 A 
BRANCH  10  11
ATOM     11  N   UNL     1       4.122   1.766  19.590  0.00  0.00    +0.000 N 
ATOM     12  O   UNL     1       5.125   1.700  20.318  0.00  0.00    +0.000 OA
ATOM     13  O   UNL     1       3.900   0.990  18.646  0.00  0.00    +0.000 OA
ENDBRANCH  10  11
ENDBRANCH   3   5
BRANCH   1  14
ATOM     14  O   UNL     1       6.355   4.476  17.460  0.00  0.00    +0.000 OA
BRANCH  14  18
ATOM     15  C   UNL     1       7.981   8.309  18.141  0.00  0.00    +0.000 A 
ATOM     16  C   UNL     1       6.969   8.098  17.191  0.00  0.00    +0.000 A 
ATOM     17  C   UNL     1       6.427   6.821  16.999  0.00  0.00    +0.000 A 
ATOM     18  C   UNL     1       6.899   5.749  17.754  0.00  0.00    +0.000 A 
ATOM     19  C   UNL     1       7.843   5.968  18.761  0.00  0.00    +0.000 A 
ATOM     20  C   UNL     1       8.404   7.236  18.935  0.00  0.00    +0.000 A 
BRANCH  15  21
ATOM     21  C   UNL     1       8.571   9.670  18.275  0.00  0.00    +0.000 C 
ATOM     22  O   UNL     1       8.343  10.586  17.502  0.00  0.00    +0.000 OA
BRANCH  21  24
ATOM     23  C   UNL     1      10.098  10.958  19.504  0.00  0.00    +0.000 C 
ATOM     24  O   UNL     1       9.386   9.728  19.359  0.00  0.00    +0.000 OA
ENDBRANCH  21  24
ENDBRANCH  15  21
ENDBRANCH  14  18
ENDBRANCH   1  14
TORSDOF 6
ENDMDL
MODEL 3
REMARK VINA RESULT:      -7.2      2.944      4.787
REMARK  Name = 
REMARK  7 active torsions:
REMARK  status: ('A' for Active; 'I' for Inactive)
REMARK    1  A    between atoms: C_1  and  O_2
REMARK    2  A    between atoms: O_2  and  C_3
REMARK    3  A    between atoms: C_3  and  C_5
REMARK    4  A    between atoms: C_8  and  O_9
REMARK    5  A    between atoms: O_9  and  C_10
REMARK    6  A    between atoms: N_12  and  C_13
REMARK    7  A    between atoms: C_18  and  N_19
REMARK                            x       y       z     vdW  Elec       q    Type
REMARK                         _______ _______ _______ _____ _____    ______ ____
ROOT
ATOM      1  C   UNL     1       5.430   5.202  18.862  0.00  0.00    +0.000 C 
ATOM      2  O   UNL     1       5.968   4.970  19.937  0.00  0.00    +0.000 OA
ATOM      3  N   UNL     1       4.187   4.720  18.503  0.00  0.00    +0.000 N 
ATOM      4  H   UNL     1       4.047   4.540  17.511  0.00  0.00    +0.000 HD
ENDROOT
BRANCH   3   5
ATOM      5  C   UNL     1       3.217   4.256  19.432  0.00  0.00    +0.000 A 
ATOM      6  C   UNL     1       2.222   5.150  19.870  0.00  0.00    +0.000 A 
ATOM      7  C   UNL     1       1.206   4.755  20.741  0.00  0.00    +0.000 A 
ATOM      8  C   UNL     1       1.152   3.446  21.197  0.00  0.00    +0.000 A 
ATOM      9  C   UNL     1       2.114   2.528  20.773  0.00  0.00    +0.000 A 
ATOM     10  C   UNL     1       3.141   2.923  19.887  0.00  0.00    +0.000 A 
BRANCH  10  11
ATOM     11  N   UNL     1       4.135   1.911  19.506  0.00  0.00    +0.000 N 
ATOM     12  O   UNL     1       5.059   1.668  20.297  0.00  0.00    +0.000 OA
ATOM     13  O   UNL     1       4.005   1.357  18.403  0.00  0.00    +0.000 OA
ENDBRANCH  10  11
ENDBRANCH   3   5
BRANCH   1  14
ATOM     14  O   UNL     1       5.985   5.981  17.846  0.00  0.00    +0.000 OA
BRANCH  14  18
ATOM     15  C   UNL     1       6.250   4.390  13.947  0.00  0.00    +0.000 A 
ATOM     16  C   UNL     1       6.874   3.766  15.039  0.00  0.00    +0.000 A 
ATOM     17  C   UNL     1       6.753   4.299  16.328  0.00  0.00    +0.000 A 
ATOM     18  C   UNL     1       6.009   5.461  16.529  0.00  0.00    +0.000 A 
ATOM     19  C   UNL     1       5.315   6.036  15.461  0.00  0.00    +0.000 A 
ATOM     20  C   UNL     1       5.457   5.521  14.170  0.00  0.00    +0.000 A 
BRANCH  15  21
ATOM     21  C   UNL     1       6.451   3.825  12.583  0.00  0.00    +0.000 C 
ATOM     22  O   UNL     1       7.310   4.214  11.808  0.00  0.00    +0.000 OA
BRANCH  21  24
ATOM     23  C   UNL     1       4.452   3.226  11.512  0.00  0.00    +0.000 C 
ATOM     24  O   UNL     1       5.550   2.839  12.341  0.00  0.00    +0.000 OA
ENDBRANCH  21  24
ENDBRANCH  15  21
ENDBRANCH  14  18
ENDBRANCH   1  14
TORSDOF 6
ENDMDL
MODEL 4
REMARK VINA RESULT:      -7.1      3.745      6.020
REMARK  Name = 
REMARK  7 active torsions:
REMARK  status: ('A' for Active; 'I' for Inactive)
REMARK    1  A    between atoms: C_1  and  O_2
REMARK    2  A    between atoms: O_2  and  C_3
REMARK    3  A    between atoms: C_3  and  C_5
REMARK    4  A    between atoms: C_8  and  O_9
REMARK    5  A    between atoms: O_9  and  C_10
REMARK    6  A    between atoms: N_12  and  C_13
REMARK    7  A    between atoms: C_18  and  N_19
REMARK                            x       y       z     vdW  Elec       q    Type
REMARK                         _______ _______ _______ _____ _____    ______ ____
ROOT
ATOM      1  C   UNL     1       2.130   5.687  20.329  0.00  0.00    +0.000 C 
ATOM      2  O   UNL     1       0.986   5.273  20.470  0.00  0.00    +0.000 OA
ATOM      3  N   UNL     1       2.447   7.013  20.110  0.00  0.00    +0.000 N 
ATOM      4  H   UNL     1       3.275   7.187  19.546  0.00  0.00    +0.000 HD
ENDROOT
BRANCH   3   5
ATOM      5  C   UNL     1       1.580   8.096  20.418  0.00  0.00    +0.000 A 
ATOM      6  C   UNL     1       1.054   8.189  21.720  0.00  0.00    +0.000 A 
ATOM      7  C   UNL     1       0.238   9.251  22.113  0.00  0.00    +0.000 A 
ATOM      8  C   UNL     1      -0.072  10.259  21.212  0.00  0.00    +0.000 A 
ATOM      9  C   UNL     1       0.443  10.207  19.916  0.00  0.00    +0.000 A 
ATOM     10  C   UNL     1       1.274   9.137  19.516  0.00  0.00    +0.000 A 
BRANCH  10  11
ATOM     11  N   UNL     1       1.756   9.133  18.129  0.00  0.00    +0.000 N 
ATOM     12  O   UNL     1       1.870   8.042  17.549  0.00  0.00    +0.000 OA
ATOM     13  O   UNL     1       2.035  10.225  17.609  0.00  0.00    +0.000 OA
ENDBRANCH  10  11
ENDBRANCH   3   5
BRANCH   1  14
ATOM     14  O   UNL     1       3.275   4.890  20.364  0.00  0.00    +0.000 OA
BRANCH  14  18
ATOM     15  C   UNL     1       5.687   4.640  16.911  0.00  0.00    +0.000 A 
ATOM     16  C   UNL     1       4.305   4.405  16.860  0.00  0.00    +0.000 A 
ATOM     17  C   UNL     1       3.519   4.517  18.014  0.00  0.00    +0.000 A 
ATOM     18  C   UNL     1       4.117   4.862  19.226  0.00  0.00    +0.000 A 
ATOM     19  C   UNL     1       5.477   5.182  19.266  0.00  0.00    +0.000 A 
ATOM     20  C   UNL     1       6.266   5.044  18.121  0.00  0.00    +0.000 A 
BRANCH  15  21
ATOM     21  C   UNL     1       6.497   4.454  15.674  0.00  0.00    +0.000 C 
ATOM     22  O   UNL     1       7.677   4.752  15.586  0.00  0.00    +0.000 OA
BRANCH  21  24
ATOM     23  C   UNL     1       6.374   3.859  13.409  0.00  0.00    +0.000 C 
ATOM     24  O   UNL     1       5.734   3.922  14.685  0.00  0.00    +0.000 OA
ENDBRANCH  21  24
ENDBRANCH  15  21
ENDBRANCH  14  18
ENDBRANCH   1  14
TORSDOF 6
ENDMDL
MODEL 5
REMARK VINA RESULT:      -7.1      2.867      4.864
REMARK  Name = 
REMARK  7 active torsions:
REMARK  status: ('A' for Active; 'I' for Inactive)
REMARK    1  A    between atoms: C_1  and  O_2
REMARK    2  A    between atoms: O_2  and  C_3
REMARK    3  A    between atoms: C_3  and  C_5
REMARK    4  A    between atoms: C_8  and  O_9
REMARK    5  A    between atoms: O_9  and  C_10
REMARK    6  A    between atoms: N_12  and  C_13
REMARK    7  A    between atoms: C_18  and  N_19
REMARK                            x       y       z     vdW  Elec       q    Type
REMARK                         _______ _______ _______ _____ _____    ______ ____
ROOT
ATOM      1  C   UNL     1       5.436   5.214  18.971  0.00  0.00    +0.000 C 
ATOM      2  O   UNL     1       5.951   4.918  20.041  0.00  0.00    +0.000 OA
ATOM      3  N   UNL     1       4.201   4.755  18.558  0.00  0.00    +0.000 N 
ATOM      4  H   UNL     1       4.082   4.634  17.555  0.00  0.00    +0.000 HD
ENDROOT
BRANCH   3   5
ATOM      5  C   UNL     1       3.212   4.239  19.438  0.00  0.00    +0.000 A 
ATOM      6  C   UNL     1       2.218   5.112  19.921  0.00  0.00    +0.000 A 
ATOM      7  C   UNL     1       1.184   4.669  20.747  0.00  0.00    +0.000 A 
ATOM      8  C   UNL     1       1.110   3.333  21.111  0.00  0.00    +0.000 A 
ATOM      9  C   UNL     1       2.070   2.436  20.641  0.00  0.00    +0.000 A 
ATOM     10  C   UNL     1       3.115   2.879  19.800  0.00  0.00    +0.000 A 
BRANCH  10  11
ATOM     11  N   UNL     1       4.106   1.885  19.366  0.00  0.00    +0.000 N 
ATOM     12  O   UNL     1       3.947   1.340  18.263  0.00  0.00    +0.000 OA
ATOM     13  O   UNL     1       5.049   1.634  20.134  0.00  0.00    +0.000 OA
ENDBRANCH  10  11
ENDBRANCH   3   5
BRANCH   1  14
ATOM     14  O   UNL     1       6.013   6.049  18.014  0.00  0.00    +0.000 OA
BRANCH  14  18
ATOM     15  C   UNL     1       6.355   4.559  14.081  0.00  0.00    +0.000 A 
ATOM     16  C   UNL     1       5.396   5.526  14.419  0.00  0.00    +0.000 A 
ATOM     17  C   UNL     1       5.317   6.025  15.726  0.00  0.00    +0.000 A 
ATOM     18  C   UNL     1       6.195   5.553  16.700  0.00  0.00    +0.000 A 
ATOM     19  C   UNL     1       7.207   4.655  16.350  0.00  0.00    +0.000 A 
ATOM     20  C   UNL     1       7.270   4.137  15.054  0.00  0.00    +0.000 A 
BRANCH  15  21
ATOM     21  C   UNL     1       6.370   4.012  12.696  0.00  0.00    +0.000 C 
ATOM     22  O   UNL     1       7.300   4.159  11.919  0.00  0.00    +0.000 OA
BRANCH  21  24
ATOM     23  C   UNL     1       5.348   2.258  11.521  0.00  0.00    +0.000 C 
ATOM     24  O   UNL     1       5.215   3.347  12.436  0.00  0.00    +0.000 OA
ENDBRANCH  21  24
ENDBRANCH  15  21
ENDBRANCH  14  18
ENDBRANCH   1  14
TORSDOF 6
ENDMDL
MODEL 6
REMARK VINA RESULT:      -7.0      3.060      4.406
REMARK  Name = 
REMARK  7 active torsions:
REMARK  status: ('A' for Active; 'I' for Inactive)
REMARK    1  A    between atoms: C_1  and  O_2
REMARK    2  A    between atoms: O_2  and  C_3
REMARK    3  A    between atoms: C_3  and  C_5
REMARK    4  A    between atoms: C_8  and  O_9
REMARK    5  A    between atoms: O_9  and  C_10
REMARK    6  A    between atoms: N_12  and  C_13
REMARK    7  A    between atoms: C_18  and  N_19
REMARK                            x       y       z     vdW  Elec       q    Type
REMARK                         _______ _______ _______ _____ _____    ______ ____
ROOT
ATOM      1  C   UNL     1       4.409   5.623  19.433  0.00  0.00    +0.000 C 
ATOM      2  O   UNL     1       3.514   6.442  19.601  0.00  0.00    +0.000 OA
ATOM      3  N   UNL     1       4.297   4.284  19.749  0.00  0.00    +0.000 N 
ATOM      4  H   UNL     1       5.156   3.820  20.037  0.00  0.00    +0.000 HD
ENDROOT
BRANCH   3   5
ATOM      5  C   UNL     1       3.058   3.609  19.916  0.00  0.00    +0.000 A 
ATOM      6  C   UNL     1       2.501   3.533  21.207  0.00  0.00    +0.000 A 
ATOM      7  C   UNL     1       1.263   2.933  21.443  0.00  0.00    +0.000 A 
ATOM      8  C   UNL     1       0.541   2.394  20.389  0.00  0.00    +0.000 A 
ATOM      9  C   UNL     1       1.056   2.462  19.094  0.00  0.00    +0.000 A 
ATOM     10  C   UNL     1       2.305   3.074  18.850  0.00  0.00    +0.000 A 
BRANCH  10  11
ATOM     11  N   UNL     1       2.798   3.085  17.466  0.00  0.00    +0.000 N 
ATOM     12  O   UNL     1       3.965   2.722  17.255  0.00  0.00    +0.000 OA
ATOM     13  O   UNL     1       2.020   3.468  16.577  0.00  0.00    +0.000 OA
ENDBRANCH  10  11
ENDBRANCH   3   5
BRANCH   1  14
ATOM     14  O   UNL     1       5.666   5.917  18.903  0.00  0.00    +0.000 OA
BRANCH  14  18
ATOM     15  C   UNL     1       6.603   5.043  14.883  0.00  0.00    +0.000 A 
ATOM     16  C   UNL     1       7.326   4.477  15.945  0.00  0.00    +0.000 A 
ATOM     17  C   UNL     1       6.982   4.763  17.272  0.00  0.00    +0.000 A 
ATOM     18  C   UNL     1       5.915   5.620  17.541  0.00  0.00    +0.000 A 
ATOM     19  C   UNL     1       5.139   6.116  16.490  0.00  0.00    +0.000 A 
ATOM     20  C   UNL     1       5.497   5.854  15.166  0.00  0.00    +0.000 A 
BRANCH  15  21
ATOM     21  C   UNL     1       7.037   4.761  13.486  0.00  0.00    +0.000 C 
ATOM     22  O   UNL     1       7.863   5.429  12.885  0.00  0.00    +0.000 OA
BRANCH  21  24
ATOM     23  C   UNL     1       6.867   3.206  11.738  0.00  0.00    +0.000 C 
ATOM     24  O   UNL     1       6.381   3.678  12.996  0.00  0.00    +0.000 OA
ENDBRANCH  21  24
ENDBRANCH  15  21
ENDBRANCH  14  18
ENDBRANCH   1  14
TORSDOF 6
ENDMDL
MODEL 7
REMARK VINA RESULT:      -7.0      4.047      7.766
REMARK  Name = 
REMARK  7 active torsions:
REMARK  status: ('A' for Active; 'I' for Inactive)
REMARK    1  A    between atoms: C_1  and  O_2
REMARK    2  A    between atoms: O_2  and  C_3
REMARK    3  A    between atoms: C_3  and  C_5
REMARK    4  A    between atoms: C_8  and  O_9
REMARK    5  A    between atoms: O_9  and  C_10
REMARK    6  A    between atoms: N_12  and  C_13
REMARK    7  A    between atoms: C_18  and  N_19
REMARK                            x       y       z     vdW  Elec       q    Type
REMARK                         _______ _______ _______ _____ _____    ______ ____
ROOT
ATOM      1  C   UNL     1       6.902   5.255  16.023  0.00  0.00    +0.000 C 
ATOM      2  O   UNL     1       7.850   4.500  16.194  0.00  0.00    +0.000 OA
ATOM      3  N   UNL     1       6.314   5.487  14.796  0.00  0.00    +0.000 N 
ATOM      4  H   UNL     1       5.918   6.414  14.658  0.00  0.00    +0.000 HD
ENDROOT
BRANCH   3   5
ATOM      5  C   UNL     1       6.439   4.617  13.679  0.00  0.00    +0.000 A 
ATOM      6  C   UNL     1       5.566   3.517  13.580  0.00  0.00    +0.000 A 
ATOM      7  C   UNL     1       5.592   2.649  12.488  0.00  0.00    +0.000 A 
ATOM      8  C   UNL     1       6.494   2.859  11.455  0.00  0.00    +0.000 A 
ATOM      9  C   UNL     1       7.367   3.946  11.513  0.00  0.00    +0.000 A 
ATOM     10  C   UNL     1       7.339   4.831  12.614  0.00  0.00    +0.000 A 
BRANCH  10  11
ATOM     11  N   UNL     1       8.306   5.938  12.621  0.00  0.00    +0.000 N 
ATOM     12  O   UNL     1       8.306   6.724  11.661  0.00  0.00    +0.000 OA
ATOM     13  O   UNL     1       9.082   6.023  13.586  0.00  0.00    +0.000 OA
ENDBRANCH  10  11
ENDBRANCH   3   5
BRANCH   1  14
ATOM     14  O   UNL     1       6.278   5.990  17.032  0.00  0.00    +0.000 OA
BRANCH  14  18
ATOM     15  C   UNL     1       2.647   4.413  18.492  0.00  0.00    +0.000 A 
ATOM     16  C   UNL     1       3.807   3.627  18.405  0.00  0.00    +0.000 A 
ATOM     17  C   UNL     1       5.008   4.178  17.940  0.00  0.00    +0.000 A 
ATOM     18  C   UNL     1       5.050   5.518  17.556  0.00  0.00    +0.000 A 
ATOM     19  C   UNL     1       3.923   6.327  17.723  0.00  0.00    +0.000 A 
ATOM     20  C   UNL     1       2.718   5.772  18.161  0.00  0.00    +0.000 A 
BRANCH  15  21
ATOM     21  C   UNL     1       1.376   3.776  18.936  0.00  0.00    +0.000 C 
ATOM     22  O   UNL     1       0.736   2.993  18.253  0.00  0.00    +0.000 OA
BRANCH  21  24
ATOM     23  C   UNL     1       1.505   3.344  21.238  0.00  0.00    +0.000 C 
ATOM     24  O   UNL     1       1.048   4.194  20.185  0.00  0.00    +0.000 OA
ENDBRANCH  21  24
ENDBRANCH  15  21
ENDBRANCH  14  18
ENDBRANCH   1  14
TORSDOF 6
ENDMDL
MODEL 8
REMARK VINA RESULT:      -7.0      1.510      2.467
REMARK  Name = 
REMARK  7 active torsions:
REMARK  status: ('A' for Active; 'I' for Inactive)
REMARK    1  A    between atoms: C_1  and  O_2
REMARK    2  A    between atoms: O_2  and  C_3
REMARK    3  A    between atoms: C_3  and  C_5
REMARK    4  A    between atoms: C_8  and  O_9
REMARK    5  A    between atoms: O_9  and  C_10
REMARK    6  A    between atoms: N_12  and  C_13
REMARK    7  A    between atoms: C_18  and  N_19
REMARK                            x       y       z     vdW  Elec       q    Type
REMARK                         _______ _______ _______ _____ _____    ______ ____
ROOT
ATOM      1  C   UNL     1       5.212   4.031  17.854  0.00  0.00    +0.000 C 
ATOM      2  O   UNL     1       4.517   3.407  17.062  0.00  0.00    +0.000 OA
ATOM      3  N   UNL     1       4.731   4.603  19.015  0.00  0.00    +0.000 N 
ATOM      4  H   UNL     1       5.201   5.451  19.323  0.00  0.00    +0.000 HD
ENDROOT
BRANCH   3   5
ATOM      5  C   UNL     1       3.516   4.219  19.644  0.00  0.00    +0.000 A 
ATOM      6  C   UNL     1       3.415   2.920  20.178  0.00  0.00    +0.000 A 
ATOM      7  C   UNL     1       2.274   2.487  20.855  0.00  0.00    +0.000 A 
ATOM      8  C   UNL     1       1.199   3.346  21.025  0.00  0.00    +0.000 A 
ATOM      9  C   UNL     1       1.269   4.646  20.521  0.00  0.00    +0.000 A 
ATOM     10  C   UNL     1       2.424   5.090  19.840  0.00  0.00    +0.000 A 
BRANCH  10  11
ATOM     11  N   UNL     1       2.416   6.461  19.312  0.00  0.00    +0.000 N 
ATOM     12  O   UNL     1       2.021   7.374  20.053  0.00  0.00    +0.000 OA
ATOM     13  O   UNL     1       2.797   6.633  18.143  0.00  0.00    +0.000 OA
ENDBRANCH  10  11
ENDBRANCH   3   5
BRANCH   1  14
ATOM     14  O   UNL     1       6.580   4.259  17.704  0.00  0.00    +0.000 OA
BRANCH  14  18
ATOM     15  C   UNL     1       7.974   8.228  18.032  0.00  0.00    +0.000 A 
ATOM     16  C   UNL     1       8.380   7.231  18.932  0.00  0.00    +0.000 A 
ATOM     17  C   UNL     1       7.924   5.914  18.789  0.00  0.00    +0.000 A 
ATOM     18  C   UNL     1       7.055   5.593  17.747  0.00  0.00    +0.000 A 
ATOM     19  C   UNL     1       6.717   6.561  16.798  0.00  0.00    +0.000 A 
ATOM     20  C   UNL     1       7.150   7.880  16.955  0.00  0.00    +0.000 A 
BRANCH  15  21
ATOM     21  C   UNL     1       8.435   9.628  18.251  0.00  0.00    +0.000 C 
ATOM     22  O   UNL     1       8.084  10.572  17.562  0.00  0.00    +0.000 OA
BRANCH  21  24
ATOM     23  C   UNL     1      10.057  10.888  19.384  0.00  0.00    +0.000 C 
ATOM     24  O   UNL     1       9.289   9.685  19.305  0.00  0.00    +0.000 OA
ENDBRANCH  21  24
ENDBRANCH  15  21
ENDBRANCH  14  18
ENDBRANCH   1  14
TORSDOF 6
ENDMDL
MODEL 9
REMARK VINA RESULT:      -7.0      3.111      5.198
REMARK  Name = 
REMARK  7 active torsions:
REMARK  status: ('A' for Active; 'I' for Inactive)
REMARK    1  A    between atoms: C_1  and  O_2
REMARK    2  A    between atoms: O_2  and  C_3
REMARK    3  A    between atoms: C_3  and  C_5
REMARK    4  A    between atoms: C_8  and  O_9
REMARK    5  A    between atoms: O_9  and  C_10
REMARK    6  A    between atoms: N_12  and  C_13
REMARK    7  A    between atoms: C_18  and  N_19
REMARK                            x       y       z     vdW  Elec       q    Type
REMARK                         _______ _______ _______ _____ _____    ______ ____
ROOT
ATOM      1  C   UNL     1       5.187   5.674  18.160  0.00  0.00    +0.000 C 
ATOM      2  O   UNL     1       4.420   6.611  17.980  0.00  0.00    +0.000 OA
ATOM      3  N   UNL     1       4.985   4.682  19.099  0.00  0.00    +0.000 N 
ATOM      4  H   UNL     1       5.823   4.274  19.506  0.00  0.00    +0.000 HD
ENDROOT
BRANCH   3   5
ATOM      5  C   UNL     1       3.721   4.383  19.676  0.00  0.00    +0.000 A 
ATOM      6  C   UNL     1       2.871   5.450  20.026  0.00  0.00    +0.000 A 
ATOM      7  C   UNL     1       1.595   5.236  20.549  0.00  0.00    +0.000 A 
ATOM      8  C   UNL     1       1.128   3.943  20.733  0.00  0.00    +0.000 A 
ATOM      9  C   UNL     1       1.937   2.862  20.385  0.00  0.00    +0.000 A 
ATOM     10  C   UNL     1       3.227   3.074  19.850  0.00  0.00    +0.000 A 
BRANCH  10  11
ATOM     11  N   UNL     1       4.035   1.888  19.533  0.00  0.00    +0.000 N 
ATOM     12  O   UNL     1       5.044   1.664  20.219  0.00  0.00    +0.000 OA
ATOM     13  O   UNL     1       3.669   1.175  18.584  0.00  0.00    +0.000 OA
ENDBRANCH  10  11
ENDBRANCH   3   5
BRANCH   1  14
ATOM     14  O   UNL     1       6.373   5.469  17.453  0.00  0.00    +0.000 OA
BRANCH  14  18
ATOM     15  C   UNL     1       6.045   3.930  13.537  0.00  0.00    +0.000 A 
ATOM     16  C   UNL     1       4.982   3.847  14.450  0.00  0.00    +0.000 A 
ATOM     17  C   UNL     1       5.105   4.386  15.737  0.00  0.00    +0.000 A 
ATOM     18  C   UNL     1       6.295   5.007  16.116  0.00  0.00    +0.000 A 
ATOM     19  C   UNL     1       7.323   5.170  15.184  0.00  0.00    +0.000 A 
ATOM     20  C   UNL     1       7.212   4.609  13.909  0.00  0.00    +0.000 A 
BRANCH  15  21
ATOM     21  C   UNL     1       5.896   3.294  12.199  0.00  0.00    +0.000 C 
ATOM     22  O   UNL     1       4.820   3.108  11.653  0.00  0.00    +0.000 OA
BRANCH  21  24
ATOM     23  C   UNL     1       7.167   1.665  11.088  0.00  0.00    +0.000 C 
ATOM     24  O   UNL     1       7.112   2.956  11.697  0.00  0.00    +0.000 OA
ENDBRANCH  21  24
ENDBRANCH  15  21
ENDBRANCH  14  18
ENDBRANCH   1  14
TORSDOF 6
ENDMDL
