MODEL 1
REMARK VINA RESULT:      -6.7      0.000      0.000
REMARK  Name = 
REMARK  12 active torsions:
REMARK  status: ('A' for Active; 'I' for Inactive)
REMARK    1  A    between atoms: C_2  and  C_3
REMARK    2  A    between atoms: C_3  and  O_4
REMARK    3  A    between atoms: O_4  and  C_5
REMARK    4  A    between atoms: C_5  and  C_7
REMARK    5  A    between atoms: C_7  and  C_8
REMARK    6  A    between atoms: C_8  and  C_9
REMARK    7  A    between atoms: C_9  and  C_10
REMARK    8  A    between atoms: C_9  and  C_11
REMARK    9  A    between atoms: C_20  and  O_21
REMARK   10  A    between atoms: C_24  and  C_25
REMARK   11  A    between atoms: C_28  and  O_29
REMARK   12  A    between atoms: C_30  and  C_31
REMARK                            x       y       z     vdW  Elec       q    Type
REMARK                         _______ _______ _______ _____ _____    ______ ____
ROOT
ATOM      1  C   UNL     1       0.563   9.323  20.239  0.00  0.00    +0.000 C 
ATOM      2  C   UNL     1       0.825   8.849  21.704  0.00  0.00    +0.000 C 
ATOM      3  C   UNL     1       0.009   9.769  22.642  0.00  0.00    +0.000 C 
ATOM      4  C   UNL     1      -0.879  10.575  21.698  0.00  0.00    +0.000 C 
ATOM      5  C   UNL     1      -1.478  11.914  22.180  0.00  0.00    +0.000 C 
ATOM      6  C   UNL     1      -2.272  11.771  23.476  0.00  0.00    +0.000 C 
ATOM      7  C   UNL     1      -2.932  13.092  23.870  0.00  0.00    +0.000 C 
ATOM      8  C   UNL     1      -3.801  13.693  22.750  0.00  0.00    +0.000 C 
ATOM      9  C   UNL     1      -5.075  12.844  22.570  0.00  0.00    +0.000 C 
ATOM     10  C   UNL     1      -5.978  13.387  21.467  0.00  0.00    +0.000 C 
ATOM     11  C   UNL     1      -5.229  13.485  20.145  0.00  0.00    +0.000 C 
ATOM     12  C   UNL     1      -3.996  14.367  20.302  0.00  0.00    +0.000 C 
ATOM     13  C   UNL     1      -3.012  13.882  21.413  0.00  0.00    +0.000 C 
ATOM     14  C   UNL     1      -1.953  15.002  21.586  0.00  0.00    +0.000 C 
ATOM     15  C   UNL     1      -2.338  12.522  21.024  0.00  0.00    +0.000 C 
ATOM     16  C   UNL     1      -1.561  12.605  19.687  0.00  0.00    +0.000 C 
ATOM     17  C   UNL     1      -0.860  11.303  19.303  0.00  0.00    +0.000 C 
ATOM     18  C   UNL     1       0.029  10.778  20.449  0.00  0.00    +0.000 C 
ATOM     19  C   UNL     1       1.159  11.802  20.796  0.00  0.00    +0.000 C 
ENDROOT
BRANCH   1  20
ATOM     20  C   UNL     1       1.765   9.061  19.256  0.00  0.00    +0.000 C 
ATOM     21  C   UNL     1       1.473   9.350  17.772  0.00  0.00    +0.000 C 
BRANCH  20  22
ATOM     22  C   UNL     1       2.278   7.596  19.349  0.00  0.00    +0.000 C 
BRANCH  22  23
ATOM     23  C   UNL     1       2.985   7.144  18.060  0.00  0.00    +0.000 C 
BRANCH  23  24
ATOM     24  C   UNL     1       3.709   5.831  18.201  0.00  0.00    +0.000 C 
ATOM     25  O   UNL     1       4.788   5.673  18.718  0.00  0.00    +0.000 OA
BRANCH  24  26
ATOM     26  O   UNL     1       2.940   4.861  17.617  0.00  0.00    +0.000 OA
BRANCH  26  27
ATOM     27  C   UNL     1       2.869   3.688  18.410  0.00  0.00    +0.000 C 
BRANCH  27  29
ATOM     28  C   UNL     1       0.932   4.058  20.431  0.00  0.00    +0.000 C 
ATOM     29  C   UNL     1       1.827   3.887  19.498  0.00  0.00    +0.000 C 
ENDBRANCH  27  29
ENDBRANCH  26  27
ENDBRANCH  24  26
ENDBRANCH  23  24
ENDBRANCH  22  23
ENDBRANCH  20  22
ENDBRANCH   1  20
BRANCH  10  30
ATOM     30  O   UNL     1      -7.116  12.549  21.321  0.00  0.00    +0.000 OA
ATOM     31  H   UNL     1      -7.193  11.996  22.117  0.00  0.00    +0.000 HD
ENDBRANCH  10  30
BRANCH  17  32
ATOM     32  O   UNL     1      -1.834  10.346  18.886  0.00  0.00    +0.000 OA
ATOM     33  H   UNL     1      -2.631  10.432  19.438  0.00  0.00    +0.000 HD
ENDBRANCH  17  32
TORSDOF 9
ENDMDL
MODEL 2
REMARK VINA RESULT:      -6.6      1.028      1.768
REMARK  Name = 
REMARK  12 active torsions:
REMARK  status: ('A' for Active; 'I' for Inactive)
REMARK    1  A    between atoms: C_2  and  C_3
REMARK    2  A    between atoms: C_3  and  O_4
REMARK    3  A    between atoms: O_4  and  C_5
REMARK    4  A    between atoms: C_5  and  C_7
REMARK    5  A    between atoms: C_7  and  C_8
REMARK    6  A    between atoms: C_8  and  C_9
REMARK    7  A    between atoms: C_9  and  C_10
REMARK    8  A    between atoms: C_9  and  C_11
REMARK    9  A    between atoms: C_20  and  O_21
REMARK   10  A    between atoms: C_24  and  C_25
REMARK   11  A    between atoms: C_28  and  O_29
REMARK   12  A    between atoms: C_30  and  C_31
REMARK                            x       y       z     vdW  Elec       q    Type
REMARK                         _______ _______ _______ _____ _____    ______ ____
ROOT
ATOM      1  C   UNL     1       0.583   9.187  20.260  0.00  0.00    +0.000 C 
ATOM      2  C   UNL     1       0.864   8.762  21.736  0.00  0.00    +0.000 C 
ATOM      3  C   UNL     1       0.062   9.713  22.654  0.00  0.00    +0.000 C 
ATOM      4  C   UNL     1      -0.839  10.488  21.696  0.00  0.00    +0.000 C 
ATOM      5  C   UNL     1      -1.431  11.842  22.141  0.00  0.00    +0.000 C 
ATOM      6  C   UNL     1      -2.207  11.743  23.452  0.00  0.00    +0.000 C 
ATOM      7  C   UNL     1      -2.862  13.077  23.810  0.00  0.00    +0.000 C 
ATOM      8  C   UNL     1      -3.745  13.641  22.683  0.00  0.00    +0.000 C 
ATOM      9  C   UNL     1      -5.022  12.787  22.548  0.00  0.00    +0.000 C 
ATOM     10  C   UNL     1      -5.941  13.294  21.440  0.00  0.00    +0.000 C 
ATOM     11  C   UNL     1      -5.209  13.347  20.106  0.00  0.00    +0.000 C 
ATOM     12  C   UNL     1      -3.974  14.233  20.216  0.00  0.00    +0.000 C 
ATOM     13  C   UNL     1      -2.975  13.785  21.330  0.00  0.00    +0.000 C 
ATOM     14  C   UNL     1      -1.914  14.909  21.451  0.00  0.00    +0.000 C 
ATOM     15  C   UNL     1      -2.307  12.412  20.977  0.00  0.00    +0.000 C 
ATOM     16  C   UNL     1      -1.548  12.450  19.628  0.00  0.00    +0.000 C 
ATOM     17  C   UNL     1      -0.852  11.136  19.278  0.00  0.00    +0.000 C 
ATOM     18  C   UNL     1       0.052  10.648  20.429  0.00  0.00    +0.000 C 
ATOM     19  C   UNL     1       1.187  11.683  20.726  0.00  0.00    +0.000 C 
ENDROOT
BRANCH   1  20
ATOM     20  C   UNL     1       1.771   8.891  19.271  0.00  0.00    +0.000 C 
ATOM     21  C   UNL     1       1.454   9.114  17.780  0.00  0.00    +0.000 C 
BRANCH  20  22
ATOM     22  C   UNL     1       2.298   7.435  19.418  0.00  0.00    +0.000 C 
BRANCH  22  23
ATOM     23  C   UNL     1       2.500   6.749  18.057  0.00  0.00    +0.000 C 
BRANCH  23  24
ATOM     24  C   UNL     1       3.502   5.625  18.094  0.00  0.00    +0.000 C 
ATOM     25  O   UNL     1       3.620   4.758  17.263  0.00  0.00    +0.000 OA
BRANCH  24  26
ATOM     26  O   UNL     1       4.231   5.749  19.245  0.00  0.00    +0.000 OA
BRANCH  26  27
ATOM     27  C   UNL     1       5.280   4.798  19.317  0.00  0.00    +0.000 C 
BRANCH  27  29
ATOM     28  C   UNL     1       7.735   6.095  18.800  0.00  0.00    +0.000 C 
ATOM     29  C   UNL     1       6.602   5.496  19.038  0.00  0.00    +0.000 C 
ENDBRANCH  27  29
ENDBRANCH  26  27
ENDBRANCH  24  26
ENDBRANCH  23  24
ENDBRANCH  22  23
ENDBRANCH  20  22
ENDBRANCH   1  20
BRANCH  10  30
ATOM     30  O   UNL     1      -7.081  12.452  21.338  0.00  0.00    +0.000 OA
ATOM     31  H   UNL     1      -7.831  12.901  21.764  0.00  0.00    +0.000 HD
ENDBRANCH  10  30
BRANCH  17  32
ATOM     32  O   UNL     1      -1.832  10.166  18.907  0.00  0.00    +0.000 OA
ATOM     33  H   UNL     1      -2.691  10.404  19.298  0.00  0.00    +0.000 HD
ENDBRANCH  17  32
TORSDOF 9
ENDMDL
MODEL 3
REMARK VINA RESULT:      -6.5      0.961      1.625
REMARK  Name = 
REMARK  12 active torsions:
REMARK  status: ('A' for Active; 'I' for Inactive)
REMARK    1  A    between atoms: C_2  and  C_3
REMARK    2  A    between atoms: C_3  and  O_4
REMARK    3  A    between atoms: O_4  and  C_5
REMARK    4  A    between atoms: C_5  and  C_7
REMARK    5  A    between atoms: C_7  and  C_8
REMARK    6  A    between atoms: C_8  and  C_9
REMARK    7  A    between atoms: C_9  and  C_10
REMARK    8  A    between atoms: C_9  and  C_11
REMARK    9  A    between atoms: C_20  and  O_21
REMARK   10  A    between atoms: C_24  and  C_25
REMARK   11  A    between atoms: C_28  and  O_29
REMARK   12  A    between atoms: C_30  and  C_31
REMARK                            x       y       z     vdW  Elec       q    Type
REMARK                         _______ _______ _______ _____ _____    ______ ____
ROOT
ATOM      1  C   UNL     1       0.507   9.263  20.308  0.00  0.00    +0.000 C 
ATOM      2  C   UNL     1       0.775   8.843  21.788  0.00  0.00    +0.000 C 
ATOM      3  C   UNL     1      -0.038   9.795  22.695  0.00  0.00    +0.000 C 
ATOM      4  C   UNL     1      -0.930  10.566  21.727  0.00  0.00    +0.000 C 
ATOM      5  C   UNL     1      -1.528  11.920  22.162  0.00  0.00    +0.000 C 
ATOM      6  C   UNL     1      -2.317  11.823  23.466  0.00  0.00    +0.000 C 
ATOM      7  C   UNL     1      -2.977  13.157  23.815  0.00  0.00    +0.000 C 
ATOM      8  C   UNL     1      -3.851  13.716  22.678  0.00  0.00    +0.000 C 
ATOM      9  C   UNL     1      -5.125  12.860  22.533  0.00  0.00    +0.000 C 
ATOM     10  C   UNL     1      -6.033  13.363  21.415  0.00  0.00    +0.000 C 
ATOM     11  C   UNL     1      -5.289  13.414  20.087  0.00  0.00    +0.000 C 
ATOM     12  C   UNL     1      -4.056  14.302  20.208  0.00  0.00    +0.000 C 
ATOM     13  C   UNL     1      -3.068  13.858  21.332  0.00  0.00    +0.000 C 
ATOM     14  C   UNL     1      -2.009  14.984  21.460  0.00  0.00    +0.000 C 
ATOM     15  C   UNL     1      -2.394  12.485  20.989  0.00  0.00    +0.000 C 
ATOM     16  C   UNL     1      -1.623  12.521  19.647  0.00  0.00    +0.000 C 
ATOM     17  C   UNL     1      -0.921  11.207  19.307  0.00  0.00    +0.000 C 
ATOM     18  C   UNL     1      -0.028  10.724  20.467  0.00  0.00    +0.000 C 
ATOM     19  C   UNL     1       1.103  11.761  20.773  0.00  0.00    +0.000 C 
ENDROOT
BRANCH   1  20
ATOM     20  C   UNL     1       1.705   8.967  19.330  0.00  0.00    +0.000 C 
ATOM     21  C   UNL     1       1.377   9.099  17.831  0.00  0.00    +0.000 C 
BRANCH  20  22
ATOM     22  C   UNL     1       2.293   7.544  19.551  0.00  0.00    +0.000 C 
BRANCH  22  23
ATOM     23  C   UNL     1       2.633   6.843  18.224  0.00  0.00    +0.000 C 
BRANCH  23  24
ATOM     24  C   UNL     1       3.549   5.658  18.390  0.00  0.00    +0.000 C 
ATOM     25  O   UNL     1       4.446   5.568  19.192  0.00  0.00    +0.000 OA
BRANCH  24  26
ATOM     26  O   UNL     1       3.200   4.722  17.455  0.00  0.00    +0.000 OA
BRANCH  26  27
ATOM     27  C   UNL     1       4.287   3.880  17.111  0.00  0.00    +0.000 C 
BRANCH  27  29
ATOM     28  C   UNL     1       5.697   5.030  14.952  0.00  0.00    +0.000 C 
ATOM     29  C   UNL     1       5.046   4.500  15.949  0.00  0.00    +0.000 C 
ENDBRANCH  27  29
ENDBRANCH  26  27
ENDBRANCH  24  26
ENDBRANCH  23  24
ENDBRANCH  22  23
ENDBRANCH  20  22
ENDBRANCH   1  20
BRANCH  10  30
ATOM     30  O   UNL     1      -7.171  12.519  21.304  0.00  0.00    +0.000 OA
ATOM     31  H   UNL     1      -6.972  11.821  20.657  0.00  0.00    +0.000 HD
ENDBRANCH  10  30
BRANCH  17  32
ATOM     32  O   UNL     1      -1.897  10.235  18.929  0.00  0.00    +0.000 OA
ATOM     33  H   UNL     1      -2.471  10.602  18.235  0.00  0.00    +0.000 HD
ENDBRANCH  17  32
TORSDOF 9
ENDMDL
MODEL 4
REMARK VINA RESULT:      -6.4      0.886      1.256
REMARK  Name = 
REMARK  12 active torsions:
REMARK  status: ('A' for Active; 'I' for Inactive)
REMARK    1  A    between atoms: C_2  and  C_3
REMARK    2  A    between atoms: C_3  and  O_4
REMARK    3  A    between atoms: O_4  and  C_5
REMARK    4  A    between atoms: C_5  and  C_7
REMARK    5  A    between atoms: C_7  and  C_8
REMARK    6  A    between atoms: C_8  and  C_9
REMARK    7  A    between atoms: C_9  and  C_10
REMARK    8  A    between atoms: C_9  and  C_11
REMARK    9  A    between atoms: C_20  and  O_21
REMARK   10  A    between atoms: C_24  and  C_25
REMARK   11  A    between atoms: C_28  and  O_29
REMARK   12  A    between atoms: C_30  and  C_31
REMARK                            x       y       z     vdW  Elec       q    Type
REMARK                         _______ _______ _______ _____ _____    ______ ____
ROOT
ATOM      1  C   UNL     1       0.631   9.143  20.270  0.00  0.00    +0.000 C 
ATOM      2  C   UNL     1       0.934   8.761  21.754  0.00  0.00    +0.000 C 
ATOM      3  C   UNL     1       0.136   9.732  22.655  0.00  0.00    +0.000 C 
ATOM      4  C   UNL     1      -0.781  10.475  21.689  0.00  0.00    +0.000 C 
ATOM      5  C   UNL     1      -1.377  11.837  22.104  0.00  0.00    +0.000 C 
ATOM      6  C   UNL     1      -2.136  11.768  23.427  0.00  0.00    +0.000 C 
ATOM      7  C   UNL     1      -2.795  13.107  23.757  0.00  0.00    +0.000 C 
ATOM      8  C   UNL     1      -3.696  13.635  22.627  0.00  0.00    +0.000 C 
ATOM      9  C   UNL     1      -4.969  12.769  22.531  0.00  0.00    +0.000 C 
ATOM     10  C   UNL     1      -5.905  13.240  21.422  0.00  0.00    +0.000 C 
ATOM     11  C   UNL     1      -5.191  13.261  20.077  0.00  0.00    +0.000 C 
ATOM     12  C   UNL     1      -3.960  14.157  20.148  0.00  0.00    +0.000 C 
ATOM     13  C   UNL     1      -2.945  13.746  21.261  0.00  0.00    +0.000 C 
ATOM     14  C   UNL     1      -1.889  14.880  21.337  0.00  0.00    +0.000 C 
ATOM     15  C   UNL     1      -2.271  12.369  20.937  0.00  0.00    +0.000 C 
ATOM     16  C   UNL     1      -1.530  12.375  19.577  0.00  0.00    +0.000 C 
ATOM     17  C   UNL     1      -0.830  11.056  19.254  0.00  0.00    +0.000 C 
ATOM     18  C   UNL     1       0.092  10.606  20.406  0.00  0.00    +0.000 C 
ATOM     19  C   UNL     1       1.223  11.655  20.660  0.00  0.00    +0.000 C 
ENDROOT
BRANCH   1  20
ATOM     20  C   UNL     1       1.808   8.829  19.274  0.00  0.00    +0.000 C 
ATOM     21  C   UNL     1       1.446   8.924  17.780  0.00  0.00    +0.000 C 
BRANCH  20  22
ATOM     22  C   UNL     1       2.407   7.414  19.514  0.00  0.00    +0.000 C 
BRANCH  22  23
ATOM     23  C   UNL     1       2.606   6.635  18.203  0.00  0.00    +0.000 C 
BRANCH  23  24
ATOM     24  C   UNL     1       2.138   5.205  18.276  0.00  0.00    +0.000 C 
ATOM     25  O   UNL     1       1.363   4.678  17.517  0.00  0.00    +0.000 OA
BRANCH  24  26
ATOM     26  O   UNL     1       2.727   4.626  19.367  0.00  0.00    +0.000 OA
BRANCH  26  27
ATOM     27  C   UNL     1       4.001   4.085  19.061  0.00  0.00    +0.000 C 
BRANCH  27  29
ATOM     28  C   UNL     1       3.723   1.334  18.489  0.00  0.00    +0.000 C 
ATOM     29  C   UNL     1       3.851   2.604  18.754  0.00  0.00    +0.000 C 
ENDBRANCH  27  29
ENDBRANCH  26  27
ENDBRANCH  24  26
ENDBRANCH  23  24
ENDBRANCH  22  23
ENDBRANCH  20  22
ENDBRANCH   1  20
BRANCH  10  30
ATOM     30  O   UNL     1      -7.040  12.388  21.357  0.00  0.00    +0.000 OA
ATOM     31  H   UNL     1      -6.733  11.479  21.199  0.00  0.00    +0.000 HD
ENDBRANCH  10  30
BRANCH  17  32
ATOM     32  O   UNL     1      -1.808  10.070  18.922  0.00  0.00    +0.000 OA
ATOM     33  H   UNL     1      -2.646  10.279  19.370  0.00  0.00    +0.000 HD
ENDBRANCH  17  32
TORSDOF 9
ENDMDL
MODEL 5
REMARK VINA RESULT:      -6.3      3.542      5.097
REMARK  Name = 
REMARK  12 active torsions:
REMARK  status: ('A' for Active; 'I' for Inactive)
REMARK    1  A    between atoms: C_2  and  C_3
REMARK    2  A    between atoms: C_3  and  O_4
REMARK    3  A    between atoms: O_4  and  C_5
REMARK    4  A    between atoms: C_5  and  C_7
REMARK    5  A    between atoms: C_7  and  C_8
REMARK    6  A    between atoms: C_8  and  C_9
REMARK    7  A    between atoms: C_9  and  C_10
REMARK    8  A    between atoms: C_9  and  C_11
REMARK    9  A    between atoms: C_20  and  O_21
REMARK   10  A    between atoms: C_24  and  C_25
REMARK   11  A    between atoms: C_28  and  O_29
REMARK   12  A    between atoms: C_30  and  C_31
REMARK                            x       y       z     vdW  Elec       q    Type
REMARK                         _______ _______ _______ _____ _____    ______ ____
ROOT
ATOM      1  C   UNL     1       0.846  10.645  18.632  0.00  0.00    +0.000 C 
ATOM      2  C   UNL     1      -0.650  10.512  19.060  0.00  0.00    +0.000 C 
ATOM      3  C   UNL     1      -1.160  11.929  19.412  0.00  0.00    +0.000 C 
ATOM      4  C   UNL     1      -0.041  12.856  18.948  0.00  0.00    +0.000 C 
ATOM      5  C   UNL     1       0.059  14.278  19.540  0.00  0.00    +0.000 C 
ATOM      6  C   UNL     1      -1.233  15.075  19.380  0.00  0.00    +0.000 C 
ATOM      7  C   UNL     1      -1.068  16.508  19.886  0.00  0.00    +0.000 C 
ATOM      8  C   UNL     1       0.122  17.244  19.244  0.00  0.00    +0.000 C 
ATOM      9  C   UNL     1      -0.198  17.557  17.768  0.00  0.00    +0.000 C 
ATOM     10  C   UNL     1       0.949  18.285  17.072  0.00  0.00    +0.000 C 
ATOM     11  C   UNL     1       2.241  17.484  17.164  0.00  0.00    +0.000 C 
ATOM     12  C   UNL     1       2.592  17.216  18.623  0.00  0.00    +0.000 C 
ATOM     13  C   UNL     1       1.470  16.471  19.414  0.00  0.00    +0.000 C 
ATOM     14  C   UNL     1       1.897  16.486  20.905  0.00  0.00    +0.000 C 
ATOM     15  C   UNL     1       1.285  15.004  18.895  0.00  0.00    +0.000 C 
ATOM     16  C   UNL     1       2.586  14.171  18.991  0.00  0.00    +0.000 C 
ATOM     17  C   UNL     1       2.424  12.724  18.528  0.00  0.00    +0.000 C 
ATOM     18  C   UNL     1       1.246  12.029  19.241  0.00  0.00    +0.000 C 
ATOM     19  C   UNL     1       1.480  11.974  20.786  0.00  0.00    +0.000 C 
ENDROOT
BRANCH   1  20
ATOM     20  C   UNL     1       1.716   9.370  18.940  0.00  0.00    +0.000 C 
ATOM     21  C   UNL     1       2.223   8.607  17.701  0.00  0.00    +0.000 C 
BRANCH  20  22
ATOM     22  C   UNL     1       0.952   8.349  19.829  0.00  0.00    +0.000 C 
BRANCH  22  23
ATOM     23  C   UNL     1       1.897   7.554  20.747  0.00  0.00    +0.000 C 
BRANCH  23  24
ATOM     24  C   UNL     1       2.084   6.122  20.319  0.00  0.00    +0.000 C 
ATOM     25  O   UNL     1       1.331   5.210  20.562  0.00  0.00    +0.000 OA
BRANCH  24  26
ATOM     26  O   UNL     1       3.265   6.037  19.634  0.00  0.00    +0.000 OA
BRANCH  26  27
ATOM     27  C   UNL     1       3.333   4.872  18.830  0.00  0.00    +0.000 C 
BRANCH  27  29
ATOM     28  C   UNL     1       4.875   5.427  16.530  0.00  0.00    +0.000 C 
ATOM     29  C   UNL     1       4.164   5.171  17.592  0.00  0.00    +0.000 C 
ENDBRANCH  27  29
ENDBRANCH  26  27
ENDBRANCH  24  26
ENDBRANCH  23  24
ENDBRANCH  22  23
ENDBRANCH  20  22
ENDBRANCH   1  20
BRANCH  10  30
ATOM     30  O   UNL     1       0.615  18.517  15.711  0.00  0.00    +0.000 OA
ATOM     31  H   UNL     1       1.337  19.023  15.301  0.00  0.00    +0.000 HD
ENDBRANCH  10  30
BRANCH  17  32
ATOM     32  O   UNL     1       2.295  12.694  17.107  0.00  0.00    +0.000 OA
ATOM     33  H   UNL     1       2.435  13.587  16.748  0.00  0.00    +0.000 HD
ENDBRANCH  17  32
TORSDOF 9
ENDMDL
MODEL 6
REMARK VINA RESULT:      -6.3      2.432      3.847
REMARK  Name = 
REMARK  12 active torsions:
REMARK  status: ('A' for Active; 'I' for Inactive)
REMARK    1  A    between atoms: C_2  and  C_3
REMARK    2  A    between atoms: C_3  and  O_4
REMARK    3  A    between atoms: O_4  and  C_5
REMARK    4  A    between atoms: C_5  and  C_7
REMARK    5  A    between atoms: C_7  and  C_8
REMARK    6  A    between atoms: C_8  and  C_9
REMARK    7  A    between atoms: C_9  and  C_10
REMARK    8  A    between atoms: C_9  and  C_11
REMARK    9  A    between atoms: C_20  and  O_21
REMARK   10  A    between atoms: C_24  and  C_25
REMARK   11  A    between atoms: C_28  and  O_29
REMARK   12  A    between atoms: C_30  and  C_31
REMARK                            x       y       z     vdW  Elec       q    Type
REMARK                         _______ _______ _______ _____ _____    ______ ____
ROOT
ATOM      1  C   UNL     1       1.828   8.921  19.266  0.00  0.00    +0.000 C 
ATOM      2  C   UNL     1       2.460   9.552  17.985  0.00  0.00    +0.000 C 
ATOM      3  C   UNL     1       1.916  10.994  17.860  0.00  0.00    +0.000 C 
ATOM      4  C   UNL     1       1.192  11.238  19.181  0.00  0.00    +0.000 C 
ATOM      5  C   UNL     1       0.123  12.347  19.266  0.00  0.00    +0.000 C 
ATOM      6  C   UNL     1       0.653  13.710  18.825  0.00  0.00    +0.000 C 
ATOM      7  C   UNL     1      -0.400  14.802  19.015  0.00  0.00    +0.000 C 
ATOM      8  C   UNL     1      -0.961  14.861  20.447  0.00  0.00    +0.000 C 
ATOM      9  C   UNL     1       0.117  15.411  21.404  0.00  0.00    +0.000 C 
ATOM     10  C   UNL     1      -0.378  15.490  22.845  0.00  0.00    +0.000 C 
ATOM     11  C   UNL     1      -0.858  14.130  23.333  0.00  0.00    +0.000 C 
ATOM     12  C   UNL     1      -1.961  13.602  22.423  0.00  0.00    +0.000 C 
ATOM     13  C   UNL     1      -1.540  13.489  20.924  0.00  0.00    +0.000 C 
ATOM     14  C   UNL     1      -2.829  13.161  20.126  0.00  0.00    +0.000 C 
ATOM     15  C   UNL     1      -0.452  12.379  20.720  0.00  0.00    +0.000 C 
ATOM     16  C   UNL     1      -0.927  10.986  21.200  0.00  0.00    +0.000 C 
ATOM     17  C   UNL     1       0.100   9.877  20.977  0.00  0.00    +0.000 C 
ATOM     18  C   UNL     1       0.587   9.842  19.514  0.00  0.00    +0.000 C 
ATOM     19  C   UNL     1      -0.598   9.550  18.536  0.00  0.00    +0.000 C 
ENDROOT
BRANCH   1  20
ATOM     20  C   UNL     1       1.645   7.359  19.188  0.00  0.00    +0.000 C 
ATOM     21  C   UNL     1       1.970   6.596  20.485  0.00  0.00    +0.000 C 
BRANCH  20  22
ATOM     22  C   UNL     1       2.505   6.732  18.055  0.00  0.00    +0.000 C 
BRANCH  22  23
ATOM     23  C   UNL     1       2.987   5.315  18.406  0.00  0.00    +0.000 C 
BRANCH  23  24
ATOM     24  C   UNL     1       2.092   4.227  17.871  0.00  0.00    +0.000 C 
ATOM     25  O   UNL     1       1.077   4.396  17.241  0.00  0.00    +0.000 OA
BRANCH  24  26
ATOM     26  O   UNL     1       2.621   3.023  18.248  0.00  0.00    +0.000 OA
BRANCH  26  27
ATOM     27  C   UNL     1       1.659   2.191  18.874  0.00  0.00    +0.000 C 
BRANCH  27  29
ATOM     28  C   UNL     1       1.546   2.820  21.625  0.00  0.00    +0.000 C 
ATOM     29  C   UNL     1       1.599   2.530  20.355  0.00  0.00    +0.000 C 
ENDBRANCH  27  29
ENDBRANCH  26  27
ENDBRANCH  24  26
ENDBRANCH  23  24
ENDBRANCH  22  23
ENDBRANCH  20  22
ENDBRANCH   1  20
BRANCH  10  30
ATOM     30  O   UNL     1       0.663  15.969  23.685  0.00  0.00    +0.000 OA
ATOM     31  H   UNL     1       0.878  16.879  23.417  0.00  0.00    +0.000 HD
ENDBRANCH  10  30
BRANCH  17  32
ATOM     32  O   UNL     1       1.173  10.032  21.905  0.00  0.00    +0.000 OA
ATOM     33  H   UNL     1       1.287   9.210  22.412  0.00  0.00    +0.000 HD
ENDBRANCH  17  32
TORSDOF 9
ENDMDL
MODEL 7
REMARK VINA RESULT:      -6.2      1.015      1.775
REMARK  Name = 
REMARK  12 active torsions:
REMARK  status: ('A' for Active; 'I' for Inactive)
REMARK    1  A    between atoms: C_2  and  C_3
REMARK    2  A    between atoms: C_3  and  O_4
REMARK    3  A    between atoms: O_4  and  C_5
REMARK    4  A    between atoms: C_5  and  C_7
REMARK    5  A    between atoms: C_7  and  C_8
REMARK    6  A    between atoms: C_8  and  C_9
REMARK    7  A    between atoms: C_9  and  C_10
REMARK    8  A    between atoms: C_9  and  C_11
REMARK    9  A    between atoms: C_20  and  O_21
REMARK   10  A    between atoms: C_24  and  C_25
REMARK   11  A    between atoms: C_28  and  O_29
REMARK   12  A    between atoms: C_30  and  C_31
REMARK                            x       y       z     vdW  Elec       q    Type
REMARK                         _______ _______ _______ _____ _____    ______ ____
ROOT
ATOM      1  C   UNL     1       0.930   8.895  20.069  0.00  0.00    +0.000 C 
ATOM      2  C   UNL     1       1.346   8.579  21.540  0.00  0.00    +0.000 C 
ATOM      3  C   UNL     1       0.594   9.568  22.459  0.00  0.00    +0.000 C 
ATOM      4  C   UNL     1      -0.408  10.253  21.534  0.00  0.00    +0.000 C 
ATOM      5  C   UNL     1      -1.003  11.618  21.938  0.00  0.00    +0.000 C 
ATOM      6  C   UNL     1      -1.664  11.588  23.314  0.00  0.00    +0.000 C 
ATOM      7  C   UNL     1      -2.328  12.925  23.640  0.00  0.00    +0.000 C 
ATOM      8  C   UNL     1      -3.320  13.389  22.558  0.00  0.00    +0.000 C 
ATOM      9  C   UNL     1      -4.576  12.495  22.588  0.00  0.00    +0.000 C 
ATOM     10  C   UNL     1      -5.599  12.902  21.532  0.00  0.00    +0.000 C 
ATOM     11  C   UNL     1      -4.984  12.884  20.139  0.00  0.00    +0.000 C 
ATOM     12  C   UNL     1      -3.772  13.807  20.087  0.00  0.00    +0.000 C 
ATOM     13  C   UNL     1      -2.671  13.461  21.138  0.00  0.00    +0.000 C 
ATOM     14  C   UNL     1      -1.638  14.618  21.094  0.00  0.00    +0.000 C 
ATOM     15  C   UNL     1      -1.991  12.085  20.819  0.00  0.00    +0.000 C 
ATOM     16  C   UNL     1      -1.349  12.052  19.410  0.00  0.00    +0.000 C 
ATOM     17  C   UNL     1      -0.643  10.736  19.088  0.00  0.00    +0.000 C 
ATOM     18  C   UNL     1       0.368  10.351  20.187  0.00  0.00    +0.000 C 
ATOM     19  C   UNL     1       1.491  11.432  20.318  0.00  0.00    +0.000 C 
ENDROOT
BRANCH   1  20
ATOM     20  C   UNL     1       2.040   8.565  19.003  0.00  0.00    +0.000 C 
ATOM     21  C   UNL     1       1.568   8.586  17.537  0.00  0.00    +0.000 C 
BRANCH  20  22
ATOM     22  C   UNL     1       2.691   7.176  19.258  0.00  0.00    +0.000 C 
BRANCH  22  23
ATOM     23  C   UNL     1       1.671   6.029  19.170  0.00  0.00    +0.000 C 
BRANCH  23  24
ATOM     24  C   UNL     1       2.102   4.911  18.257  0.00  0.00    +0.000 C 
ATOM     25  O   UNL     1       1.401   4.351  17.449  0.00  0.00    +0.000 OA
BRANCH  24  26
ATOM     26  O   UNL     1       3.413   4.629  18.527  0.00  0.00    +0.000 OA
BRANCH  26  27
ATOM     27  C   UNL     1       4.127   4.251  17.362  0.00  0.00    +0.000 C 
BRANCH  27  29
ATOM     28  C   UNL     1       5.113   6.573  16.094  0.00  0.00    +0.000 C 
ATOM     29  C   UNL     1       4.658   5.500  16.679  0.00  0.00    +0.000 C 
ENDBRANCH  27  29
ENDBRANCH  26  27
ENDBRANCH  24  26
ENDBRANCH  23  24
ENDBRANCH  22  23
ENDBRANCH  20  22
ENDBRANCH   1  20
BRANCH  10  30
ATOM     30  O   UNL     1      -6.717  12.026  21.582  0.00  0.00    +0.000 OA
ATOM     31  H   UNL     1      -7.278  12.288  22.332  0.00  0.00    +0.000 HD
ENDBRANCH  10  30
BRANCH  17  32
ATOM     32  O   UNL     1      -1.620   9.718  18.866  0.00  0.00    +0.000 OA
ATOM     33  H   UNL     1      -2.448   9.957  19.317  0.00  0.00    +0.000 HD
ENDBRANCH  17  32
TORSDOF 9
ENDMDL
MODEL 8
REMARK VINA RESULT:      -6.1      2.259      3.610
REMARK  Name = 
REMARK  12 active torsions:
REMARK  status: ('A' for Active; 'I' for Inactive)
REMARK    1  A    between atoms: C_2  and  C_3
REMARK    2  A    between atoms: C_3  and  O_4
REMARK    3  A    between atoms: O_4  and  C_5
REMARK    4  A    between atoms: C_5  and  C_7
REMARK    5  A    between atoms: C_7  and  C_8
REMARK    6  A    between atoms: C_8  and  C_9
REMARK    7  A    between atoms: C_9  and  C_10
REMARK    8  A    between atoms: C_9  and  C_11
REMARK    9  A    between atoms: C_20  and  O_21
REMARK   10  A    between atoms: C_24  and  C_25
REMARK   11  A    between atoms: C_28  and  O_29
REMARK   12  A    between atoms: C_30  and  C_31
REMARK                            x       y       z     vdW  Elec       q    Type
REMARK                         _______ _______ _______ _____ _____    ______ ____
ROOT
ATOM      1  C   UNL     1       2.012   9.325  19.071  0.00  0.00    +0.000 C 
ATOM      2  C   UNL     1       2.664  10.147  17.914  0.00  0.00    +0.000 C 
ATOM      3  C   UNL     1       2.029  11.557  17.931  0.00  0.00    +0.000 C 
ATOM      4  C   UNL     1       1.224  11.591  19.226  0.00  0.00    +0.000 C 
ATOM      5  C   UNL     1       0.078  12.613  19.380  0.00  0.00    +0.000 C 
ATOM      6  C   UNL     1       0.534  14.050  19.137  0.00  0.00    +0.000 C 
ATOM      7  C   UNL     1      -0.600  15.042  19.394  0.00  0.00    +0.000 C 
ATOM      8  C   UNL     1      -1.235  14.890  20.787  0.00  0.00    +0.000 C 
ATOM      9  C   UNL     1      -0.248  15.384  21.865  0.00  0.00    +0.000 C 
ATOM     10  C   UNL     1      -0.820  15.254  23.273  0.00  0.00    +0.000 C 
ATOM     11  C   UNL     1      -1.229  13.816  23.566  0.00  0.00    +0.000 C 
ATOM     12  C   UNL     1      -2.246  13.338  22.536  0.00  0.00    +0.000 C 
ATOM     13  C   UNL     1      -1.742  13.436  21.062  0.00  0.00    +0.000 C 
ATOM     14  C   UNL     1      -2.963  13.129  20.156  0.00  0.00    +0.000 C 
ATOM     15  C   UNL     1      -0.571  12.430  20.791  0.00  0.00    +0.000 C 
ATOM     16  C   UNL     1      -0.973  10.961  21.073  0.00  0.00    +0.000 C 
ATOM     17  C   UNL     1       0.137   9.954  20.779  0.00  0.00    +0.000 C 
ATOM     18  C   UNL     1       0.700  10.129  19.353  0.00  0.00    +0.000 C 
ATOM     19  C   UNL     1      -0.411   9.887  18.279  0.00  0.00    +0.000 C 
ENDROOT
BRANCH   1  20
ATOM     20  C   UNL     1       1.941   7.777  18.797  0.00  0.00    +0.000 C 
ATOM     21  C   UNL     1       2.160   6.881  20.030  0.00  0.00    +0.000 C 
BRANCH  20  22
ATOM     22  C   UNL     1       2.967   7.333  17.716  0.00  0.00    +0.000 C 
BRANCH  22  23
ATOM     23  C   UNL     1       3.996   6.332  18.266  0.00  0.00    +0.000 C 
BRANCH  23  24
ATOM     24  C   UNL     1       4.248   5.165  17.348  0.00  0.00    +0.000 C 
ATOM     25  O   UNL     1       4.735   5.228  16.245  0.00  0.00    +0.000 OA
BRANCH  24  26
ATOM     26  O   UNL     1       3.804   4.032  17.974  0.00  0.00    +0.000 OA
BRANCH  26  27
ATOM     27  C   UNL     1       2.551   3.601  17.470  0.00  0.00    +0.000 C 
BRANCH  27  29
ATOM     28  C   UNL     1       0.779   3.195  19.631  0.00  0.00    +0.000 C 
ATOM     29  C   UNL     1       1.597   3.384  18.633  0.00  0.00    +0.000 C 
ENDBRANCH  27  29
ENDBRANCH  26  27
ENDBRANCH  24  26
ENDBRANCH  23  24
ENDBRANCH  22  23
ENDBRANCH  20  22
ENDBRANCH   1  20
BRANCH  10  30
ATOM     30  O   UNL     1       0.142  15.690  24.224  0.00  0.00    +0.000 OA
ATOM     31  H   UNL     1      -0.026  15.227  25.063  0.00  0.00    +0.000 HD
ENDBRANCH  10  30
BRANCH  17  32
ATOM     32  O   UNL     1       1.149  10.060  21.781  0.00  0.00    +0.000 OA
ATOM     33  H   UNL     1       1.417   9.170  22.069  0.00  0.00    +0.000 HD
ENDBRANCH  17  32
TORSDOF 9
ENDMDL
MODEL 9
REMARK VINA RESULT:      -6.1      2.446      3.937
REMARK  Name = 
REMARK  12 active torsions:
REMARK  status: ('A' for Active; 'I' for Inactive)
REMARK    1  A    between atoms: C_2  and  C_3
REMARK    2  A    between atoms: C_3  and  O_4
REMARK    3  A    between atoms: O_4  and  C_5
REMARK    4  A    between atoms: C_5  and  C_7
REMARK    5  A    between atoms: C_7  and  C_8
REMARK    6  A    between atoms: C_8  and  C_9
REMARK    7  A    between atoms: C_9  and  C_10
REMARK    8  A    between atoms: C_9  and  C_11
REMARK    9  A    between atoms: C_20  and  O_21
REMARK   10  A    between atoms: C_24  and  C_25
REMARK   11  A    between atoms: C_28  and  O_29
REMARK   12  A    between atoms: C_30  and  C_31
REMARK                            x       y       z     vdW  Elec       q    Type
REMARK                         _______ _______ _______ _____ _____    ______ ____
ROOT
ATOM      1  C   UNL     1       1.623  10.045  19.296  0.00  0.00    +0.000 C 
ATOM      2  C   UNL     1       2.176  10.887  18.103  0.00  0.00    +0.000 C 
ATOM      3  C   UNL     1       1.530  12.289  18.185  0.00  0.00    +0.000 C 
ATOM      4  C   UNL     1       0.826  12.299  19.539  0.00  0.00    +0.000 C 
ATOM      5  C   UNL     1      -0.316  13.307  19.793  0.00  0.00    +0.000 C 
ATOM      6  C   UNL     1       0.106  14.751  19.533  0.00  0.00    +0.000 C 
ATOM      7  C   UNL     1      -1.015  15.728  19.888  0.00  0.00    +0.000 C 
ATOM      8  C   UNL     1      -1.539  15.552  21.324  0.00  0.00    +0.000 C 
ATOM      9  C   UNL     1      -0.478  16.046  22.328  0.00  0.00    +0.000 C 
ATOM     10  C   UNL     1      -0.938  15.893  23.775  0.00  0.00    +0.000 C 
ATOM     11  C   UNL     1      -1.308  14.448  24.081  0.00  0.00    +0.000 C 
ATOM     12  C   UNL     1      -2.396  13.969  23.127  0.00  0.00    +0.000 C 
ATOM     13  C   UNL     1      -2.008  14.090  21.619  0.00  0.00    +0.000 C 
ATOM     14  C   UNL     1      -3.293  13.780  20.806  0.00  0.00    +0.000 C 
ATOM     15  C   UNL     1      -0.852  13.100  21.247  0.00  0.00    +0.000 C 
ATOM     16  C   UNL     1      -1.215  11.624  21.541  0.00  0.00    +0.000 C 
ATOM     17  C   UNL     1      -0.120  10.633  21.150  0.00  0.00    +0.000 C 
ATOM     18  C   UNL     1       0.329  10.831  19.688  0.00  0.00    +0.000 C 
ATOM     19  C   UNL     1      -0.859  10.588  18.700  0.00  0.00    +0.000 C 
ENDROOT
BRANCH   1  20
ATOM     20  C   UNL     1       1.547   8.499  19.009  0.00  0.00    +0.000 C 
ATOM     21  C   UNL     1       1.756   7.593  20.237  0.00  0.00    +0.000 C 
BRANCH  20  22
ATOM     22  C   UNL     1       2.579   8.060  17.931  0.00  0.00    +0.000 C 
BRANCH  22  23
ATOM     23  C   UNL     1       3.140   6.653  18.201  0.00  0.00    +0.000 C 
BRANCH  23  24
ATOM     24  C   UNL     1       4.288   6.282  17.299  0.00  0.00    +0.000 C 
ATOM     25  O   UNL     1       4.696   6.938  16.372  0.00  0.00    +0.000 OA
BRANCH  24  26
ATOM     26  O   UNL     1       4.763   5.063  17.701  0.00  0.00    +0.000 OA
BRANCH  26  27
ATOM     27  C   UNL     1       5.165   5.070  19.060  0.00  0.00    +0.000 C 
BRANCH  27  29
ATOM     28  C   UNL     1       7.880   5.831  19.215  0.00  0.00    +0.000 C 
ATOM     29  C   UNL     1       6.626   5.480  19.143  0.00  0.00    +0.000 C 
ENDBRANCH  27  29
ENDBRANCH  26  27
ENDBRANCH  24  26
ENDBRANCH  23  24
ENDBRANCH  22  23
ENDBRANCH  20  22
ENDBRANCH   1  20
BRANCH  10  30
ATOM     30  O   UNL     1       0.090  16.329  24.654  0.00  0.00    +0.000 OA
ATOM     31  H   UNL     1      -0.325  16.787  25.406  0.00  0.00    +0.000 HD
ENDBRANCH  10  30
BRANCH  17  32
ATOM     32  O   UNL     1       0.964  10.739  22.073  0.00  0.00    +0.000 OA
ATOM     33  H   UNL     1       1.797  10.864  21.584  0.00  0.00    +0.000 HD
ENDBRANCH  17  32
TORSDOF 9
ENDMDL
