MODEL 1
REMARK VINA RESULT:      -5.5      0.000      0.000
REMARK  Name = 
REMARK  12 active torsions:
REMARK  status: ('A' for Active; 'I' for Inactive)
REMARK    1  A    between atoms: C_1  and  O_2
REMARK    2  A    between atoms: O_2  and  C_3
REMARK    3  A    between atoms: C_3  and  O_4
REMARK    4  A    between atoms: O_4  and  C_5
REMARK    5  A    between atoms: C_6  and  C_7
REMARK    6  A    between atoms: C_8  and  C_9
REMARK    7  A    between atoms: C_16  and  C_17
REMARK    8  A    between atoms: C_16  and  C_19
REMARK    9  A    between atoms: C_21  and  O_22
REMARK   10  A    between atoms: C_21  and  O_24
REMARK   11  A    between atoms: O_22  and  C_23
REMARK   12  A    between atoms: O_24  and  C_25
REMARK                            x       y       z     vdW  Elec       q    Type
REMARK                         _______ _______ _______ _____ _____    ______ ____
ROOT
ATOM      1  C   UNL     1       3.199   4.919  18.873  0.00  0.00    +0.000 C 
ATOM      2  C   UNL     1       3.239   6.018  17.697  0.00  0.00    +0.000 C 
ATOM      3  C   UNL     1       4.685   5.532  17.303  0.00  0.00    +0.000 C 
ATOM      4  C   UNL     1       4.855   4.877  18.735  0.00  0.00    +0.000 C 
ENDROOT
BRANCH   1   6
ATOM      5  C   UNL     1       2.196   4.426  21.047  0.00  0.00    +0.000 C 
ATOM      6  O   UNL     1       2.724   5.403  20.162  0.00  0.00    +0.000 OA
ENDBRANCH   1   6
BRANCH   1   7
ATOM      7  O   UNL     1       2.508   3.666  18.533  0.00  0.00    +0.000 OA
ATOM      8  C   UNL     1       1.364   3.680  17.670  0.00  0.00    +0.000 C 
ENDBRANCH   1   7
BRANCH   2   9
ATOM      9  C   UNL     1       3.084   7.466  18.121  0.00  0.00    +0.000 C 
ATOM     10  C   UNL     1       2.014   8.214  17.804  0.00  0.00    +0.000 C 
BRANCH  10  11
ATOM     11  C   UNL     1       1.804   9.545  18.412  0.00  0.00    +0.000 A 
ATOM     12  C   UNL     1       0.989   9.755  19.536  0.00  0.00    +0.000 A 
ATOM     13  C   UNL     1       0.757  11.048  20.027  0.00  0.00    +0.000 A 
ATOM     14  C   UNL     1       1.351  12.146  19.407  0.00  0.00    +0.000 A 
ATOM     15 CL   UNL     1       1.051  13.733  19.998  0.00  0.00    +0.000 Cl
ATOM     16  C   UNL     1       2.182  11.956  18.306  0.00  0.00    +0.000 A 
ATOM     17  C   UNL     1       2.406  10.665  17.813  0.00  0.00    +0.000 A 
ENDBRANCH  10  11
ENDBRANCH   2   9
BRANCH   3  18
ATOM     18  C   UNL     1       5.657   6.553  16.983  0.00  0.00    +0.000 C 
ATOM     19  N   UNL     1       6.417   7.405  16.739  0.00  0.00    +0.000 NA
ENDBRANCH   3  18
BRANCH   3  20
ATOM     20  C   UNL     1       4.712   4.628  16.172  0.00  0.00    +0.000 C 
ATOM     21  N   UNL     1       4.793   3.931  15.233  0.00  0.00    +0.000 NA
ENDBRANCH   3  20
BRANCH   4  22
ATOM     22  O   UNL     1       5.650   5.629  19.718  0.00  0.00    +0.000 OA
ATOM     23  C   UNL     1       7.062   5.610  19.800  0.00  0.00    +0.000 C 
ENDBRANCH   4  22
BRANCH   4  24
ATOM     24  O   UNL     1       5.409   3.516  18.696  0.00  0.00    +0.000 OA
ATOM     25  C   UNL     1       5.003   2.633  19.739  0.00  0.00    +0.000 C 
ENDBRANCH   4  24
TORSDOF 8
ENDMDL
MODEL 2
REMARK VINA RESULT:      -5.3      1.296      1.756
REMARK  Name = 
REMARK  12 active torsions:
REMARK  status: ('A' for Active; 'I' for Inactive)
REMARK    1  A    between atoms: C_1  and  O_2
REMARK    2  A    between atoms: O_2  and  C_3
REMARK    3  A    between atoms: C_3  and  O_4
REMARK    4  A    between atoms: O_4  and  C_5
REMARK    5  A    between atoms: C_6  and  C_7
REMARK    6  A    between atoms: C_8  and  C_9
REMARK    7  A    between atoms: C_16  and  C_17
REMARK    8  A    between atoms: C_16  and  C_19
REMARK    9  A    between atoms: C_21  and  O_22
REMARK   10  A    between atoms: C_21  and  O_24
REMARK   11  A    between atoms: O_22  and  C_23
REMARK   12  A    between atoms: O_24  and  C_25
REMARK                            x       y       z     vdW  Elec       q    Type
REMARK                         _______ _______ _______ _____ _____    ______ ____
ROOT
ATOM      1  C   UNL     1       4.080   4.373  18.549  0.00  0.00    +0.000 C 
ATOM      2  C   UNL     1       3.664   5.681  17.708  0.00  0.00    +0.000 C 
ATOM      3  C   UNL     1       5.146   5.812  17.192  0.00  0.00    +0.000 C 
ATOM      4  C   UNL     1       5.645   4.913  18.398  0.00  0.00    +0.000 C 
ENDROOT
BRANCH   1   6
ATOM      5  C   UNL     1       3.503   3.052  20.523  0.00  0.00    +0.000 C 
ATOM      6  O   UNL     1       3.598   4.335  19.922  0.00  0.00    +0.000 OA
ENDBRANCH   1   6
BRANCH   1   7
ATOM      7  O   UNL     1       3.793   3.090  17.891  0.00  0.00    +0.000 OA
ATOM      8  C   UNL     1       2.565   2.900  17.175  0.00  0.00    +0.000 C 
ENDBRANCH   1   7
BRANCH   2   9
ATOM      9  C   UNL     1       3.098   6.842  18.503  0.00  0.00    +0.000 C 
ATOM     10  C   UNL     1       2.374   7.828  17.950  0.00  0.00    +0.000 C 
BRANCH  10  11
ATOM     11  C   UNL     1       1.667   8.821  18.787  0.00  0.00    +0.000 A 
ATOM     12  C   UNL     1       1.200  10.049  18.292  0.00  0.00    +0.000 A 
ATOM     13  C   UNL     1       0.607  10.992  19.144  0.00  0.00    +0.000 A 
ATOM     14  C   UNL     1       0.463  10.710  20.501  0.00  0.00    +0.000 A 
ATOM     15 CL   UNL     1      -0.247  11.875  21.549  0.00  0.00    +0.000 Cl
ATOM     16  C   UNL     1       0.898   9.489  21.007  0.00  0.00    +0.000 A 
ATOM     17  C   UNL     1       1.496   8.551  20.156  0.00  0.00    +0.000 A 
ENDBRANCH  10  11
ENDBRANCH   2   9
BRANCH   3  18
ATOM     18  C   UNL     1       5.713   7.142  17.152  0.00  0.00    +0.000 C 
ATOM     19  N   UNL     1       6.180   8.212  17.158  0.00  0.00    +0.000 NA
ENDBRANCH   3  18
BRANCH   3  20
ATOM     20  C   UNL     1       5.354   5.281  15.861  0.00  0.00    +0.000 C 
ATOM     21  N   UNL     1       5.536   4.918  14.761  0.00  0.00    +0.000 NA
ENDBRANCH   3  20
BRANCH   4  22
ATOM     22  O   UNL     1       6.248   5.614  19.542  0.00  0.00    +0.000 OA
ATOM     23  C   UNL     1       7.632   5.642  19.835  0.00  0.00    +0.000 C 
ENDBRANCH   4  22
BRANCH   4  24
ATOM     24  O   UNL     1       6.595   3.866  17.995  0.00  0.00    +0.000 OA
ATOM     25  C   UNL     1       7.862   4.307  17.514  0.00  0.00    +0.000 C 
ENDBRANCH   4  24
TORSDOF 8
ENDMDL
MODEL 3
REMARK VINA RESULT:      -5.2      1.384      1.570
REMARK  Name = 
REMARK  12 active torsions:
REMARK  status: ('A' for Active; 'I' for Inactive)
REMARK    1  A    between atoms: C_1  and  O_2
REMARK    2  A    between atoms: O_2  and  C_3
REMARK    3  A    between atoms: C_3  and  O_4
REMARK    4  A    between atoms: O_4  and  C_5
REMARK    5  A    between atoms: C_6  and  C_7
REMARK    6  A    between atoms: C_8  and  C_9
REMARK    7  A    between atoms: C_16  and  C_17
REMARK    8  A    between atoms: C_16  and  C_19
REMARK    9  A    between atoms: C_21  and  O_22
REMARK   10  A    between atoms: C_21  and  O_24
REMARK   11  A    between atoms: O_22  and  C_23
REMARK   12  A    between atoms: O_24  and  C_25
REMARK                            x       y       z     vdW  Elec       q    Type
REMARK                         _______ _______ _______ _____ _____    ______ ____
ROOT
ATOM      1  C   UNL     1       4.085   4.279  18.686  0.00  0.00    +0.000 C 
ATOM      2  C   UNL     1       3.603   5.526  17.790  0.00  0.00    +0.000 C 
ATOM      3  C   UNL     1       5.067   5.678  17.228  0.00  0.00    +0.000 C 
ATOM      4  C   UNL     1       5.626   4.860  18.465  0.00  0.00    +0.000 C 
ENDROOT
BRANCH   1   6
ATOM      5  C   UNL     1       2.887   3.175  20.509  0.00  0.00    +0.000 C 
ATOM      6  O   UNL     1       3.639   4.297  20.072  0.00  0.00    +0.000 OA
ENDBRANCH   1   6
BRANCH   1   7
ATOM      7  O   UNL     1       3.824   2.954  18.104  0.00  0.00    +0.000 OA
ATOM      8  C   UNL     1       2.716   2.757  17.216  0.00  0.00    +0.000 C 
ENDBRANCH   1   7
BRANCH   2   9
ATOM      9  C   UNL     1       3.020   6.709  18.539  0.00  0.00    +0.000 C 
ATOM     10  C   UNL     1       2.314   7.682  17.940  0.00  0.00    +0.000 C 
BRANCH  10  11
ATOM     11  C   UNL     1       1.587   8.698  18.732  0.00  0.00    +0.000 A 
ATOM     12  C   UNL     1       1.466   8.638  20.129  0.00  0.00    +0.000 A 
ATOM     13  C   UNL     1       0.698   9.582  20.828  0.00  0.00    +0.000 A 
ATOM     14  C   UNL     1       0.054  10.605  20.135  0.00  0.00    +0.000 A 
ATOM     15 CL   UNL     1      -0.903  11.751  20.990  0.00  0.00    +0.000 Cl
ATOM     16  C   UNL     1       0.181  10.695  18.752  0.00  0.00    +0.000 A 
ATOM     17  C   UNL     1       0.943   9.748  18.056  0.00  0.00    +0.000 A 
ENDBRANCH  10  11
ENDBRANCH   2   9
BRANCH   3  18
ATOM     18  C   UNL     1       5.587   7.021  17.103  0.00  0.00    +0.000 C 
ATOM     19  N   UNL     1       6.042   8.093  17.015  0.00  0.00    +0.000 NA
ENDBRANCH   3  18
BRANCH   3  20
ATOM     20  C   UNL     1       5.259   5.084  15.922  0.00  0.00    +0.000 C 
ATOM     21  N   UNL     1       5.478   4.636  14.860  0.00  0.00    +0.000 NA
ENDBRANCH   3  20
BRANCH   4  22
ATOM     22  O   UNL     1       6.234   5.640  19.554  0.00  0.00    +0.000 OA
ATOM     23  C   UNL     1       7.624   5.741  19.797  0.00  0.00    +0.000 C 
ENDBRANCH   4  22
BRANCH   4  24
ATOM     24  O   UNL     1       6.600   3.825  18.091  0.00  0.00    +0.000 OA
ATOM     25  C   UNL     1       7.845   4.281  17.569  0.00  0.00    +0.000 C 
ENDBRANCH   4  24
TORSDOF 8
ENDMDL
MODEL 4
REMARK VINA RESULT:      -5.2      2.335      3.722
REMARK  Name = 
REMARK  12 active torsions:
REMARK  status: ('A' for Active; 'I' for Inactive)
REMARK    1  A    between atoms: C_1  and  O_2
REMARK    2  A    between atoms: O_2  and  C_3
REMARK    3  A    between atoms: C_3  and  O_4
REMARK    4  A    between atoms: O_4  and  C_5
REMARK    5  A    between atoms: C_6  and  C_7
REMARK    6  A    between atoms: C_8  and  C_9
REMARK    7  A    between atoms: C_16  and  C_17
REMARK    8  A    between atoms: C_16  and  C_19
REMARK    9  A    between atoms: C_21  and  O_22
REMARK   10  A    between atoms: C_21  and  O_24
REMARK   11  A    between atoms: O_22  and  C_23
REMARK   12  A    between atoms: O_24  and  C_25
REMARK                            x       y       z     vdW  Elec       q    Type
REMARK                         _______ _______ _______ _____ _____    ______ ____
ROOT
ATOM      1  C   UNL     1       5.725   5.515  18.328  0.00  0.00    +0.000 C 
ATOM      2  C   UNL     1       4.331   5.363  19.117  0.00  0.00    +0.000 C 
ATOM      3  C   UNL     1       3.938   4.161  18.178  0.00  0.00    +0.000 C 
ATOM      4  C   UNL     1       4.998   4.653  17.107  0.00  0.00    +0.000 C 
ENDROOT
BRANCH   1   6
ATOM      5  C   UNL     1       7.403   7.065  17.457  0.00  0.00    +0.000 C 
ATOM      6  O   UNL     1       6.087   6.876  17.956  0.00  0.00    +0.000 OA
ENDBRANCH   1   6
BRANCH   1   7
ATOM      7  O   UNL     1       6.877   4.856  18.962  0.00  0.00    +0.000 OA
ATOM      8  C   UNL     1       7.635   5.534  19.972  0.00  0.00    +0.000 C 
ENDBRANCH   1   7
BRANCH   2   9
ATOM      9  C   UNL     1       3.419   6.576  19.113  0.00  0.00    +0.000 C 
ATOM     10  C   UNL     1       2.394   6.727  19.968  0.00  0.00    +0.000 C 
BRANCH  10  11
ATOM     11  C   UNL     1       1.666   8.010  20.071  0.00  0.00    +0.000 A 
ATOM     12  C   UNL     1       0.961   8.402  21.220  0.00  0.00    +0.000 A 
ATOM     13  C   UNL     1       0.219   9.592  21.240  0.00  0.00    +0.000 A 
ATOM     14  C   UNL     1       0.187  10.411  20.113  0.00  0.00    +0.000 A 
ATOM     15 CL   UNL     1      -0.739  11.861  20.131  0.00  0.00    +0.000 Cl
ATOM     16  C   UNL     1       0.898  10.052  18.972  0.00  0.00    +0.000 A 
ATOM     17  C   UNL     1       1.633   8.860  18.952  0.00  0.00    +0.000 A 
ENDBRANCH  10  11
ENDBRANCH   2   9
BRANCH   3  18
ATOM     18  C   UNL     1       2.573   4.116  17.704  0.00  0.00    +0.000 C 
ATOM     19  N   UNL     1       1.464   4.116  17.337  0.00  0.00    +0.000 NA
ENDBRANCH   3  18
BRANCH   3  20
ATOM     20  C   UNL     1       4.170   2.858  18.764  0.00  0.00    +0.000 C 
ATOM     21  N   UNL     1       4.286   1.792  19.238  0.00  0.00    +0.000 NA
ENDBRANCH   3  20
BRANCH   4  22
ATOM     22  O   UNL     1       4.475   5.397  15.951  0.00  0.00    +0.000 OA
ATOM     23  C   UNL     1       5.129   6.487  15.329  0.00  0.00    +0.000 C 
ENDBRANCH   4  22
BRANCH   4  24
ATOM     24  O   UNL     1       5.834   3.570  16.570  0.00  0.00    +0.000 OA
ATOM     25  C   UNL     1       6.180   3.658  15.190  0.00  0.00    +0.000 C 
ENDBRANCH   4  24
TORSDOF 8
ENDMDL
MODEL 5
REMARK VINA RESULT:      -5.2      7.261     10.994
REMARK  Name = 
REMARK  12 active torsions:
REMARK  status: ('A' for Active; 'I' for Inactive)
REMARK    1  A    between atoms: C_1  and  O_2
REMARK    2  A    between atoms: O_2  and  C_3
REMARK    3  A    between atoms: C_3  and  O_4
REMARK    4  A    between atoms: O_4  and  C_5
REMARK    5  A    between atoms: C_6  and  C_7
REMARK    6  A    between atoms: C_8  and  C_9
REMARK    7  A    between atoms: C_16  and  C_17
REMARK    8  A    between atoms: C_16  and  C_19
REMARK    9  A    between atoms: C_21  and  O_22
REMARK   10  A    between atoms: C_21  and  O_24
REMARK   11  A    between atoms: O_22  and  C_23
REMARK   12  A    between atoms: O_24  and  C_25
REMARK                            x       y       z     vdW  Elec       q    Type
REMARK                         _______ _______ _______ _____ _____    ______ ____
ROOT
ATOM      1  C   UNL     1      -3.739  13.232  22.639  0.00  0.00    +0.000 C 
ATOM      2  C   UNL     1      -2.279  12.824  23.180  0.00  0.00    +0.000 C 
ATOM      3  C   UNL     1      -1.928  14.349  23.363  0.00  0.00    +0.000 C 
ATOM      4  C   UNL     1      -3.089  14.736  22.357  0.00  0.00    +0.000 C 
ENDROOT
BRANCH   1   6
ATOM      5  C   UNL     1      -5.570  12.539  21.177  0.00  0.00    +0.000 C 
ATOM      6  O   UNL     1      -4.174  12.540  21.435  0.00  0.00    +0.000 OA
ENDBRANCH   1   6
BRANCH   1   7
ATOM      7  O   UNL     1      -4.811  13.191  23.645  0.00  0.00    +0.000 OA
ATOM      8  C   UNL     1      -4.691  12.349  24.799  0.00  0.00    +0.000 C 
ENDBRANCH   1   7
BRANCH   2   9
ATOM      9  C   UNL     1      -1.410  12.019  22.233  0.00  0.00    +0.000 C 
ATOM     10  C   UNL     1      -0.593  11.034  22.642  0.00  0.00    +0.000 C 
BRANCH  10  11
ATOM     11  C   UNL     1       0.072  10.139  21.671  0.00  0.00    +0.000 A 
ATOM     12  C   UNL     1       0.680   8.928  22.036  0.00  0.00    +0.000 A 
ATOM     13  C   UNL     1       1.369   8.153  21.091  0.00  0.00    +0.000 A 
ATOM     14  C   UNL     1       1.444   8.575  19.766  0.00  0.00    +0.000 A 
ATOM     15 CL   UNL     1       2.305   7.634  18.611  0.00  0.00    +0.000 Cl
ATOM     16  C   UNL     1       0.828   9.761  19.379  0.00  0.00    +0.000 A 
ATOM     17  C   UNL     1       0.146  10.538  20.325  0.00  0.00    +0.000 A 
ENDBRANCH  10  11
ENDBRANCH   2   9
BRANCH   3  18
ATOM     18  C   UNL     1      -0.606  14.773  22.957  0.00  0.00    +0.000 C 
ATOM     19  N   UNL     1       0.470  15.077  22.624  0.00  0.00    +0.000 NA
ENDBRANCH   3  18
BRANCH   3  20
ATOM     20  C   UNL     1      -2.068  14.824  24.724  0.00  0.00    +0.000 C 
ATOM     21  N   UNL     1      -2.244  15.175  25.828  0.00  0.00    +0.000 NA
ENDBRANCH   3  20
BRANCH   4  22
ATOM     22  O   UNL     1      -2.689  15.069  20.981  0.00  0.00    +0.000 OA
ATOM     23  C   UNL     1      -2.317  16.360  20.537  0.00  0.00    +0.000 C 
ENDBRANCH   4  22
BRANCH   4  24
ATOM     24  O   UNL     1      -3.932  15.842  22.832  0.00  0.00    +0.000 OA
ATOM     25  C   UNL     1      -5.093  16.135  22.058  0.00  0.00    +0.000 C 
ENDBRANCH   4  24
TORSDOF 8
ENDMDL
MODEL 6
REMARK VINA RESULT:      -5.1      8.354     11.942
REMARK  Name = 
REMARK  12 active torsions:
REMARK  status: ('A' for Active; 'I' for Inactive)
REMARK    1  A    between atoms: C_1  and  O_2
REMARK    2  A    between atoms: O_2  and  C_3
REMARK    3  A    between atoms: C_3  and  O_4
REMARK    4  A    between atoms: O_4  and  C_5
REMARK    5  A    between atoms: C_6  and  C_7
REMARK    6  A    between atoms: C_8  and  C_9
REMARK    7  A    between atoms: C_16  and  C_17
REMARK    8  A    between atoms: C_16  and  C_19
REMARK    9  A    between atoms: C_21  and  O_22
REMARK   10  A    between atoms: C_21  and  O_24
REMARK   11  A    between atoms: O_22  and  C_23
REMARK   12  A    between atoms: O_24  and  C_25
REMARK                            x       y       z     vdW  Elec       q    Type
REMARK                         _______ _______ _______ _____ _____    ______ ____
ROOT
ATOM      1  C   UNL     1      -4.259  14.648  22.533  0.00  0.00    +0.000 C 
ATOM      2  C   UNL     1      -4.435  13.980  21.079  0.00  0.00    +0.000 C 
ATOM      3  C   UNL     1      -5.888  13.517  21.475  0.00  0.00    +0.000 C 
ATOM      4  C   UNL     1      -5.519  13.673  23.009  0.00  0.00    +0.000 C 
ENDROOT
BRANCH   1   6
ATOM      5  C   UNL     1      -2.549  15.321  24.145  0.00  0.00    +0.000 C 
ATOM      6  O   UNL     1      -3.000  14.357  23.205  0.00  0.00    +0.000 OA
ENDBRANCH   1   6
BRANCH   1   7
ATOM      7  O   UNL     1      -4.527  16.092  22.592  0.00  0.00    +0.000 OA
ATOM      8  C   UNL     1      -4.335  16.914  21.434  0.00  0.00    +0.000 C 
ENDBRANCH   1   7
BRANCH   2   9
ATOM      9  C   UNL     1      -3.438  12.898  20.709  0.00  0.00    +0.000 C 
ATOM     10  C   UNL     1      -3.180  12.538  19.441  0.00  0.00    +0.000 C 
BRANCH  10  11
ATOM     11  C   UNL     1      -2.056  11.635  19.115  0.00  0.00    +0.000 A 
ATOM     12  C   UNL     1      -0.857  11.610  19.845  0.00  0.00    +0.000 A 
ATOM     13  C   UNL     1       0.213  10.794  19.448  0.00  0.00    +0.000 A 
ATOM     14  C   UNL     1       0.087   9.981  18.323  0.00  0.00    +0.000 A 
ATOM     15 CL   UNL     1       1.406   8.994  17.825  0.00  0.00    +0.000 Cl
ATOM     16  C   UNL     1      -1.102   9.974  17.600  0.00  0.00    +0.000 A 
ATOM     17  C   UNL     1      -2.166  10.795  17.994  0.00  0.00    +0.000 A 
ENDBRANCH  10  11
ENDBRANCH   2   9
BRANCH   3  18
ATOM     18  C   UNL     1      -6.285  12.184  21.079  0.00  0.00    +0.000 C 
ATOM     19  N   UNL     1      -6.593  11.117  20.722  0.00  0.00    +0.000 NA
ENDBRANCH   3  18
BRANCH   3  20
ATOM     20  C   UNL     1      -6.936  14.381  20.973  0.00  0.00    +0.000 C 
ATOM     21  N   UNL     1      -7.832  15.041  20.604  0.00  0.00    +0.000 NA
ENDBRANCH   3  20
BRANCH   4  22
ATOM     22  O   UNL     1      -5.199  12.438  23.741  0.00  0.00    +0.000 OA
ATOM     23  C   UNL     1      -4.597  12.390  25.021  0.00  0.00    +0.000 C 
ENDBRANCH   4  22
BRANCH   4  24
ATOM     24  O   UNL     1      -6.546  14.375  23.791  0.00  0.00    +0.000 OA
ATOM     25  C   UNL     1      -7.600  13.575  24.319  0.00  0.00    +0.000 C 
ENDBRANCH   4  24
TORSDOF 8
ENDMDL
MODEL 7
REMARK VINA RESULT:      -5.1      5.085      8.376
REMARK  Name = 
REMARK  12 active torsions:
REMARK  status: ('A' for Active; 'I' for Inactive)
REMARK    1  A    between atoms: C_1  and  O_2
REMARK    2  A    between atoms: O_2  and  C_3
REMARK    3  A    between atoms: C_3  and  O_4
REMARK    4  A    between atoms: O_4  and  C_5
REMARK    5  A    between atoms: C_6  and  C_7
REMARK    6  A    between atoms: C_8  and  C_9
REMARK    7  A    between atoms: C_16  and  C_17
REMARK    8  A    between atoms: C_16  and  C_19
REMARK    9  A    between atoms: C_21  and  O_22
REMARK   10  A    between atoms: C_21  and  O_24
REMARK   11  A    between atoms: O_22  and  C_23
REMARK   12  A    between atoms: O_24  and  C_25
REMARK                            x       y       z     vdW  Elec       q    Type
REMARK                         _______ _______ _______ _____ _____    ______ ____
ROOT
ATOM      1  C   UNL     1       0.477  12.123  19.108  0.00  0.00    +0.000 C 
ATOM      2  C   UNL     1      -0.142  10.761  19.700  0.00  0.00    +0.000 C 
ATOM      3  C   UNL     1      -0.427  11.492  21.066  0.00  0.00    +0.000 C 
ATOM      4  C   UNL     1       0.636  12.605  20.691  0.00  0.00    +0.000 C 
ENDROOT
BRANCH   1   6
ATOM      5  C   UNL     1       2.347  13.176  17.937  0.00  0.00    +0.000 C 
ATOM      6  O   UNL     1       1.743  11.979  18.404  0.00  0.00    +0.000 OA
ENDBRANCH   1   6
BRANCH   1   7
ATOM      7  O   UNL     1      -0.448  12.928  18.297  0.00  0.00    +0.000 OA
ATOM      8  C   UNL     1      -1.548  12.307  17.621  0.00  0.00    +0.000 C 
ENDBRANCH   1   7
BRANCH   2   9
ATOM      9  C   UNL     1       0.783   9.559  19.735  0.00  0.00    +0.000 C 
ATOM     10  C   UNL     1       1.171   8.898  18.631  0.00  0.00    +0.000 C 
BRANCH  10  11
ATOM     11  C   UNL     1       2.234   7.872  18.688  0.00  0.00    +0.000 A 
ATOM     12  C   UNL     1       3.206   7.719  17.687  0.00  0.00    +0.000 A 
ATOM     13  C   UNL     1       4.145   6.678  17.747  0.00  0.00    +0.000 A 
ATOM     14  C   UNL     1       4.130   5.787  18.818  0.00  0.00    +0.000 A 
ATOM     15 CL   UNL     1       5.269   4.500  18.881  0.00  0.00    +0.000 Cl
ATOM     16  C   UNL     1       3.189   5.937  19.832  0.00  0.00    +0.000 A 
ATOM     17  C   UNL     1       2.248   6.972  19.768  0.00  0.00    +0.000 A 
ENDBRANCH  10  11
ENDBRANCH   2   9
BRANCH   3  18
ATOM     18  C   UNL     1      -0.136  10.758  22.278  0.00  0.00    +0.000 C 
ATOM     19  N   UNL     1       0.089  10.198  23.277  0.00  0.00    +0.000 NA
ENDBRANCH   3  18
BRANCH   3  20
ATOM     20  C   UNL     1      -1.797  11.934  21.221  0.00  0.00    +0.000 C 
ATOM     21  N   UNL     1      -2.900  12.281  21.417  0.00  0.00    +0.000 NA
ENDBRANCH   3  20
BRANCH   4  22
ATOM     22  O   UNL     1       1.962  12.492  21.318  0.00  0.00    +0.000 OA
ATOM     23  C   UNL     1       2.961  13.494  21.284  0.00  0.00    +0.000 C 
ENDBRANCH   4  22
BRANCH   4  24
ATOM     24  O   UNL     1       0.165  13.975  20.942  0.00  0.00    +0.000 OA
ATOM     25  C   UNL     1       0.169  14.411  22.299  0.00  0.00    +0.000 C 
ENDBRANCH   4  24
TORSDOF 8
ENDMDL
MODEL 8
REMARK VINA RESULT:      -5.1      7.222     11.000
REMARK  Name = 
REMARK  12 active torsions:
REMARK  status: ('A' for Active; 'I' for Inactive)
REMARK    1  A    between atoms: C_1  and  O_2
REMARK    2  A    between atoms: O_2  and  C_3
REMARK    3  A    between atoms: C_3  and  O_4
REMARK    4  A    between atoms: O_4  and  C_5
REMARK    5  A    between atoms: C_6  and  C_7
REMARK    6  A    between atoms: C_8  and  C_9
REMARK    7  A    between atoms: C_16  and  C_17
REMARK    8  A    between atoms: C_16  and  C_19
REMARK    9  A    between atoms: C_21  and  O_22
REMARK   10  A    between atoms: C_21  and  O_24
REMARK   11  A    between atoms: O_22  and  C_23
REMARK   12  A    between atoms: O_24  and  C_25
REMARK                            x       y       z     vdW  Elec       q    Type
REMARK                         _______ _______ _______ _____ _____    ______ ____
ROOT
ATOM      1  C   UNL     1      -3.377  13.352  22.660  0.00  0.00    +0.000 C 
ATOM      2  C   UNL     1      -1.931  13.044  23.297  0.00  0.00    +0.000 C 
ATOM      3  C   UNL     1      -1.681  14.591  23.460  0.00  0.00    +0.000 C 
ATOM      4  C   UNL     1      -2.800  14.885  22.377  0.00  0.00    +0.000 C 
ENDROOT
BRANCH   1   6
ATOM      5  C   UNL     1      -5.058  12.617  21.045  0.00  0.00    +0.000 C 
ATOM      6  O   UNL     1      -3.698  12.608  21.451  0.00  0.00    +0.000 OA
ENDBRANCH   1   6
BRANCH   1   7
ATOM      7  O   UNL     1      -4.504  13.270  23.602  0.00  0.00    +0.000 OA
ATOM      8  C   UNL     1      -4.447  12.381  24.725  0.00  0.00    +0.000 C 
ENDBRANCH   1   7
BRANCH   2   9
ATOM      9  C   UNL     1      -0.961  12.271  22.423  0.00  0.00    +0.000 C 
ATOM     10  C   UNL     1      -0.745  10.952  22.554  0.00  0.00    +0.000 C 
BRANCH  10  11
ATOM     11  C   UNL     1       0.043  10.202  21.553  0.00  0.00    +0.000 A 
ATOM     12  C   UNL     1       0.162  10.605  20.213  0.00  0.00    +0.000 A 
ATOM     13  C   UNL     1       0.854   9.818  19.281  0.00  0.00    +0.000 A 
ATOM     14  C   UNL     1       1.448   8.624  19.684  0.00  0.00    +0.000 A 
ATOM     15 CL   UNL     1       2.281   7.648  18.538  0.00  0.00    +0.000 Cl
ATOM     16  C   UNL     1       1.362   8.219  21.013  0.00  0.00    +0.000 A 
ATOM     17  C   UNL     1       0.665   9.003  21.940  0.00  0.00    +0.000 A 
ENDBRANCH  10  11
ENDBRANCH   2   9
BRANCH   3  18
ATOM     18  C   UNL     1      -0.364  15.083  23.121  0.00  0.00    +0.000 C 
ATOM     19  N   UNL     1       0.683  15.497  22.815  0.00  0.00    +0.000 NA
ENDBRANCH   3  18
BRANCH   3  20
ATOM     20  C   UNL     1      -1.930  15.088  24.796  0.00  0.00    +0.000 C 
ATOM     21  N   UNL     1      -2.086  15.545  25.865  0.00  0.00    +0.000 NA
ENDBRANCH   3  20
BRANCH   4  22
ATOM     22  O   UNL     1      -2.338  15.210  21.019  0.00  0.00    +0.000 OA
ATOM     23  C   UNL     1      -2.051  16.514  20.552  0.00  0.00    +0.000 C 
ENDBRANCH   4  22
BRANCH   4  24
ATOM     24  O   UNL     1      -3.733  15.949  22.772  0.00  0.00    +0.000 OA
ATOM     25  C   UNL     1      -4.864  16.150  21.928  0.00  0.00    +0.000 C 
ENDBRANCH   4  24
TORSDOF 8
ENDMDL
MODEL 9
REMARK VINA RESULT:      -5.1      5.668      9.194
REMARK  Name = 
REMARK  12 active torsions:
REMARK  status: ('A' for Active; 'I' for Inactive)
REMARK    1  A    between atoms: C_1  and  O_2
REMARK    2  A    between atoms: O_2  and  C_3
REMARK    3  A    between atoms: C_3  and  O_4
REMARK    4  A    between atoms: O_4  and  C_5
REMARK    5  A    between atoms: C_6  and  C_7
REMARK    6  A    between atoms: C_8  and  C_9
REMARK    7  A    between atoms: C_16  and  C_17
REMARK    8  A    between atoms: C_16  and  C_19
REMARK    9  A    between atoms: C_21  and  O_22
REMARK   10  A    between atoms: C_21  and  O_24
REMARK   11  A    between atoms: O_22  and  C_23
REMARK   12  A    between atoms: O_24  and  C_25
REMARK                            x       y       z     vdW  Elec       q    Type
REMARK                         _______ _______ _______ _____ _____    ______ ____
ROOT
ATOM      1  C   UNL     1      -0.850  13.405  19.620  0.00  0.00    +0.000 C 
ATOM      2  C   UNL     1       0.026  12.602  20.706  0.00  0.00    +0.000 C 
ATOM      3  C   UNL     1       0.790  13.932  21.064  0.00  0.00    +0.000 C 
ATOM      4  C   UNL     1       0.345  14.559  19.678  0.00  0.00    +0.000 C 
ENDROOT
BRANCH   1   6
ATOM      5  C   UNL     1      -2.072  11.857  18.177  0.00  0.00    +0.000 C 
ATOM      6  O   UNL     1      -0.984  12.757  18.323  0.00  0.00    +0.000 OA
ENDBRANCH   1   6
BRANCH   1   7
ATOM      7  O   UNL     1      -2.172  13.847  20.088  0.00  0.00    +0.000 OA
ATOM      8  C   UNL     1      -2.802  13.197  21.199  0.00  0.00    +0.000 C 
ENDBRANCH   1   7
BRANCH   2   9
ATOM      9  C   UNL     1       0.853  11.444  20.181  0.00  0.00    +0.000 C 
ATOM     10  C   UNL     1       0.578  10.158  20.456  0.00  0.00    +0.000 C 
BRANCH  10  11
ATOM     11  C   UNL     1       1.276   9.059  19.757  0.00  0.00    +0.000 A 
ATOM     12  C   UNL     1       1.625   7.851  20.383  0.00  0.00    +0.000 A 
ATOM     13  C   UNL     1       2.359   6.870  19.700  0.00  0.00    +0.000 A 
ATOM     14  C   UNL     1       2.741   7.083  18.377  0.00  0.00    +0.000 A 
ATOM     15 CL   UNL     1       3.658   5.888  17.545  0.00  0.00    +0.000 Cl
ATOM     16  C   UNL     1       2.385   8.263  17.731  0.00  0.00    +0.000 A 
ATOM     17  C   UNL     1       1.658   9.244  18.417  0.00  0.00    +0.000 A 
ENDBRANCH  10  11
ENDBRANCH   2   9
BRANCH   3  18
ATOM     18  C   UNL     1       2.220  13.837  21.256  0.00  0.00    +0.000 C 
ATOM     19  N   UNL     1       3.369  13.766  21.449  0.00  0.00    +0.000 NA
ENDBRANCH   3  18
BRANCH   3  20
ATOM     20  C   UNL     1       0.298  14.588  22.257  0.00  0.00    +0.000 C 
ATOM     21  N   UNL     1      -0.166  15.111  23.198  0.00  0.00    +0.000 NA
ENDBRANCH   3  20
BRANCH   4  22
ATOM     22  O   UNL     1       1.349  14.570  18.603  0.00  0.00    +0.000 OA
ATOM     23  C   UNL     1       2.309  15.590  18.403  0.00  0.00    +0.000 C 
ENDBRANCH   4  22
BRANCH   4  24
ATOM     24  O   UNL     1      -0.166  15.933  19.793  0.00  0.00    +0.000 OA
ATOM     25  C   UNL     1      -0.614  16.548  18.588  0.00  0.00    +0.000 C 
ENDBRANCH   4  24
TORSDOF 8
ENDMDL
