MODEL 1
REMARK VINA RESULT:      -8.5      0.000      0.000
REMARK  Name = 
REMARK  9 active torsions:
REMARK  status: ('A' for Active; 'I' for Inactive)
REMARK    1  A    between atoms: C_1  and  C_2
REMARK    2  A    between atoms: C_2  and  C_3
REMARK    3  A    between atoms: C_3  and  C_4
REMARK    4  A    between atoms: C_4  and  C_5
REMARK    5  A    between atoms: C_5  and  O_7
REMARK    6  A    between atoms: O_7  and  C_8
REMARK    7  A    between atoms: C_8  and  N_9
REMARK    8  A    between atoms: C_13  and  C_14
REMARK    9  A    between atoms: C_24  and  C_25
REMARK                            x       y       z     vdW  Elec       q    Type
REMARK                         _______ _______ _______ _____ _____    ______ ____
ROOT
ATOM      1  N   UNL     1       4.813   3.953  17.102  0.00  0.00    +0.000 N 
ATOM      2  C   UNL     1       4.559   3.029  18.041  0.00  0.00    +0.000 A 
ATOM      3  C   UNL     1       3.789   3.358  19.149  0.00  0.00    +0.000 A 
ATOM      4  C   UNL     1       3.244   4.648  19.311  0.00  0.00    +0.000 A 
ATOM      5  C   UNL     1       2.442   5.006  20.430  0.00  0.00    +0.000 A 
ATOM      6  C   UNL     1       2.093   4.065  21.557  0.00  0.00    +0.000 C 
ATOM      7  C   UNL     1       1.944   6.327  20.466  0.00  0.00    +0.000 A 
ATOM      8  N   UNL     1       1.147   6.913  21.428  0.00  0.00    +0.000 N 
ATOM      9  C   UNL     1       0.859   8.216  21.123  0.00  0.00    +0.000 A 
ATOM     10  C   UNL     1       0.089   9.147  21.833  0.00  0.00    +0.000 A 
ATOM     11  C   UNL     1      -0.048  10.427  21.296  0.00  0.00    +0.000 A 
ATOM     12  C   UNL     1       0.564  10.756  20.096  0.00  0.00    +0.000 A 
ATOM     13  C   UNL     1       1.329   9.810  19.403  0.00  0.00    +0.000 A 
ATOM     14  C   UNL     1       1.493   8.500  19.915  0.00  0.00    +0.000 A 
ATOM     15  C   UNL     1       2.186   7.296  19.493  0.00  0.00    +0.000 A 
ATOM     16  C   UNL     1       2.995   6.938  18.377  0.00  0.00    +0.000 A 
ATOM     17  C   UNL     1       3.316   7.911  17.264  0.00  0.00    +0.000 C 
ATOM     18  C   UNL     1       3.519   5.604  18.302  0.00  0.00    +0.000 A 
ATOM     19  C   UNL     1       4.319   5.202  17.220  0.00  0.00    +0.000 A 
ATOM     20  H   UNL     1       0.809   6.445  22.257  0.00  0.00    +0.000 HD
ENDROOT
BRANCH   1  21
ATOM     21  C   UNL     1       5.625   3.608  15.914  0.00  0.00    +0.000 C 
BRANCH  21  22
ATOM     22  O   UNL     1       6.624   4.599  15.689  0.00  0.00    +0.000 OA
BRANCH  22  23
ATOM     23  C   UNL     1       6.854   4.823  14.368  0.00  0.00    +0.000 C 
ATOM     24  O   UNL     1       7.821   5.446  13.951  0.00  0.00    +0.000 OA
BRANCH  23  25
ATOM     25  C   UNL     1       5.810   4.152  13.513  0.00  0.00    +0.000 C 
BRANCH  25  26
ATOM     26  C   UNL     1       6.430   3.508  12.276  0.00  0.00    +0.000 C 
BRANCH  26  28
ATOM     27  C   UNL     1       4.184   3.135  11.194  0.00  0.00    +0.000 C 
ATOM     28  C   UNL     1       5.497   2.492  11.609  0.00  0.00    +0.000 C 
ENDBRANCH  26  28
ENDBRANCH  25  26
ENDBRANCH  23  25
ENDBRANCH  22  23
ENDBRANCH  21  22
ENDBRANCH   1  21
TORSDOF 6
ENDMDL
MODEL 2
REMARK VINA RESULT:      -8.4      1.616      2.946
REMARK  Name = 
REMARK  9 active torsions:
REMARK  status: ('A' for Active; 'I' for Inactive)
REMARK    1  A    between atoms: C_1  and  C_2
REMARK    2  A    between atoms: C_2  and  C_3
REMARK    3  A    between atoms: C_3  and  C_4
REMARK    4  A    between atoms: C_4  and  C_5
REMARK    5  A    between atoms: C_5  and  O_7
REMARK    6  A    between atoms: O_7  and  C_8
REMARK    7  A    between atoms: C_8  and  N_9
REMARK    8  A    between atoms: C_13  and  C_14
REMARK    9  A    between atoms: C_24  and  C_25
REMARK                            x       y       z     vdW  Elec       q    Type
REMARK                         _______ _______ _______ _____ _____    ______ ____
ROOT
ATOM      1  N   UNL     1       4.376   4.469  16.806  0.00  0.00    +0.000 N 
ATOM      2  C   UNL     1       4.154   3.461  17.663  0.00  0.00    +0.000 A 
ATOM      3  C   UNL     1       3.450   3.689  18.838  0.00  0.00    +0.000 A 
ATOM      4  C   UNL     1       2.938   4.964  19.154  0.00  0.00    +0.000 A 
ATOM      5  C   UNL     1       2.202   5.221  20.345  0.00  0.00    +0.000 A 
ATOM      6  C   UNL     1       1.897   4.178  21.392  0.00  0.00    +0.000 C 
ATOM      7  C   UNL     1       1.731   6.538  20.536  0.00  0.00    +0.000 A 
ATOM      8  N   UNL     1       0.996   7.037  21.593  0.00  0.00    +0.000 N 
ATOM      9  C   UNL     1       0.717   8.367  21.432  0.00  0.00    +0.000 A 
ATOM     10  C   UNL     1       0.002   9.234  22.269  0.00  0.00    +0.000 A 
ATOM     11  C   UNL     1      -0.140  10.562  21.868  0.00  0.00    +0.000 A 
ATOM     12  C   UNL     1       0.414  11.000  20.674  0.00  0.00    +0.000 A 
ATOM     13  C   UNL     1       1.124  10.116  19.851  0.00  0.00    +0.000 A 
ATOM     14  C   UNL     1       1.291   8.760  20.225  0.00  0.00    +0.000 A 
ATOM     15  C   UNL     1       1.939   7.595  19.650  0.00  0.00    +0.000 A 
ATOM     16  C   UNL     1       2.682   7.338  18.463  0.00  0.00    +0.000 A 
ATOM     17  C   UNL     1       2.961   8.411  17.434  0.00  0.00    +0.000 C 
ATOM     18  C   UNL     1       3.176   6.011  18.230  0.00  0.00    +0.000 A 
ATOM     19  C   UNL     1       3.911   5.706  17.072  0.00  0.00    +0.000 A 
ATOM     20  H   UNL     1       0.694   6.495  22.389  0.00  0.00    +0.000 HD
ENDROOT
BRANCH   1  21
ATOM     21  C   UNL     1       5.117   4.232  15.549  0.00  0.00    +0.000 C 
BRANCH  21  22
ATOM     22  O   UNL     1       6.445   3.798  15.828  0.00  0.00    +0.000 OA
BRANCH  22  23
ATOM     23  C   UNL     1       7.273   4.821  16.170  0.00  0.00    +0.000 C 
ATOM     24  O   UNL     1       7.608   5.701  15.390  0.00  0.00    +0.000 OA
BRANCH  23  25
ATOM     25  C   UNL     1       7.649   4.753  17.628  0.00  0.00    +0.000 C 
BRANCH  25  26
ATOM     26  C   UNL     1       7.146   5.973  18.393  0.00  0.00    +0.000 C 
BRANCH  26  28
ATOM     27  C   UNL     1       7.734   8.326  17.708  0.00  0.00    +0.000 C 
ATOM     28  C   UNL     1       8.188   7.092  18.471  0.00  0.00    +0.000 C 
ENDBRANCH  26  28
ENDBRANCH  25  26
ENDBRANCH  23  25
ENDBRANCH  22  23
ENDBRANCH  21  22
ENDBRANCH   1  21
TORSDOF 6
ENDMDL
MODEL 3
REMARK VINA RESULT:      -8.1      1.079      1.537
REMARK  Name = 
REMARK  9 active torsions:
REMARK  status: ('A' for Active; 'I' for Inactive)
REMARK    1  A    between atoms: C_1  and  C_2
REMARK    2  A    between atoms: C_2  and  C_3
REMARK    3  A    between atoms: C_3  and  C_4
REMARK    4  A    between atoms: C_4  and  C_5
REMARK    5  A    between atoms: C_5  and  O_7
REMARK    6  A    between atoms: O_7  and  C_8
REMARK    7  A    between atoms: C_8  and  N_9
REMARK    8  A    between atoms: C_13  and  C_14
REMARK    9  A    between atoms: C_24  and  C_25
REMARK                            x       y       z     vdW  Elec       q    Type
REMARK                         _______ _______ _______ _____ _____    ______ ____
ROOT
ATOM      1  N   UNL     1       5.487   4.809  15.886  0.00  0.00    +0.000 N 
ATOM      2  C   UNL     1       5.406   3.669  16.590  0.00  0.00    +0.000 A 
ATOM      3  C   UNL     1       4.660   3.626  17.760  0.00  0.00    +0.000 A 
ATOM      4  C   UNL     1       3.959   4.757  18.229  0.00  0.00    +0.000 A 
ATOM      5  C   UNL     1       3.177   4.735  19.418  0.00  0.00    +0.000 A 
ATOM      6  C   UNL     1       3.016   3.523  20.302  0.00  0.00    +0.000 C 
ATOM      7  C   UNL     1       2.513   5.930  19.770  0.00  0.00    +0.000 A 
ATOM      8  N   UNL     1       1.698   6.165  20.859  0.00  0.00    +0.000 N 
ATOM      9  C   UNL     1       1.226   7.449  20.871  0.00  0.00    +0.000 A 
ATOM     10  C   UNL     1       0.379   8.077  21.794  0.00  0.00    +0.000 A 
ATOM     11  C   UNL     1       0.047   9.414  21.572  0.00  0.00    +0.000 A 
ATOM     12  C   UNL     1       0.545  10.089  20.468  0.00  0.00    +0.000 A 
ATOM     13  C   UNL     1       1.391   9.442  19.558  0.00  0.00    +0.000 A 
ATOM     14  C   UNL     1       1.752   8.086  19.749  0.00  0.00    +0.000 A 
ATOM     15  C   UNL     1       2.574   7.119  19.044  0.00  0.00    +0.000 A 
ATOM     16  C   UNL     1       3.363   7.141  17.859  0.00  0.00    +0.000 A 
ATOM     17  C   UNL     1       3.494   8.376  16.995  0.00  0.00    +0.000 C 
ATOM     18  C   UNL     1       4.052   5.946  17.465  0.00  0.00    +0.000 A 
ATOM     19  C   UNL     1       4.840   5.916  16.302  0.00  0.00    +0.000 A 
ATOM     20  H   UNL     1       1.469   5.479  21.563  0.00  0.00    +0.000 HD
ENDROOT
BRANCH   1  21
ATOM     21  C   UNL     1       6.272   4.860  14.634  0.00  0.00    +0.000 C 
BRANCH  21  22
ATOM     22  O   UNL     1       6.216   3.606  13.959  0.00  0.00    +0.000 OA
BRANCH  22  23
ATOM     23  C   UNL     1       6.431   3.719  12.622  0.00  0.00    +0.000 C 
ATOM     24  O   UNL     1       7.338   4.384  12.142  0.00  0.00    +0.000 OA
BRANCH  23  25
ATOM     25  C   UNL     1       5.460   2.870  11.841  0.00  0.00    +0.000 C 
BRANCH  25  26
ATOM     26  C   UNL     1       4.108   3.562  11.691  0.00  0.00    +0.000 C 
BRANCH  26  28
ATOM     27  C   UNL     1       2.964   4.238   9.549  0.00  0.00    +0.000 C 
ATOM     28  C   UNL     1       3.332   3.080  10.461  0.00  0.00    +0.000 C 
ENDBRANCH  26  28
ENDBRANCH  25  26
ENDBRANCH  23  25
ENDBRANCH  22  23
ENDBRANCH  21  22
ENDBRANCH   1  21
TORSDOF 6
ENDMDL
MODEL 4
REMARK VINA RESULT:      -8.1      1.063      1.487
REMARK  Name = 
REMARK  9 active torsions:
REMARK  status: ('A' for Active; 'I' for Inactive)
REMARK    1  A    between atoms: C_1  and  C_2
REMARK    2  A    between atoms: C_2  and  C_3
REMARK    3  A    between atoms: C_3  and  C_4
REMARK    4  A    between atoms: C_4  and  C_5
REMARK    5  A    between atoms: C_5  and  O_7
REMARK    6  A    between atoms: O_7  and  C_8
REMARK    7  A    between atoms: C_8  and  N_9
REMARK    8  A    between atoms: C_13  and  C_14
REMARK    9  A    between atoms: C_24  and  C_25
REMARK                            x       y       z     vdW  Elec       q    Type
REMARK                         _______ _______ _______ _____ _____    ______ ____
ROOT
ATOM      1  N   UNL     1       4.476   6.068  16.687  0.00  0.00    +0.000 N 
ATOM      2  C   UNL     1       4.408   4.938  17.407  0.00  0.00    +0.000 A 
ATOM      3  C   UNL     1       3.675   4.907  18.585  0.00  0.00    +0.000 A 
ATOM      4  C   UNL     1       2.974   6.041  19.046  0.00  0.00    +0.000 A 
ATOM      5  C   UNL     1       2.205   6.032  20.243  0.00  0.00    +0.000 A 
ATOM      6  C   UNL     1       2.059   4.832  21.146  0.00  0.00    +0.000 C 
ATOM      7  C   UNL     1       1.539   7.229  20.586  0.00  0.00    +0.000 A 
ATOM      8  N   UNL     1       0.734   7.475  21.680  0.00  0.00    +0.000 N 
ATOM      9  C   UNL     1       0.257   8.758  21.680  0.00  0.00    +0.000 A 
ATOM     10  C   UNL     1      -0.584   9.394  22.603  0.00  0.00    +0.000 A 
ATOM     11  C   UNL     1      -0.924  10.726  22.366  0.00  0.00    +0.000 A 
ATOM     12  C   UNL     1      -0.441  11.389  21.248  0.00  0.00    +0.000 A 
ATOM     13  C   UNL     1       0.398  10.733  20.338  0.00  0.00    +0.000 A 
ATOM     14  C   UNL     1       0.767   9.381  20.543  0.00  0.00    +0.000 A 
ATOM     15  C   UNL     1       1.586   8.408  19.843  0.00  0.00    +0.000 A 
ATOM     16  C   UNL     1       2.362   8.417  18.649  0.00  0.00    +0.000 A 
ATOM     17  C   UNL     1       2.479   9.641  17.768  0.00  0.00    +0.000 C 
ATOM     18  C   UNL     1       3.053   7.220  18.264  0.00  0.00    +0.000 A 
ATOM     19  C   UNL     1       3.829   7.177  17.093  0.00  0.00    +0.000 A 
ATOM     20  H   UNL     1       0.516   6.798  22.396  0.00  0.00    +0.000 HD
ENDROOT
BRANCH   1  21
ATOM     21  C   UNL     1       5.248   6.105  15.426  0.00  0.00    +0.000 C 
BRANCH  21  22
ATOM     22  O   UNL     1       6.387   5.251  15.513  0.00  0.00    +0.000 OA
BRANCH  22  23
ATOM     23  C   UNL     1       6.869   4.892  14.294  0.00  0.00    +0.000 C 
ATOM     24  O   UNL     1       7.855   5.404  13.784  0.00  0.00    +0.000 OA
BRANCH  23  25
ATOM     25  C   UNL     1       6.074   3.752  13.709  0.00  0.00    +0.000 C 
BRANCH  25  26
ATOM     26  C   UNL     1       6.406   3.536  12.235  0.00  0.00    +0.000 C 
BRANCH  26  28
ATOM     27  C   UNL     1       6.479   1.278  11.117  0.00  0.00    +0.000 C 
ATOM     28  C   UNL     1       5.586   2.407  11.605  0.00  0.00    +0.000 C 
ENDBRANCH  26  28
ENDBRANCH  25  26
ENDBRANCH  23  25
ENDBRANCH  22  23
ENDBRANCH  21  22
ENDBRANCH   1  21
TORSDOF 6
ENDMDL
MODEL 5
REMARK VINA RESULT:      -7.4      3.919      8.043
REMARK  Name = 
REMARK  9 active torsions:
REMARK  status: ('A' for Active; 'I' for Inactive)
REMARK    1  A    between atoms: C_1  and  C_2
REMARK    2  A    between atoms: C_2  and  C_3
REMARK    3  A    between atoms: C_3  and  C_4
REMARK    4  A    between atoms: C_4  and  C_5
REMARK    5  A    between atoms: C_5  and  O_7
REMARK    6  A    between atoms: O_7  and  C_8
REMARK    7  A    between atoms: C_8  and  N_9
REMARK    8  A    between atoms: C_13  and  C_14
REMARK    9  A    between atoms: C_24  and  C_25
REMARK                            x       y       z     vdW  Elec       q    Type
REMARK                         _______ _______ _______ _____ _____    ______ ____
ROOT
ATOM      1  N   UNL     1       0.292   9.607  20.697  0.00  0.00    +0.000 N 
ATOM      2  C   UNL     1       0.081   8.651  21.616  0.00  0.00    +0.000 A 
ATOM      3  C   UNL     1       0.684   7.408  21.476  0.00  0.00    +0.000 A 
ATOM      4  C   UNL     1       1.538   7.121  20.391  0.00  0.00    +0.000 A 
ATOM      5  C   UNL     1       2.177   5.860  20.233  0.00  0.00    +0.000 A 
ATOM      6  C   UNL     1       2.013   4.702  21.187  0.00  0.00    +0.000 C 
ATOM      7  C   UNL     1       3.020   5.705  19.111  0.00  0.00    +0.000 A 
ATOM      8  N   UNL     1       3.751   4.595  18.739  0.00  0.00    +0.000 N 
ATOM      9  C   UNL     1       4.457   4.816  17.587  0.00  0.00    +0.000 A 
ATOM     10  C   UNL     1       5.312   3.953  16.889  0.00  0.00    +0.000 A 
ATOM     11  C   UNL     1       5.915   4.432  15.725  0.00  0.00    +0.000 A 
ATOM     12  C   UNL     1       5.669   5.723  15.284  0.00  0.00    +0.000 A 
ATOM     13  C   UNL     1       4.811   6.569  15.998  0.00  0.00    +0.000 A 
ATOM     14  C   UNL     1       4.179   6.120  17.184  0.00  0.00    +0.000 A 
ATOM     15  C   UNL     1       3.262   6.690  18.154  0.00  0.00    +0.000 A 
ATOM     16  C   UNL     1       2.615   7.949  18.311  0.00  0.00    +0.000 A 
ATOM     17  C   UNL     1       2.811   9.088  17.334  0.00  0.00    +0.000 C 
ATOM     18  C   UNL     1       1.752   8.148  19.440  0.00  0.00    +0.000 A 
ATOM     19  C   UNL     1       1.094   9.373  19.640  0.00  0.00    +0.000 A 
ATOM     20  H   UNL     1       3.772   3.724  19.249  0.00  0.00    +0.000 HD
ENDROOT
BRANCH   1  21
ATOM     21  C   UNL     1      -0.339  10.936  20.843  0.00  0.00    +0.000 C 
BRANCH  21  22
ATOM     22  O   UNL     1      -0.750  11.435  19.573  0.00  0.00    +0.000 OA
BRANCH  22  23
ATOM     23  C   UNL     1      -1.990  11.992  19.603  0.00  0.00    +0.000 C 
ATOM     24  O   UNL     1      -2.353  12.776  20.469  0.00  0.00    +0.000 OA
BRANCH  23  25
ATOM     25  C   UNL     1      -2.806  11.570  18.408  0.00  0.00    +0.000 C 
BRANCH  25  26
ATOM     26  C   UNL     1      -1.979  10.739  17.431  0.00  0.00    +0.000 C 
BRANCH  26  28
ATOM     27  C   UNL     1      -2.858  10.266  15.116  0.00  0.00    +0.000 C 
ATOM     28  C   UNL     1      -2.841   9.813  16.567  0.00  0.00    +0.000 C 
ENDBRANCH  26  28
ENDBRANCH  25  26
ENDBRANCH  23  25
ENDBRANCH  22  23
ENDBRANCH  21  22
ENDBRANCH   1  21
TORSDOF 6
ENDMDL
MODEL 6
REMARK VINA RESULT:      -7.4      0.800      1.013
REMARK  Name = 
REMARK  9 active torsions:
REMARK  status: ('A' for Active; 'I' for Inactive)
REMARK    1  A    between atoms: C_1  and  C_2
REMARK    2  A    between atoms: C_2  and  C_3
REMARK    3  A    between atoms: C_3  and  C_4
REMARK    4  A    between atoms: C_4  and  C_5
REMARK    5  A    between atoms: C_5  and  O_7
REMARK    6  A    between atoms: O_7  and  C_8
REMARK    7  A    between atoms: C_8  and  N_9
REMARK    8  A    between atoms: C_13  and  C_14
REMARK    9  A    between atoms: C_24  and  C_25
REMARK                            x       y       z     vdW  Elec       q    Type
REMARK                         _______ _______ _______ _____ _____    ______ ____
ROOT
ATOM      1  N   UNL     1       5.151   4.103  17.043  0.00  0.00    +0.000 N 
ATOM      2  C   UNL     1       4.868   3.135  17.928  0.00  0.00    +0.000 A 
ATOM      3  C   UNL     1       4.030   3.399  19.003  0.00  0.00    +0.000 A 
ATOM      4  C   UNL     1       3.444   4.669  19.185  0.00  0.00    +0.000 A 
ATOM      5  C   UNL     1       2.571   4.961  20.271  0.00  0.00    +0.000 A 
ATOM      6  C   UNL     1       2.186   3.967  21.338  0.00  0.00    +0.000 C 
ATOM      7  C   UNL     1       2.038   6.267  20.331  0.00  0.00    +0.000 A 
ATOM      8  N   UNL     1       1.174   6.795  21.269  0.00  0.00    +0.000 N 
ATOM      9  C   UNL     1       0.870   8.102  21.000  0.00  0.00    +0.000 A 
ATOM     10  C   UNL     1       0.038   8.984  21.702  0.00  0.00    +0.000 A 
ATOM     11  C   UNL     1      -0.102  10.282  21.209  0.00  0.00    +0.000 A 
ATOM     12  C   UNL     1       0.566  10.674  20.059  0.00  0.00    +0.000 A 
ATOM     13  C   UNL     1       1.394   9.776  19.373  0.00  0.00    +0.000 A 
ATOM     14  C   UNL     1       1.562   8.450  19.842  0.00  0.00    +0.000 A 
ATOM     15  C   UNL     1       2.309   7.282  19.412  0.00  0.00    +0.000 A 
ATOM     16  C   UNL     1       3.188   6.989  18.331  0.00  0.00    +0.000 A 
ATOM     17  C   UNL     1       3.545   8.014  17.277  0.00  0.00    +0.000 C 
ATOM     18  C   UNL     1       3.749   5.672  18.232  0.00  0.00    +0.000 A 
ATOM     19  C   UNL     1       4.618   5.333  17.182  0.00  0.00    +0.000 A 
ATOM     20  H   UNL     1       0.803   6.286  22.058  0.00  0.00    +0.000 HD
ENDROOT
BRANCH   1  21
ATOM     21  C   UNL     1       6.035   3.826  15.890  0.00  0.00    +0.000 C 
BRANCH  21  22
ATOM     22  O   UNL     1       5.300   3.891  14.671  0.00  0.00    +0.000 OA
BRANCH  22  23
ATOM     23  C   UNL     1       6.098   4.070  13.585  0.00  0.00    +0.000 C 
ATOM     24  O   UNL     1       7.095   4.777  13.594  0.00  0.00    +0.000 OA
BRANCH  23  25
ATOM     25  C   UNL     1       5.625   3.239  12.419  0.00  0.00    +0.000 C 
BRANCH  25  26
ATOM     26  C   UNL     1       6.772   2.451  11.793  0.00  0.00    +0.000 C 
BRANCH  26  28
ATOM     27  C   UNL     1       6.287  -0.001  11.458  0.00  0.00    +0.000 C 
ATOM     28  C   UNL     1       6.284   1.377  10.816  0.00  0.00    +0.000 C 
ENDBRANCH  26  28
ENDBRANCH  25  26
ENDBRANCH  23  25
ENDBRANCH  22  23
ENDBRANCH  21  22
ENDBRANCH   1  21
TORSDOF 6
ENDMDL
MODEL 7
REMARK VINA RESULT:      -7.1      4.506      7.728
REMARK  Name = 
REMARK  9 active torsions:
REMARK  status: ('A' for Active; 'I' for Inactive)
REMARK    1  A    between atoms: C_1  and  C_2
REMARK    2  A    between atoms: C_2  and  C_3
REMARK    3  A    between atoms: C_3  and  C_4
REMARK    4  A    between atoms: C_4  and  C_5
REMARK    5  A    between atoms: C_5  and  O_7
REMARK    6  A    between atoms: O_7  and  C_8
REMARK    7  A    between atoms: C_8  and  N_9
REMARK    8  A    between atoms: C_13  and  C_14
REMARK    9  A    between atoms: C_24  and  C_25
REMARK                            x       y       z     vdW  Elec       q    Type
REMARK                         _______ _______ _______ _____ _____    ______ ____
ROOT
ATOM      1  N   UNL     1       0.981   9.561  18.450  0.00  0.00    +0.000 N 
ATOM      2  C   UNL     1       1.419  10.288  19.489  0.00  0.00    +0.000 A 
ATOM      3  C   UNL     1       0.575  11.207  20.099  0.00  0.00    +0.000 A 
ATOM      4  C   UNL     1      -0.754  11.389  19.663  0.00  0.00    +0.000 A 
ATOM      5  C   UNL     1      -1.642  12.314  20.280  0.00  0.00    +0.000 A 
ATOM      6  C   UNL     1      -1.269  13.197  21.445  0.00  0.00    +0.000 C 
ATOM      7  C   UNL     1      -2.952  12.390  19.758  0.00  0.00    +0.000 A 
ATOM      8  N   UNL     1      -3.993  13.193  20.178  0.00  0.00    +0.000 N 
ATOM      9  C   UNL     1      -5.122  12.990  19.432  0.00  0.00    +0.000 A 
ATOM     10  C   UNL     1      -6.379  13.600  19.537  0.00  0.00    +0.000 A 
ATOM     11  C   UNL     1      -7.373  13.207  18.640  0.00  0.00    +0.000 A 
ATOM     12  C   UNL     1      -7.113  12.242  17.679  0.00  0.00    +0.000 A 
ATOM     13  C   UNL     1      -5.849  11.645  17.592  0.00  0.00    +0.000 A 
ATOM     14  C   UNL     1      -4.813  12.017  18.483  0.00  0.00    +0.000 A 
ATOM     15  C   UNL     1      -3.429  11.632  18.689  0.00  0.00    +0.000 A 
ATOM     16  C   UNL     1      -2.536  10.712  18.069  0.00  0.00    +0.000 A 
ATOM     17  C   UNL     1      -2.952   9.839  16.906  0.00  0.00    +0.000 C 
ATOM     18  C   UNL     1      -1.196  10.603  18.571  0.00  0.00    +0.000 A 
ATOM     19  C   UNL     1      -0.279   9.707  17.996  0.00  0.00    +0.000 A 
ATOM     20  H   UNL     1      -3.939  13.850  20.942  0.00  0.00    +0.000 HD
ENDROOT
BRANCH   1  21
ATOM     21  C   UNL     1       1.871   8.574  17.801  0.00  0.00    +0.000 C 
BRANCH  21  22
ATOM     22  O   UNL     1       2.268   7.572  18.734  0.00  0.00    +0.000 OA
BRANCH  22  23
ATOM     23  C   UNL     1       3.009   6.585  18.163  0.00  0.00    +0.000 C 
ATOM     24  O   UNL     1       4.003   6.799  17.485  0.00  0.00    +0.000 OA
BRANCH  23  25
ATOM     25  C   UNL     1       2.480   5.223  18.535  0.00  0.00    +0.000 C 
BRANCH  25  26
ATOM     26  C   UNL     1       2.000   5.186  19.983  0.00  0.00    +0.000 C 
BRANCH  26  28
ATOM     27  C   UNL     1       1.707   3.147  21.437  0.00  0.00    +0.000 C 
ATOM     28  C   UNL     1       1.135   3.958  20.286  0.00  0.00    +0.000 C 
ENDBRANCH  26  28
ENDBRANCH  25  26
ENDBRANCH  23  25
ENDBRANCH  22  23
ENDBRANCH  21  22
ENDBRANCH   1  21
TORSDOF 6
ENDMDL
MODEL 8
REMARK VINA RESULT:      -7.1      3.446      6.641
REMARK  Name = 
REMARK  9 active torsions:
REMARK  status: ('A' for Active; 'I' for Inactive)
REMARK    1  A    between atoms: C_1  and  C_2
REMARK    2  A    between atoms: C_2  and  C_3
REMARK    3  A    between atoms: C_3  and  C_4
REMARK    4  A    between atoms: C_4  and  C_5
REMARK    5  A    between atoms: C_5  and  O_7
REMARK    6  A    between atoms: O_7  and  C_8
REMARK    7  A    between atoms: C_8  and  N_9
REMARK    8  A    between atoms: C_13  and  C_14
REMARK    9  A    between atoms: C_24  and  C_25
REMARK                            x       y       z     vdW  Elec       q    Type
REMARK                         _______ _______ _______ _____ _____    ______ ____
ROOT
ATOM      1  N   UNL     1       1.977   8.140  19.333  0.00  0.00    +0.000 N 
ATOM      2  C   UNL     1       2.183   8.934  18.271  0.00  0.00    +0.000 A 
ATOM      3  C   UNL     1       1.540  10.162  18.186  0.00  0.00    +0.000 A 
ATOM      4  C   UNL     1       0.677  10.613  19.205  0.00  0.00    +0.000 A 
ATOM      5  C   UNL     1       0.016  11.872  19.147  0.00  0.00    +0.000 A 
ATOM      6  C   UNL     1       0.155  12.849  18.006  0.00  0.00    +0.000 C 
ATOM      7  C   UNL     1      -0.810  12.213  20.240  0.00  0.00    +0.000 A 
ATOM      8  N   UNL     1      -1.547  13.365  20.427  0.00  0.00    +0.000 N 
ATOM      9  C   UNL     1      -2.228  13.344  21.614  0.00  0.00    +0.000 A 
ATOM     10  C   UNL     1      -3.078  14.311  22.169  0.00  0.00    +0.000 A 
ATOM     11  C   UNL     1      -3.654  14.038  23.410  0.00  0.00    +0.000 A 
ATOM     12  C   UNL     1      -3.387  12.845  24.064  0.00  0.00    +0.000 A 
ATOM     13  C   UNL     1      -2.535  11.893  23.490  0.00  0.00    +0.000 A 
ATOM     14  C   UNL     1      -1.931  12.132  22.232  0.00  0.00    +0.000 A 
ATOM     15  C   UNL     1      -1.026  11.407  21.358  0.00  0.00    +0.000 A 
ATOM     16  C   UNL     1      -0.369  10.145  21.410  0.00  0.00    +0.000 A 
ATOM     17  C   UNL     1      -0.530   9.196  22.577  0.00  0.00    +0.000 C 
ATOM     18  C   UNL     1       0.481   9.762  20.320  0.00  0.00    +0.000 A 
ATOM     19  C   UNL     1       1.154   8.528  20.327  0.00  0.00    +0.000 A 
ATOM     20  H   UNL     1      -1.583  14.135  19.775  0.00  0.00    +0.000 HD
ENDROOT
BRANCH   1  21
ATOM     21  C   UNL     1       2.665   6.835  19.435  0.00  0.00    +0.000 C 
BRANCH  21  22
ATOM     22  O   UNL     1       3.292   6.504  18.198  0.00  0.00    +0.000 OA
BRANCH  22  23
ATOM     23  C   UNL     1       3.204   5.181  17.901  0.00  0.00    +0.000 C 
ATOM     24  O   UNL     1       4.177   4.478  17.671  0.00  0.00    +0.000 OA
BRANCH  23  25
ATOM     25  C   UNL     1       1.775   4.704  17.963  0.00  0.00    +0.000 C 
BRANCH  25  26
ATOM     26  C   UNL     1       1.645   3.434  18.799  0.00  0.00    +0.000 C 
BRANCH  26  28
ATOM     27  C   UNL     1       1.440   2.827  21.237  0.00  0.00    +0.000 C 
ATOM     28  C   UNL     1       0.872   3.662  20.101  0.00  0.00    +0.000 C 
ENDBRANCH  26  28
ENDBRANCH  25  26
ENDBRANCH  23  25
ENDBRANCH  22  23
ENDBRANCH  21  22
ENDBRANCH   1  21
TORSDOF 6
ENDMDL
MODEL 9
REMARK VINA RESULT:      -7.0      6.426     11.630
REMARK  Name = 
REMARK  9 active torsions:
REMARK  status: ('A' for Active; 'I' for Inactive)
REMARK    1  A    between atoms: C_1  and  C_2
REMARK    2  A    between atoms: C_2  and  C_3
REMARK    3  A    between atoms: C_3  and  C_4
REMARK    4  A    between atoms: C_4  and  C_5
REMARK    5  A    between atoms: C_5  and  O_7
REMARK    6  A    between atoms: O_7  and  C_8
REMARK    7  A    between atoms: C_8  and  N_9
REMARK    8  A    between atoms: C_13  and  C_14
REMARK    9  A    between atoms: C_24  and  C_25
REMARK                            x       y       z     vdW  Elec       q    Type
REMARK                         _______ _______ _______ _____ _____    ______ ____
ROOT
ATOM      1  N   UNL     1      -2.604  13.347  22.955  0.00  0.00    +0.000 N 
ATOM      2  C   UNL     1      -2.723  14.161  21.895  0.00  0.00    +0.000 A 
ATOM      3  C   UNL     1      -2.084  13.848  20.703  0.00  0.00    +0.000 A 
ATOM      4  C   UNL     1      -1.317  12.673  20.565  0.00  0.00    +0.000 A 
ATOM      5  C   UNL     1      -0.664  12.324  19.349  0.00  0.00    +0.000 A 
ATOM      6  C   UNL     1      -0.710  13.158  18.093  0.00  0.00    +0.000 C 
ATOM      7  C   UNL     1       0.061  11.112  19.337  0.00  0.00    +0.000 A 
ATOM      8  N   UNL     1       0.770  10.552  18.294  0.00  0.00    +0.000 N 
ATOM      9  C   UNL     1       1.345   9.362  18.653  0.00  0.00    +0.000 A 
ATOM     10  C   UNL     1       2.134   8.491  17.891  0.00  0.00    +0.000 A 
ATOM     11  C   UNL     1       2.602   7.328  18.505  0.00  0.00    +0.000 A 
ATOM     12  C   UNL     1       2.288   7.055  19.828  0.00  0.00    +0.000 A 
ATOM     13  C   UNL     1       1.497   7.941  20.570  0.00  0.00    +0.000 A 
ATOM     14  C   UNL     1       1.004   9.131  19.984  0.00  0.00    +0.000 A 
ATOM     15  C   UNL     1       0.184  10.246  20.424  0.00  0.00    +0.000 A 
ATOM     16  C   UNL     1      -0.464  10.602  21.640  0.00  0.00    +0.000 A 
ATOM     17  C   UNL     1      -0.399   9.733  22.877  0.00  0.00    +0.000 C 
ATOM     18  C   UNL     1      -1.213  11.825  21.694  0.00  0.00    +0.000 A 
ATOM     19  C   UNL     1      -1.874  12.217  22.870  0.00  0.00    +0.000 A 
ATOM     20  H   UNL     1       0.856  10.959  17.375  0.00  0.00    +0.000 HD
ENDROOT
BRANCH   1  21
ATOM     21  C   UNL     1      -3.288  13.669  24.226  0.00  0.00    +0.000 C 
BRANCH  21  22
ATOM     22  O   UNL     1      -4.651  14.011  23.985  0.00  0.00    +0.000 OA
BRANCH  22  23
ATOM     23  C   UNL     1      -5.470  12.927  23.969  0.00  0.00    +0.000 C 
ATOM     24  O   UNL     1      -5.346  11.980  24.734  0.00  0.00    +0.000 OA
BRANCH  23  25
ATOM     25  C   UNL     1      -6.567  13.088  22.948  0.00  0.00    +0.000 C 
BRANCH  25  26
ATOM     26  C   UNL     1      -6.168  12.494  21.600  0.00  0.00    +0.000 C 
BRANCH  26  28
ATOM     27  C   UNL     1      -5.858  14.210  19.779  0.00  0.00    +0.000 C 
ATOM     28  C   UNL     1      -6.819  13.221  20.419  0.00  0.00    +0.000 C 
ENDBRANCH  26  28
ENDBRANCH  25  26
ENDBRANCH  23  25
ENDBRANCH  22  23
ENDBRANCH  21  22
ENDBRANCH   1  21
TORSDOF 6
ENDMDL
