MODEL 1
REMARK VINA RESULT:      -8.2      0.000      0.000
REMARK  Name = 
REMARK  7 active torsions:
REMARK  status: ('A' for Active; 'I' for Inactive)
REMARK    1  A    between atoms: C_1  and  C_2
REMARK    2  A    between atoms: C_4  and  C_5
REMARK    3  A    between atoms: N_7  and  C_8
REMARK    4  A    between atoms: C_8  and  C_9
REMARK    5  A    between atoms: C_9  and  N_10
REMARK    6  A    between atoms: C_12  and  C_13
REMARK    7  A    between atoms: N_17  and  C_18
REMARK                            x       y       z     vdW  Elec       q    Type
REMARK                         _______ _______ _______ _____ _____    ______ ____
ROOT
ATOM      1  C   UNL     1       6.283   5.438  19.296  0.00  0.00    +0.000 C 
ENDROOT
BRANCH   1   2
ATOM      2  N   UNL     1       5.055   4.784  18.897  0.00  0.00    +0.000 N 
ATOM      3  N   UNL     1       4.879   3.423  18.932  0.00  0.00    +0.000 NA
ATOM      4  C   UNL     1       3.645   3.240  18.523  0.00  0.00    +0.000 A 
ATOM      5  N   UNL     1       3.005   4.391  18.208  0.00  0.00    +0.000 N 
ATOM      6  C   UNL     1       1.670   4.670  17.728  0.00  0.00    +0.000 C 
ATOM      7  C   UNL     1       3.902   5.406  18.441  0.00  0.00    +0.000 A 
ATOM      8  O   UNL     1       3.713   6.599  18.281  0.00  0.00    +0.000 OA
BRANCH   4   9
ATOM      9  C   UNL     1       3.023   1.851  18.424  0.00  0.00    +0.000 C 
ATOM     10  F   UNL     1       2.436   1.581  17.227  0.00  0.00    +0.000 F 
ATOM     11  F   UNL     1       3.944   0.865  18.615  0.00  0.00    +0.000 F 
ATOM     12  F   UNL     1       2.055   1.659  19.362  0.00  0.00    +0.000 F 
ENDBRANCH   4   9
ENDBRANCH   1   2
BRANCH   1  13
ATOM     13  C   UNL     1       7.517   4.867  18.591  0.00  0.00    +0.000 C 
BRANCH  13  16
ATOM     14  C   UNL     1       7.085   5.463  16.218  0.00  0.00    +0.000 C 
ATOM     15  O   UNL     1       7.056   6.668  16.452  0.00  0.00    +0.000 OA
ATOM     16  N   UNL     1       7.301   4.518  17.200  0.00  0.00    +0.000 N 
ATOM     17  H   UNL     1       7.243   3.544  16.918  0.00  0.00    +0.000 HD
BRANCH  14  21
ATOM     18  C   UNL     1       5.643   2.941  12.044  0.00  0.00    +0.000 C 
ATOM     19  C   UNL     1       6.227   3.787  13.100  0.00  0.00    +0.000 A 
ATOM     20  C   UNL     1       5.976   3.956  14.438  0.00  0.00    +0.000 A 
ATOM     21  C   UNL     1       6.926   4.920  14.866  0.00  0.00    +0.000 A 
ATOM     22  N   UNL     1       7.692   5.320  13.833  0.00  0.00    +0.000 NA
ATOM     23  O   UNL     1       7.251   4.602  12.733  0.00  0.00    +0.000 OA
ENDBRANCH  14  21
ENDBRANCH  13  16
ENDBRANCH   1  13
TORSDOF 5
ENDMDL
MODEL 2
REMARK VINA RESULT:      -7.8      0.694      1.065
REMARK  Name = 
REMARK  7 active torsions:
REMARK  status: ('A' for Active; 'I' for Inactive)
REMARK    1  A    between atoms: C_1  and  C_2
REMARK    2  A    between atoms: C_4  and  C_5
REMARK    3  A    between atoms: N_7  and  C_8
REMARK    4  A    between atoms: C_8  and  C_9
REMARK    5  A    between atoms: C_9  and  N_10
REMARK    6  A    between atoms: C_12  and  C_13
REMARK    7  A    between atoms: N_17  and  C_18
REMARK                            x       y       z     vdW  Elec       q    Type
REMARK                         _______ _______ _______ _____ _____    ______ ____
ROOT
ATOM      1  C   UNL     1       6.001   5.635  19.147  0.00  0.00    +0.000 C 
ENDROOT
BRANCH   1   2
ATOM      2  N   UNL     1       4.773   4.869  19.121  0.00  0.00    +0.000 N 
ATOM      3  N   UNL     1       4.708   3.563  18.702  0.00  0.00    +0.000 NA
ATOM      4  C   UNL     1       3.447   3.231  18.851  0.00  0.00    +0.000 A 
ATOM      5  N   UNL     1       2.678   4.239  19.328  0.00  0.00    +0.000 N 
ATOM      6  C   UNL     1       1.270   4.330  19.644  0.00  0.00    +0.000 C 
ATOM      7  C   UNL     1       3.517   5.311  19.508  0.00  0.00    +0.000 A 
ATOM      8  O   UNL     1       3.213   6.416  19.925  0.00  0.00    +0.000 OA
BRANCH   4   9
ATOM      9  C   UNL     1       2.932   1.837  18.513  0.00  0.00    +0.000 C 
ATOM     10  F   UNL     1       1.955   1.380  19.343  0.00  0.00    +0.000 F 
ATOM     11  F   UNL     1       2.407   1.778  17.257  0.00  0.00    +0.000 F 
ATOM     12  F   UNL     1       3.922   0.903  18.559  0.00  0.00    +0.000 F 
ENDBRANCH   4   9
ENDBRANCH   1   2
BRANCH   1  13
ATOM     13  C   UNL     1       7.186   4.882  18.538  0.00  0.00    +0.000 C 
BRANCH  13  16
ATOM     14  C   UNL     1       7.049   5.471  16.128  0.00  0.00    +0.000 C 
ATOM     15  O   UNL     1       7.219   6.669  16.339  0.00  0.00    +0.000 OA
ATOM     16  N   UNL     1       7.016   4.533  17.140  0.00  0.00    +0.000 N 
ATOM     17  H   UNL     1       6.807   3.577  16.871  0.00  0.00    +0.000 HD
BRANCH  14  21
ATOM     18  C   UNL     1       5.621   2.946  11.951  0.00  0.00    +0.000 C 
ATOM     19  C   UNL     1       6.203   3.791  13.009  0.00  0.00    +0.000 A 
ATOM     20  C   UNL     1       5.941   3.968  14.344  0.00  0.00    +0.000 A 
ATOM     21  C   UNL     1       6.897   4.924  14.777  0.00  0.00    +0.000 A 
ATOM     22  N   UNL     1       7.678   5.311  13.750  0.00  0.00    +0.000 NA
ATOM     23  O   UNL     1       7.240   4.593  12.649  0.00  0.00    +0.000 OA
ENDBRANCH  14  21
ENDBRANCH  13  16
ENDBRANCH   1  13
TORSDOF 5
ENDMDL
MODEL 3
REMARK VINA RESULT:      -7.7      0.803      1.120
REMARK  Name = 
REMARK  7 active torsions:
REMARK  status: ('A' for Active; 'I' for Inactive)
REMARK    1  A    between atoms: C_1  and  C_2
REMARK    2  A    between atoms: C_4  and  C_5
REMARK    3  A    between atoms: N_7  and  C_8
REMARK    4  A    between atoms: C_8  and  C_9
REMARK    5  A    between atoms: C_9  and  N_10
REMARK    6  A    between atoms: C_12  and  C_13
REMARK    7  A    between atoms: N_17  and  C_18
REMARK                            x       y       z     vdW  Elec       q    Type
REMARK                         _______ _______ _______ _____ _____    ______ ____
ROOT
ATOM      1  C   UNL     1       6.283   5.360  19.501  0.00  0.00    +0.000 C 
ENDROOT
BRANCH   1   2
ATOM      2  N   UNL     1       5.062   4.736  19.039  0.00  0.00    +0.000 N 
ATOM      3  N   UNL     1       4.879   3.376  18.997  0.00  0.00    +0.000 NA
ATOM      4  C   UNL     1       3.654   3.222  18.551  0.00  0.00    +0.000 A 
ATOM      5  N   UNL     1       3.027   4.393  18.282  0.00  0.00    +0.000 N 
ATOM      6  C   UNL     1       1.705   4.704  17.787  0.00  0.00    +0.000 C 
ATOM      7  C   UNL     1       3.923   5.388  18.590  0.00  0.00    +0.000 A 
ATOM      8  O   UNL     1       3.743   6.589  18.490  0.00  0.00    +0.000 OA
BRANCH   4   9
ATOM      9  C   UNL     1       3.028   1.845  18.364  0.00  0.00    +0.000 C 
ATOM     10  F   UNL     1       3.915   0.813  18.402  0.00  0.00    +0.000 F 
ATOM     11  F   UNL     1       2.101   1.571  19.323  0.00  0.00    +0.000 F 
ATOM     12  F   UNL     1       2.387   1.735  17.167  0.00  0.00    +0.000 F 
ENDBRANCH   4   9
ENDBRANCH   1   2
BRANCH   1  13
ATOM     13  C   UNL     1       6.874   6.338  18.481  0.00  0.00    +0.000 C 
BRANCH  13  16
ATOM     14  C   UNL     1       7.382   4.893  16.526  0.00  0.00    +0.000 C 
ATOM     15  O   UNL     1       8.205   4.224  17.145  0.00  0.00    +0.000 OA
ATOM     16  N   UNL     1       6.691   5.941  17.098  0.00  0.00    +0.000 N 
ATOM     17  H   UNL     1       6.080   6.474  16.487  0.00  0.00    +0.000 HD
BRANCH  14  21
ATOM     18  C   UNL     1       5.367   3.192  12.177  0.00  0.00    +0.000 C 
ATOM     19  C   UNL     1       6.094   3.832  13.288  0.00  0.00    +0.000 A 
ATOM     20  C   UNL     1       6.032   3.733  14.655  0.00  0.00    +0.000 A 
ATOM     21  C   UNL     1       7.035   4.618  15.128  0.00  0.00    +0.000 A 
ATOM     22  N   UNL     1       7.653   5.228  14.099  0.00  0.00    +0.000 NA
ATOM     23  O   UNL     1       7.061   4.726  12.950  0.00  0.00    +0.000 OA
ENDBRANCH  14  21
ENDBRANCH  13  16
ENDBRANCH   1  13
TORSDOF 5
ENDMDL
MODEL 4
REMARK VINA RESULT:      -7.6      1.915      2.389
REMARK  Name = 
REMARK  7 active torsions:
REMARK  status: ('A' for Active; 'I' for Inactive)
REMARK    1  A    between atoms: C_1  and  C_2
REMARK    2  A    between atoms: C_4  and  C_5
REMARK    3  A    between atoms: N_7  and  C_8
REMARK    4  A    between atoms: C_8  and  C_9
REMARK    5  A    between atoms: C_9  and  N_10
REMARK    6  A    between atoms: C_12  and  C_13
REMARK    7  A    between atoms: N_17  and  C_18
REMARK                            x       y       z     vdW  Elec       q    Type
REMARK                         _______ _______ _______ _____ _____    ______ ____
ROOT
ATOM      1  C   UNL     1       3.987   6.571  18.127  0.00  0.00    +0.000 C 
ENDROOT
BRANCH   1   2
ATOM      2  N   UNL     1       3.552   5.292  18.645  0.00  0.00    +0.000 N 
ATOM      3  N   UNL     1       3.185   5.093  19.953  0.00  0.00    +0.000 NA
ATOM      4  C   UNL     1       2.840   3.828  20.010  0.00  0.00    +0.000 A 
ATOM      5  N   UNL     1       2.972   3.180  18.828  0.00  0.00    +0.000 N 
ATOM      6  C   UNL     1       2.715   1.815  18.425  0.00  0.00    +0.000 C 
ATOM      7  C   UNL     1       3.434   4.110  17.929  0.00  0.00    +0.000 A 
ATOM      8  O   UNL     1       3.682   3.927  16.749  0.00  0.00    +0.000 OA
BRANCH   4   9
ATOM      9  C   UNL     1       2.344   3.182  21.299  0.00  0.00    +0.000 C 
ATOM     10  F   UNL     1       3.116   2.155  21.748  0.00  0.00    +0.000 F 
ATOM     11  F   UNL     1       2.281   4.074  22.326  0.00  0.00    +0.000 F 
ATOM     12  F   UNL     1       1.090   2.667  21.160  0.00  0.00    +0.000 F 
ENDBRANCH   4   9
ENDBRANCH   1   2
BRANCH   1  13
ATOM     13  C   UNL     1       5.464   6.578  17.722  0.00  0.00    +0.000 C 
BRANCH  13  16
ATOM     14  C   UNL     1       6.810   5.275  16.091  0.00  0.00    +0.000 C 
ATOM     15  O   UNL     1       7.644   4.949  16.932  0.00  0.00    +0.000 OA
ATOM     16  N   UNL     1       5.720   6.067  16.389  0.00  0.00    +0.000 N 
ATOM     17  H   UNL     1       5.123   6.334  15.613  0.00  0.00    +0.000 HD
BRANCH  14  21
ATOM     18  C   UNL     1       6.237   2.895  11.632  0.00  0.00    +0.000 C 
ATOM     19  C   UNL     1       6.561   3.738  12.798  0.00  0.00    +0.000 A 
ATOM     20  C   UNL     1       6.155   3.755  14.108  0.00  0.00    +0.000 A 
ATOM     21  C   UNL     1       6.879   4.823  14.698  0.00  0.00    +0.000 A 
ATOM     22  N   UNL     1       7.663   5.425  13.784  0.00  0.00    +0.000 NA
ATOM     23  O   UNL     1       7.462   4.736  12.598  0.00  0.00    +0.000 OA
ENDBRANCH  14  21
ENDBRANCH  13  16
ENDBRANCH   1  13
TORSDOF 5
ENDMDL
MODEL 5
REMARK VINA RESULT:      -7.5      2.072      2.433
REMARK  Name = 
REMARK  7 active torsions:
REMARK  status: ('A' for Active; 'I' for Inactive)
REMARK    1  A    between atoms: C_1  and  C_2
REMARK    2  A    between atoms: C_4  and  C_5
REMARK    3  A    between atoms: N_7  and  C_8
REMARK    4  A    between atoms: C_8  and  C_9
REMARK    5  A    between atoms: C_9  and  N_10
REMARK    6  A    between atoms: C_12  and  C_13
REMARK    7  A    between atoms: N_17  and  C_18
REMARK                            x       y       z     vdW  Elec       q    Type
REMARK                         _______ _______ _______ _____ _____    ______ ____
ROOT
ATOM      1  C   UNL     1       5.768   5.698  18.482  0.00  0.00    +0.000 C 
ENDROOT
BRANCH   1   2
ATOM      2  N   UNL     1       4.548   4.976  18.773  0.00  0.00    +0.000 N 
ATOM      3  N   UNL     1       3.677   5.336  19.771  0.00  0.00    +0.000 NA
ATOM      4  C   UNL     1       2.704   4.460  19.693  0.00  0.00    +0.000 A 
ATOM      5  N   UNL     1       2.887   3.538  18.717  0.00  0.00    +0.000 N 
ATOM      6  C   UNL     1       2.095   2.412  18.273  0.00  0.00    +0.000 C 
ATOM      7  C   UNL     1       4.077   3.852  18.109  0.00  0.00    +0.000 A 
ATOM      8  O   UNL     1       4.602   3.264  17.179  0.00  0.00    +0.000 OA
BRANCH   4   9
ATOM      9  C   UNL     1       1.498   4.503  20.624  0.00  0.00    +0.000 C 
ATOM     10  F   UNL     1       0.334   4.081  20.060  0.00  0.00    +0.000 F 
ATOM     11  F   UNL     1       1.677   3.724  21.727  0.00  0.00    +0.000 F 
ATOM     12  F   UNL     1       1.251   5.763  21.079  0.00  0.00    +0.000 F 
ENDBRANCH   4   9
ENDBRANCH   1   2
BRANCH   1  13
ATOM     13  C   UNL     1       5.622   6.662  17.302  0.00  0.00    +0.000 C 
BRANCH  13  16
ATOM     14  C   UNL     1       6.824   5.270  15.632  0.00  0.00    +0.000 C 
ATOM     15  O   UNL     1       7.779   5.073  16.379  0.00  0.00    +0.000 OA
ATOM     16  N   UNL     1       5.734   6.032  15.999  0.00  0.00    +0.000 N 
ATOM     17  H   UNL     1       5.026   6.189  15.290  0.00  0.00    +0.000 HD
BRANCH  14  21
ATOM     18  C   UNL     1       5.682   2.548  11.489  0.00  0.00    +0.000 C 
ATOM     19  C   UNL     1       6.173   3.461  12.538  0.00  0.00    +0.000 A 
ATOM     20  C   UNL     1       5.877   3.642  13.865  0.00  0.00    +0.000 A 
ATOM     21  C   UNL     1       6.740   4.684  14.290  0.00  0.00    +0.000 A 
ATOM     22  N   UNL     1       7.500   5.117  13.267  0.00  0.00    +0.000 NA
ATOM     23  O   UNL     1       7.143   4.342  12.174  0.00  0.00    +0.000 OA
ENDBRANCH  14  21
ENDBRANCH  13  16
ENDBRANCH   1  13
TORSDOF 5
ENDMDL
MODEL 6
REMARK VINA RESULT:      -7.5      2.259      3.026
REMARK  Name = 
REMARK  7 active torsions:
REMARK  status: ('A' for Active; 'I' for Inactive)
REMARK    1  A    between atoms: C_1  and  C_2
REMARK    2  A    between atoms: C_4  and  C_5
REMARK    3  A    between atoms: N_7  and  C_8
REMARK    4  A    between atoms: C_8  and  C_9
REMARK    5  A    between atoms: C_9  and  N_10
REMARK    6  A    between atoms: C_12  and  C_13
REMARK    7  A    between atoms: N_17  and  C_18
REMARK                            x       y       z     vdW  Elec       q    Type
REMARK                         _______ _______ _______ _____ _____    ______ ____
ROOT
ATOM      1  C   UNL     1       2.397   6.498  17.933  0.00  0.00    +0.000 C 
ENDROOT
BRANCH   1   2
ATOM      2  N   UNL     1       2.265   5.224  18.607  0.00  0.00    +0.000 N 
ATOM      3  N   UNL     1       2.351   5.079  19.970  0.00  0.00    +0.000 NA
ATOM      4  C   UNL     1       2.156   3.798  20.178  0.00  0.00    +0.000 A 
ATOM      5  N   UNL     1       1.963   3.091  19.039  0.00  0.00    +0.000 N 
ATOM      6  C   UNL     1       1.714   1.688  18.788  0.00  0.00    +0.000 C 
ATOM      7  C   UNL     1       2.031   3.995  18.008  0.00  0.00    +0.000 A 
ATOM      8  O   UNL     1       1.908   3.759  16.818  0.00  0.00    +0.000 OA
BRANCH   4   9
ATOM      9  C   UNL     1       2.153   3.197  21.579  0.00  0.00    +0.000 C 
ATOM     10  F   UNL     1       2.348   4.099  22.579  0.00  0.00    +0.000 F 
ATOM     11  F   UNL     1       0.975   2.576  21.865  0.00  0.00    +0.000 F 
ATOM     12  F   UNL     1       3.129   2.259  21.733  0.00  0.00    +0.000 F 
ENDBRANCH   4   9
ENDBRANCH   1   2
BRANCH   1  13
ATOM     13  C   UNL     1       3.835   7.024  17.932  0.00  0.00    +0.000 C 
BRANCH  13  16
ATOM     14  C   UNL     1       5.431   5.470  16.833  0.00  0.00    +0.000 C 
ATOM     15  O   UNL     1       5.537   4.760  17.830  0.00  0.00    +0.000 OA
ATOM     16  N   UNL     1       4.628   6.591  16.797  0.00  0.00    +0.000 N 
ATOM     17  H   UNL     1       4.658   7.147  15.949  0.00  0.00    +0.000 HD
BRANCH  14  21
ATOM     18  C   UNL     1       6.855   3.769  12.256  0.00  0.00    +0.000 C 
ATOM     19  C   UNL     1       6.660   4.392  13.578  0.00  0.00    +0.000 A 
ATOM     20  C   UNL     1       5.662   4.349  14.518  0.00  0.00    +0.000 A 
ATOM     21  C   UNL     1       6.127   5.170  15.577  0.00  0.00    +0.000 A 
ATOM     22  N   UNL     1       7.331   5.693  15.278  0.00  0.00    +0.000 NA
ATOM     23  O   UNL     1       7.661   5.196  14.027  0.00  0.00    +0.000 OA
ENDBRANCH  14  21
ENDBRANCH  13  16
ENDBRANCH   1  13
TORSDOF 5
ENDMDL
MODEL 7
REMARK VINA RESULT:      -7.4      1.886      2.497
REMARK  Name = 
REMARK  7 active torsions:
REMARK  status: ('A' for Active; 'I' for Inactive)
REMARK    1  A    between atoms: C_1  and  C_2
REMARK    2  A    between atoms: C_4  and  C_5
REMARK    3  A    between atoms: N_7  and  C_8
REMARK    4  A    between atoms: C_8  and  C_9
REMARK    5  A    between atoms: C_9  and  N_10
REMARK    6  A    between atoms: C_12  and  C_13
REMARK    7  A    between atoms: N_17  and  C_18
REMARK                            x       y       z     vdW  Elec       q    Type
REMARK                         _______ _______ _______ _____ _____    ______ ____
ROOT
ATOM      1  C   UNL     1       2.218   6.955  18.117  0.00  0.00    +0.000 C 
ENDROOT
BRANCH   1   2
ATOM      2  N   UNL     1       2.259   5.673  18.788  0.00  0.00    +0.000 N 
ATOM      3  N   UNL     1       2.542   4.494  18.146  0.00  0.00    +0.000 NA
ATOM      4  C   UNL     1       2.505   3.585  19.092  0.00  0.00    +0.000 A 
ATOM      5  N   UNL     1       2.202   4.091  20.312  0.00  0.00    +0.000 N 
ATOM      6  C   UNL     1       2.055   3.481  21.615  0.00  0.00    +0.000 C 
ATOM      7  C   UNL     1       2.036   5.443  20.138  0.00  0.00    +0.000 A 
ATOM      8  O   UNL     1       1.755   6.261  20.996  0.00  0.00    +0.000 OA
BRANCH   4   9
ATOM      9  C   UNL     1       2.783   2.113  18.811  0.00  0.00    +0.000 C 
ATOM     10  F   UNL     1       2.940   1.810  17.494  0.00  0.00    +0.000 F 
ATOM     11  F   UNL     1       3.919   1.682  19.428  0.00  0.00    +0.000 F 
ATOM     12  F   UNL     1       1.776   1.311  19.257  0.00  0.00    +0.000 F 
ENDBRANCH   4   9
ENDBRANCH   1   2
BRANCH   1  13
ATOM     13  C   UNL     1       3.609   7.546  17.878  0.00  0.00    +0.000 C 
BRANCH  13  16
ATOM     14  C   UNL     1       5.561   6.254  17.045  0.00  0.00    +0.000 C 
ATOM     15  O   UNL     1       6.082   6.190  18.156  0.00  0.00    +0.000 OA
ATOM     16  N   UNL     1       4.361   6.896  16.821  0.00  0.00    +0.000 N 
ATOM     17  H   UNL     1       4.043   6.950  15.858  0.00  0.00    +0.000 HD
BRANCH  14  21
ATOM     18  C   UNL     1       6.489   3.646  12.779  0.00  0.00    +0.000 C 
ATOM     19  C   UNL     1       6.463   4.472  14.000  0.00  0.00    +0.000 A 
ATOM     20  C   UNL     1       5.492   4.805  14.909  0.00  0.00    +0.000 A 
ATOM     21  C   UNL     1       6.152   5.624  15.861  0.00  0.00    +0.000 A 
ATOM     22  N   UNL     1       7.446   5.787  15.528  0.00  0.00    +0.000 NA
ATOM     23  O   UNL     1       7.634   5.058  14.364  0.00  0.00    +0.000 OA
ENDBRANCH  14  21
ENDBRANCH  13  16
ENDBRANCH   1  13
TORSDOF 5
ENDMDL
MODEL 8
REMARK VINA RESULT:      -7.4      1.702      2.352
REMARK  Name = 
REMARK  7 active torsions:
REMARK  status: ('A' for Active; 'I' for Inactive)
REMARK    1  A    between atoms: C_1  and  C_2
REMARK    2  A    between atoms: C_4  and  C_5
REMARK    3  A    between atoms: N_7  and  C_8
REMARK    4  A    between atoms: C_8  and  C_9
REMARK    5  A    between atoms: C_9  and  N_10
REMARK    6  A    between atoms: C_12  and  C_13
REMARK    7  A    between atoms: N_17  and  C_18
REMARK                            x       y       z     vdW  Elec       q    Type
REMARK                         _______ _______ _______ _____ _____    ______ ____
ROOT
ATOM      1  C   UNL     1       4.053   6.494  18.097  0.00  0.00    +0.000 C 
ENDROOT
BRANCH   1   2
ATOM      2  N   UNL     1       3.750   5.232  18.738  0.00  0.00    +0.000 N 
ATOM      3  N   UNL     1       2.471   4.792  18.970  0.00  0.00    +0.000 NA
ATOM      4  C   UNL     1       2.623   3.617  19.535  0.00  0.00    +0.000 A 
ATOM      5  N   UNL     1       3.921   3.264  19.702  0.00  0.00    +0.000 N 
ATOM      6  C   UNL     1       4.552   2.090  20.263  0.00  0.00    +0.000 C 
ATOM      7  C   UNL     1       4.669   4.298  19.194  0.00  0.00    +0.000 A 
ATOM      8  O   UNL     1       5.885   4.369  19.153  0.00  0.00    +0.000 OA
BRANCH   4   9
ATOM      9  C   UNL     1       1.434   2.758  19.951  0.00  0.00    +0.000 C 
ATOM     10  F   UNL     1       1.361   2.506  21.286  0.00  0.00    +0.000 F 
ATOM     11  F   UNL     1       0.247   3.336  19.618  0.00  0.00    +0.000 F 
ATOM     12  F   UNL     1       1.451   1.538  19.345  0.00  0.00    +0.000 F 
ENDBRANCH   4   9
ENDBRANCH   1   2
BRANCH   1  13
ATOM     13  C   UNL     1       5.481   6.554  17.548  0.00  0.00    +0.000 C 
BRANCH  13  16
ATOM     14  C   UNL     1       6.760   5.261  15.855  0.00  0.00    +0.000 C 
ATOM     15  O   UNL     1       7.709   5.072  16.613  0.00  0.00    +0.000 OA
ATOM     16  N   UNL     1       5.638   5.972  16.228  0.00  0.00    +0.000 N 
ATOM     17  H   UNL     1       4.937   6.129  15.511  0.00  0.00    +0.000 HD
BRANCH  14  21
ATOM     18  C   UNL     1       5.783   2.644  11.605  0.00  0.00    +0.000 C 
ATOM     19  C   UNL     1       6.225   3.536  12.692  0.00  0.00    +0.000 A 
ATOM     20  C   UNL     1       5.899   3.663  14.018  0.00  0.00    +0.000 A 
ATOM     21  C   UNL     1       6.720   4.718  14.494  0.00  0.00    +0.000 A 
ATOM     22  N   UNL     1       7.484   5.209  13.500  0.00  0.00    +0.000 NA
ATOM     23  O   UNL     1       7.172   4.460  12.376  0.00  0.00    +0.000 OA
ENDBRANCH  14  21
ENDBRANCH  13  16
ENDBRANCH   1  13
TORSDOF 5
ENDMDL
MODEL 9
REMARK VINA RESULT:      -7.3      0.877      1.208
REMARK  Name = 
REMARK  7 active torsions:
REMARK  status: ('A' for Active; 'I' for Inactive)
REMARK    1  A    between atoms: C_1  and  C_2
REMARK    2  A    between atoms: C_4  and  C_5
REMARK    3  A    between atoms: N_7  and  C_8
REMARK    4  A    between atoms: C_8  and  C_9
REMARK    5  A    between atoms: C_9  and  N_10
REMARK    6  A    between atoms: C_12  and  C_13
REMARK    7  A    between atoms: N_17  and  C_18
REMARK                            x       y       z     vdW  Elec       q    Type
REMARK                         _______ _______ _______ _____ _____    ______ ____
ROOT
ATOM      1  C   UNL     1       6.495   5.401  19.415  0.00  0.00    +0.000 C 
ENDROOT
BRANCH   1   2
ATOM      2  N   UNL     1       5.243   4.793  19.020  0.00  0.00    +0.000 N 
ATOM      3  N   UNL     1       5.008   3.442  19.081  0.00  0.00    +0.000 NA
ATOM      4  C   UNL     1       3.770   3.303  18.667  0.00  0.00    +0.000 A 
ATOM      5  N   UNL     1       3.183   4.475  18.324  0.00  0.00    +0.000 N 
ATOM      6  C   UNL     1       1.864   4.800  17.829  0.00  0.00    +0.000 C 
ATOM      7  C   UNL     1       4.120   5.454  18.543  0.00  0.00    +0.000 A 
ATOM      8  O   UNL     1       3.984   6.651  18.358  0.00  0.00    +0.000 OA
BRANCH   4   9
ATOM      9  C   UNL     1       3.090   1.941  18.591  0.00  0.00    +0.000 C 
ATOM     10  F   UNL     1       3.933   0.882  18.730  0.00  0.00    +0.000 F 
ATOM     11  F   UNL     1       2.143   1.790  19.559  0.00  0.00    +0.000 F 
ATOM     12  F   UNL     1       2.455   1.754  17.400  0.00  0.00    +0.000 F 
ENDBRANCH   4   9
ENDBRANCH   1   2
BRANCH   1  13
ATOM     13  C   UNL     1       7.654   5.037  18.482  0.00  0.00    +0.000 C 
BRANCH  13  16
ATOM     14  C   UNL     1       6.890   5.437  16.152  0.00  0.00    +0.000 C 
ATOM     15  O   UNL     1       6.897   6.658  16.284  0.00  0.00    +0.000 OA
ATOM     16  N   UNL     1       7.241   4.574  17.170  0.00  0.00    +0.000 N 
ATOM     17  H   UNL     1       7.141   3.582  16.984  0.00  0.00    +0.000 HD
BRANCH  14  21
ATOM     18  C   UNL     1       6.800   3.473  11.461  0.00  0.00    +0.000 C 
ATOM     19  C   UNL     1       6.590   3.950  12.840  0.00  0.00    +0.000 A 
ATOM     20  C   UNL     1       7.368   4.621  13.748  0.00  0.00    +0.000 A 
ATOM     21  C   UNL     1       6.537   4.784  14.887  0.00  0.00    +0.000 A 
ATOM     22  N   UNL     1       5.332   4.222  14.677  0.00  0.00    +0.000 NA
ATOM     23  O   UNL     1       5.371   3.708  13.391  0.00  0.00    +0.000 OA
ENDBRANCH  14  21
ENDBRANCH  13  16
ENDBRANCH   1  13
TORSDOF 5
ENDMDL
