MODEL 1
REMARK VINA RESULT:      -8.7      0.000      0.000
REMARK  Name = 
REMARK  4 active torsions:
REMARK  status: ('A' for Active; 'I' for Inactive)
REMARK    1  A    between atoms: C_1  and  C_2
REMARK    2  A    between atoms: C_4  and  N_5
REMARK    3  A    between atoms: N_5  and  N_6
REMARK    4  A    between atoms: C_7  and  C_8
REMARK                            x       y       z     vdW  Elec       q    Type
REMARK                         _______ _______ _______ _____ _____    ______ ____
ROOT
ATOM      1  C   UNL     1       1.308   3.245  20.902  0.00  0.00    +0.000 C 
ATOM      2  C   UNL     1       2.001   4.102  19.888  0.00  0.00    +0.000 A 
ATOM      3  C   UNL     1       1.882   5.482  19.916  0.00  0.00    +0.000 A 
ATOM      4  C   UNL     1       2.575   6.271  18.984  0.00  0.00    +0.000 A 
ATOM      5  C   UNL     1       3.428   5.614  18.050  0.00  0.00    +0.000 A 
ATOM      6  C   UNL     1       4.252   6.273  17.098  0.00  0.00    +0.000 A 
ATOM      7  C   UNL     1       5.092   5.520  16.301  0.00  0.00    +0.000 A 
ATOM      8  C   UNL     1       5.114   4.151  16.384  0.00  0.00    +0.000 A 
ATOM      9  C   UNL     1       4.303   3.474  17.259  0.00  0.00    +0.000 A 
ATOM     10  C   UNL     1       3.471   4.186  18.110  0.00  0.00    +0.000 A 
ATOM     11  N   UNL     1       2.769   3.463  18.985  0.00  0.00    +0.000 NA
ATOM     12  O   UNL     1       6.024   3.590  15.543  0.00  0.00    +0.000 OA
ATOM     13  C   UNL     1       6.633   4.769  14.982  0.00  0.00    +0.000 C 
ATOM     14  O   UNL     1       5.984   5.994  15.392  0.00  0.00    +0.000 OA
ENDROOT
BRANCH   4  15
ATOM     15  N   UNL     1       2.534   7.688  19.098  0.00  0.00    +0.000 N 
ATOM     16  H   UNL     1       2.753   8.216  18.258  0.00  0.00    +0.000 HD
BRANCH  15  17
ATOM     17  N   UNL     1       1.784   8.234  20.093  0.00  0.00    +0.000 NA
ATOM     18  C   UNL     1       1.013   9.223  19.778  0.00  0.00    +0.000 C 
BRANCH  18  19
ATOM     19  C   UNL     1       0.154   9.865  20.802  0.00  0.00    +0.000 A 
ATOM     20  C   UNL     1      -0.503  11.071  20.513  0.00  0.00    +0.000 A 
ATOM     21  C   UNL     1      -1.229  11.724  21.512  0.00  0.00    +0.000 A 
ATOM     22  C   UNL     1      -1.298  11.167  22.783  0.00  0.00    +0.000 A 
ATOM     23  F   UNL     1      -1.962  11.813  23.751  0.00  0.00    +0.000 F 
ATOM     24  C   UNL     1      -0.677   9.955  23.071  0.00  0.00    +0.000 A 
ATOM     25  C   UNL     1       0.051   9.294  22.075  0.00  0.00    +0.000 A 
ENDBRANCH  18  19
ENDBRANCH  15  17
ENDBRANCH   4  15
TORSDOF 3
ENDMDL
MODEL 2
REMARK VINA RESULT:      -8.7      0.410      1.072
REMARK  Name = 
REMARK  4 active torsions:
REMARK  status: ('A' for Active; 'I' for Inactive)
REMARK    1  A    between atoms: C_1  and  C_2
REMARK    2  A    between atoms: C_4  and  N_5
REMARK    3  A    between atoms: N_5  and  N_6
REMARK    4  A    between atoms: C_7  and  C_8
REMARK                            x       y       z     vdW  Elec       q    Type
REMARK                         _______ _______ _______ _____ _____    ______ ____
ROOT
ATOM      1  C   UNL     1       2.038   3.388  21.592  0.00  0.00    +0.000 C 
ATOM      2  C   UNL     1       2.489   4.202  20.418  0.00  0.00    +0.000 A 
ATOM      3  C   UNL     1       2.128   5.532  20.288  0.00  0.00    +0.000 A 
ATOM      4  C   UNL     1       2.597   6.291  19.204  0.00  0.00    +0.000 A 
ATOM      5  C   UNL     1       3.483   5.665  18.279  0.00  0.00    +0.000 A 
ATOM      6  C   UNL     1       4.102   6.315  17.179  0.00  0.00    +0.000 A 
ATOM      7  C   UNL     1       5.002   5.612  16.402  0.00  0.00    +0.000 A 
ATOM      8  C   UNL     1       5.275   4.291  16.649  0.00  0.00    +0.000 A 
ATOM      9  C   UNL     1       4.666   3.614  17.675  0.00  0.00    +0.000 A 
ATOM     10  C   UNL     1       3.785   4.286  18.509  0.00  0.00    +0.000 A 
ATOM     11  N   UNL     1       3.290   3.583  19.530  0.00  0.00    +0.000 NA
ATOM     12  O   UNL     1       6.206   3.780  15.799  0.00  0.00    +0.000 OA
ATOM     13  C   UNL     1       6.551   4.956  15.041  0.00  0.00    +0.000 C 
ATOM     14  O   UNL     1       5.725   6.100  15.360  0.00  0.00    +0.000 OA
ENDROOT
BRANCH   4  15
ATOM     15  N   UNL     1       2.312   7.683  19.147  0.00  0.00    +0.000 N 
ATOM     16  H   UNL     1       2.344   8.114  18.227  0.00  0.00    +0.000 HD
BRANCH  15  17
ATOM     17  N   UNL     1       1.580   8.233  20.153  0.00  0.00    +0.000 NA
ATOM     18  C   UNL     1       1.054   9.394  19.936  0.00  0.00    +0.000 C 
BRANCH  18  19
ATOM     19  C   UNL     1       0.233  10.057  20.979  0.00  0.00    +0.000 A 
ATOM     20  C   UNL     1       0.123   9.485  22.256  0.00  0.00    +0.000 A 
ATOM     21  C   UNL     1      -0.730  10.058  23.203  0.00  0.00    +0.000 A 
ATOM     22  C   UNL     1      -1.456  11.194  22.871  0.00  0.00    +0.000 A 
ATOM     23  F   UNL     1      -2.304  11.720  23.766  0.00  0.00    +0.000 F 
ATOM     24  C   UNL     1      -1.330  11.787  21.618  0.00  0.00    +0.000 A 
ATOM     25  C   UNL     1      -0.476  11.220  20.665  0.00  0.00    +0.000 A 
ENDBRANCH  18  19
ENDBRANCH  15  17
ENDBRANCH   4  15
TORSDOF 3
ENDMDL
MODEL 3
REMARK VINA RESULT:      -8.5      2.113      2.503
REMARK  Name = 
REMARK  4 active torsions:
REMARK  status: ('A' for Active; 'I' for Inactive)
REMARK    1  A    between atoms: C_1  and  C_2
REMARK    2  A    between atoms: C_4  and  N_5
REMARK    3  A    between atoms: N_5  and  N_6
REMARK    4  A    between atoms: C_7  and  C_8
REMARK                            x       y       z     vdW  Elec       q    Type
REMARK                         _______ _______ _______ _____ _____    ______ ____
ROOT
ATOM      1  C   UNL     1       1.746   4.215  20.916  0.00  0.00    +0.000 C 
ATOM      2  C   UNL     1       2.391   4.882  19.740  0.00  0.00    +0.000 A 
ATOM      3  C   UNL     1       2.224   6.236  19.503  0.00  0.00    +0.000 A 
ATOM      4  C   UNL     1       2.874   6.851  18.421  0.00  0.00    +0.000 A 
ATOM      5  C   UNL     1       3.734   6.053  17.612  0.00  0.00    +0.000 A 
ATOM      6  C   UNL     1       4.519   6.541  16.532  0.00  0.00    +0.000 A 
ATOM      7  C   UNL     1       5.372   5.675  15.877  0.00  0.00    +0.000 A 
ATOM      8  C   UNL     1       5.444   4.350  16.222  0.00  0.00    +0.000 A 
ATOM      9  C   UNL     1       4.672   3.829  17.230  0.00  0.00    +0.000 A 
ATOM     10  C   UNL     1       3.830   4.666  17.946  0.00  0.00    +0.000 A 
ATOM     11  N   UNL     1       3.167   4.104  18.960  0.00  0.00    +0.000 NA
ATOM     12  O   UNL     1       6.360   3.665  15.485  0.00  0.00    +0.000 OA
ATOM     13  C   UNL     1       6.918   4.732  14.693  0.00  0.00    +0.000 C 
ATOM     14  O   UNL     1       6.232   5.992  14.873  0.00  0.00    +0.000 OA
ENDROOT
BRANCH   4  15
ATOM     15  N   UNL     1       2.784   8.261  18.260  0.00  0.00    +0.000 N 
ATOM     16  H   UNL     1       3.649   8.748  18.040  0.00  0.00    +0.000 HD
BRANCH  15  17
ATOM     17  N   UNL     1       1.577   8.798  17.935  0.00  0.00    +0.000 NA
ATOM     18  C   UNL     1       1.078   9.669  18.750  0.00  0.00    +0.000 C 
BRANCH  18  19
ATOM     19  C   UNL     1      -0.229  10.309  18.462  0.00  0.00    +0.000 A 
ATOM     20  C   UNL     1      -0.636  11.435  19.193  0.00  0.00    +0.000 A 
ATOM     21  C   UNL     1      -1.909  11.974  18.988  0.00  0.00    +0.000 A 
ATOM     22  C   UNL     1      -2.757  11.390  18.056  0.00  0.00    +0.000 A 
ATOM     23  F   UNL     1      -3.992  11.883  17.887  0.00  0.00    +0.000 F 
ATOM     24  C   UNL     1      -2.351  10.293  17.302  0.00  0.00    +0.000 A 
ATOM     25  C   UNL     1      -1.076   9.748  17.501  0.00  0.00    +0.000 A 
ENDBRANCH  18  19
ENDBRANCH  15  17
ENDBRANCH   4  15
TORSDOF 3
ENDMDL
MODEL 4
REMARK VINA RESULT:      -8.4      2.195      2.603
REMARK  Name = 
REMARK  4 active torsions:
REMARK  status: ('A' for Active; 'I' for Inactive)
REMARK    1  A    between atoms: C_1  and  C_2
REMARK    2  A    between atoms: C_4  and  N_5
REMARK    3  A    between atoms: N_5  and  N_6
REMARK    4  A    between atoms: C_7  and  C_8
REMARK                            x       y       z     vdW  Elec       q    Type
REMARK                         _______ _______ _______ _____ _____    ______ ____
ROOT
ATOM      1  C   UNL     1       2.035   4.691  21.099  0.00  0.00    +0.000 C 
ATOM      2  C   UNL     1       2.620   5.245  19.836  0.00  0.00    +0.000 A 
ATOM      3  C   UNL     1       2.394   6.557  19.456  0.00  0.00    +0.000 A 
ATOM      4  C   UNL     1       2.988   7.070  18.292  0.00  0.00    +0.000 A 
ATOM      5  C   UNL     1       3.855   6.218  17.549  0.00  0.00    +0.000 A 
ATOM      6  C   UNL     1       4.589   6.609  16.397  0.00  0.00    +0.000 A 
ATOM      7  C   UNL     1       5.456   5.706  15.814  0.00  0.00    +0.000 A 
ATOM      8  C   UNL     1       5.590   4.431  16.301  0.00  0.00    +0.000 A 
ATOM      9  C   UNL     1       4.868   4.000  17.385  0.00  0.00    +0.000 A 
ATOM     10  C   UNL     1       4.014   4.880  18.031  0.00  0.00    +0.000 A 
ATOM     11  N   UNL     1       3.403   4.413  19.123  0.00  0.00    +0.000 NA
ATOM     12  O   UNL     1       6.510   3.701  15.615  0.00  0.00    +0.000 OA
ATOM     13  C   UNL     1       7.003   4.692  14.692  0.00  0.00    +0.000 C 
ATOM     14  O   UNL     1       6.274   5.939  14.754  0.00  0.00    +0.000 OA
ENDROOT
BRANCH   4  15
ATOM     15  N   UNL     1       2.838   8.449  17.979  0.00  0.00    +0.000 N 
ATOM     16  H   UNL     1       3.658   8.919  17.604  0.00  0.00    +0.000 HD
BRANCH  15  17
ATOM     17  N   UNL     1       1.587   8.924  17.737  0.00  0.00    +0.000 NA
ATOM     18  C   UNL     1       1.040   9.646  18.659  0.00  0.00    +0.000 C 
BRANCH  18  19
ATOM     19  C   UNL     1      -0.319  10.211  18.468  0.00  0.00    +0.000 A 
ATOM     20  C   UNL     1      -1.174   9.671  17.495  0.00  0.00    +0.000 A 
ATOM     21  C   UNL     1      -2.413  10.268  17.249  0.00  0.00    +0.000 A 
ATOM     22  C   UNL     1      -2.788  11.389  17.979  0.00  0.00    +0.000 A 
ATOM     23  F   UNL     1      -3.959  11.985  17.716  0.00  0.00    +0.000 F 
ATOM     24  C   UNL     1      -1.962  11.913  18.969  0.00  0.00    +0.000 A 
ATOM     25  C   UNL     1      -0.719  11.319  19.221  0.00  0.00    +0.000 A 
ENDBRANCH  18  19
ENDBRANCH  15  17
ENDBRANCH   4  15
TORSDOF 3
ENDMDL
MODEL 5
REMARK VINA RESULT:      -8.4      1.744      2.200
REMARK  Name = 
REMARK  4 active torsions:
REMARK  status: ('A' for Active; 'I' for Inactive)
REMARK    1  A    between atoms: C_1  and  C_2
REMARK    2  A    between atoms: C_4  and  N_5
REMARK    3  A    between atoms: N_5  and  N_6
REMARK    4  A    between atoms: C_7  and  C_8
REMARK                            x       y       z     vdW  Elec       q    Type
REMARK                         _______ _______ _______ _____ _____    ______ ____
ROOT
ATOM      1  C   UNL     1       1.566   2.826  21.500  0.00  0.00    +0.000 C 
ATOM      2  C   UNL     1       2.085   3.835  20.522  0.00  0.00    +0.000 A 
ATOM      3  C   UNL     1       1.946   5.193  20.751  0.00  0.00    +0.000 A 
ATOM      4  C   UNL     1       2.478   6.123  19.844  0.00  0.00    +0.000 A 
ATOM      5  C   UNL     1       3.196   5.627  18.717  0.00  0.00    +0.000 A 
ATOM      6  C   UNL     1       3.857   6.435  17.754  0.00  0.00    +0.000 A 
ATOM      7  C   UNL     1       4.584   5.826  16.751  0.00  0.00    +0.000 A 
ATOM      8  C   UNL     1       4.645   4.460  16.645  0.00  0.00    +0.000 A 
ATOM      9  C   UNL     1       3.986   3.644  17.528  0.00  0.00    +0.000 A 
ATOM     10  C   UNL     1       3.275   4.206  18.578  0.00  0.00    +0.000 A 
ATOM     11  N   UNL     1       2.724   3.348  19.440  0.00  0.00    +0.000 NA
ATOM     12  O   UNL     1       5.431   4.048  15.614  0.00  0.00    +0.000 OA
ATOM     13  C   UNL     1       5.928   5.313  15.134  0.00  0.00    +0.000 C 
ATOM     14  O   UNL     1       5.323   6.449  15.795  0.00  0.00    +0.000 OA
ENDROOT
BRANCH   4  15
ATOM     15  N   UNL     1       2.427   7.510  20.152  0.00  0.00    +0.000 N 
ATOM     16  H   UNL     1       3.314   8.005  20.162  0.00  0.00    +0.000 HD
BRANCH  15  17
ATOM     17  N   UNL     1       1.258   8.174  19.945  0.00  0.00    +0.000 NA
ATOM     18  C   UNL     1       1.317   9.291  19.296  0.00  0.00    +0.000 C 
BRANCH  18  19
ATOM     19  C   UNL     1       0.085  10.069  19.020  0.00  0.00    +0.000 A 
ATOM     20  C   UNL     1      -0.401  10.978  19.972  0.00  0.00    +0.000 A 
ATOM     21  C   UNL     1      -1.614  11.634  19.752  0.00  0.00    +0.000 A 
ATOM     22  C   UNL     1      -2.324  11.385  18.584  0.00  0.00    +0.000 A 
ATOM     23  F   UNL     1      -3.507  11.985  18.391  0.00  0.00    +0.000 F 
ATOM     24  C   UNL     1      -1.835  10.510  17.618  0.00  0.00    +0.000 A 
ATOM     25  C   UNL     1      -0.619   9.850  17.832  0.00  0.00    +0.000 A 
ENDBRANCH  18  19
ENDBRANCH  15  17
ENDBRANCH   4  15
TORSDOF 3
ENDMDL
MODEL 6
REMARK VINA RESULT:      -8.2      1.442      1.804
REMARK  Name = 
REMARK  4 active torsions:
REMARK  status: ('A' for Active; 'I' for Inactive)
REMARK    1  A    between atoms: C_1  and  C_2
REMARK    2  A    between atoms: C_4  and  N_5
REMARK    3  A    between atoms: N_5  and  N_6
REMARK    4  A    between atoms: C_7  and  C_8
REMARK                            x       y       z     vdW  Elec       q    Type
REMARK                         _______ _______ _______ _____ _____    ______ ____
ROOT
ATOM      1  C   UNL     1       1.129   2.753  20.788  0.00  0.00    +0.000 C 
ATOM      2  C   UNL     1       1.835   3.785  19.963  0.00  0.00    +0.000 A 
ATOM      3  C   UNL     1       1.857   5.116  20.345  0.00  0.00    +0.000 A 
ATOM      4  C   UNL     1       2.561   6.061  19.583  0.00  0.00    +0.000 A 
ATOM      5  C   UNL     1       3.279   5.601  18.440  0.00  0.00    +0.000 A 
ATOM      6  C   UNL     1       4.099   6.415  17.613  0.00  0.00    +0.000 A 
ATOM      7  C   UNL     1       4.803   5.829  16.581  0.00  0.00    +0.000 A 
ATOM      8  C   UNL     1       4.694   4.488  16.315  0.00  0.00    +0.000 A 
ATOM      9  C   UNL     1       3.881   3.675  17.062  0.00  0.00    +0.000 A 
ATOM     10  C   UNL     1       3.183   4.207  18.136  0.00  0.00    +0.000 A 
ATOM     11  N   UNL     1       2.473   3.341  18.863  0.00  0.00    +0.000 NA
ATOM     12  O   UNL     1       5.484   4.092  15.281  0.00  0.00    +0.000 OA
ATOM     13  C   UNL     1       6.170   5.323  14.980  0.00  0.00    +0.000 C 
ATOM     14  O   UNL     1       5.675   6.449  15.742  0.00  0.00    +0.000 OA
ENDROOT
BRANCH   4  15
ATOM     15  N   UNL     1       2.670   7.399  20.051  0.00  0.00    +0.000 N 
ATOM     16  H   UNL     1       3.580   7.839  19.955  0.00  0.00    +0.000 HD
BRANCH  15  17
ATOM     17  N   UNL     1       1.536   8.146  20.138  0.00  0.00    +0.000 NA
ATOM     18  C   UNL     1       1.376   9.083  19.262  0.00  0.00    +0.000 C 
BRANCH  18  19
ATOM     19  C   UNL     1       0.162   9.934  19.282  0.00  0.00    +0.000 A 
ATOM     20  C   UNL     1      -0.698   9.959  18.173  0.00  0.00    +0.000 A 
ATOM     21  C   UNL     1      -1.785  10.837  18.155  0.00  0.00    +0.000 A 
ATOM     22  C   UNL     1      -2.008  11.671  19.243  0.00  0.00    +0.000 A 
ATOM     23  F   UNL     1      -3.028  12.540  19.209  0.00  0.00    +0.000 F 
ATOM     24  C   UNL     1      -1.181  11.631  20.362  0.00  0.00    +0.000 A 
ATOM     25  C   UNL     1      -0.091  10.753  20.387  0.00  0.00    +0.000 A 
ENDBRANCH  18  19
ENDBRANCH  15  17
ENDBRANCH   4  15
TORSDOF 3
ENDMDL
MODEL 7
REMARK VINA RESULT:      -8.2      1.155      1.277
REMARK  Name = 
REMARK  4 active torsions:
REMARK  status: ('A' for Active; 'I' for Inactive)
REMARK    1  A    between atoms: C_1  and  C_2
REMARK    2  A    between atoms: C_4  and  N_5
REMARK    3  A    between atoms: N_5  and  N_6
REMARK    4  A    between atoms: C_7  and  C_8
REMARK                            x       y       z     vdW  Elec       q    Type
REMARK                         _______ _______ _______ _____ _____    ______ ____
ROOT
ATOM      1  C   UNL     1       0.482   2.353  18.900  0.00  0.00    +0.000 C 
ATOM      2  C   UNL     1       1.536   3.375  18.598  0.00  0.00    +0.000 A 
ATOM      3  C   UNL     1       1.692   4.499  19.390  0.00  0.00    +0.000 A 
ATOM      4  C   UNL     1       2.714   5.422  19.118  0.00  0.00    +0.000 A 
ATOM      5  C   UNL     1       3.601   5.142  18.038  0.00  0.00    +0.000 A 
ATOM      6  C   UNL     1       4.726   5.934  17.683  0.00  0.00    +0.000 A 
ATOM      7  C   UNL     1       5.552   5.508  16.661  0.00  0.00    +0.000 A 
ATOM      8  C   UNL     1       5.282   4.362  15.958  0.00  0.00    +0.000 A 
ATOM      9  C   UNL     1       4.182   3.593  16.239  0.00  0.00    +0.000 A 
ATOM     10  C   UNL     1       3.344   3.954  17.284  0.00  0.00    +0.000 A 
ATOM     11  N   UNL     1       2.339   3.116  17.547  0.00  0.00    +0.000 NA
ATOM     12  O   UNL     1       6.222   4.094  15.012  0.00  0.00    +0.000 OA
ATOM     13  C   UNL     1       7.162   5.158  15.258  0.00  0.00    +0.000 C 
ATOM     14  O   UNL     1       6.697   6.110  16.243  0.00  0.00    +0.000 OA
ENDROOT
BRANCH   4  15
ATOM     15  N   UNL     1       2.933   6.509  20.008  0.00  0.00    +0.000 N 
ATOM     16  H   UNL     1       3.889   6.654  20.319  0.00  0.00    +0.000 HD
BRANCH  15  17
ATOM     17  N   UNL     1       2.032   7.528  20.015  0.00  0.00    +0.000 NA
ATOM     18  C   UNL     1       1.589   7.919  21.165  0.00  0.00    +0.000 C 
BRANCH  18  19
ATOM     19  C   UNL     1       0.613   9.033  21.258  0.00  0.00    +0.000 A 
ATOM     20  C   UNL     1       0.209   9.712  20.099  0.00  0.00    +0.000 A 
ATOM     21  C   UNL     1      -0.632  10.823  20.202  0.00  0.00    +0.000 A 
ATOM     22  C   UNL     1      -1.065  11.239  21.454  0.00  0.00    +0.000 A 
ATOM     23  F   UNL     1      -1.841  12.328  21.556  0.00  0.00    +0.000 F 
ATOM     24  C   UNL     1      -0.697  10.553  22.608  0.00  0.00    +0.000 A 
ATOM     25  C   UNL     1       0.145   9.438  22.512  0.00  0.00    +0.000 A 
ENDBRANCH  18  19
ENDBRANCH  15  17
ENDBRANCH   4  15
TORSDOF 3
ENDMDL
MODEL 8
REMARK VINA RESULT:      -8.1      1.293      1.717
REMARK  Name = 
REMARK  4 active torsions:
REMARK  status: ('A' for Active; 'I' for Inactive)
REMARK    1  A    between atoms: C_1  and  C_2
REMARK    2  A    between atoms: C_4  and  N_5
REMARK    3  A    between atoms: N_5  and  N_6
REMARK    4  A    between atoms: C_7  and  C_8
REMARK                            x       y       z     vdW  Elec       q    Type
REMARK                         _______ _______ _______ _____ _____    ______ ____
ROOT
ATOM      1  C   UNL     1       0.580   2.334  19.083  0.00  0.00    +0.000 C 
ATOM      2  C   UNL     1       1.604   3.368  18.731  0.00  0.00    +0.000 A 
ATOM      3  C   UNL     1       1.716   4.542  19.457  0.00  0.00    +0.000 A 
ATOM      4  C   UNL     1       2.712   5.479  19.140  0.00  0.00    +0.000 A 
ATOM      5  C   UNL     1       3.620   5.164  18.087  0.00  0.00    +0.000 A 
ATOM      6  C   UNL     1       4.724   5.969  17.697  0.00  0.00    +0.000 A 
ATOM      7  C   UNL     1       5.574   5.510  16.710  0.00  0.00    +0.000 A 
ATOM      8  C   UNL     1       5.348   4.316  16.074  0.00  0.00    +0.000 A 
ATOM      9  C   UNL     1       4.270   3.530  16.390  0.00  0.00    +0.000 A 
ATOM     10  C   UNL     1       3.409   3.926  17.403  0.00  0.00    +0.000 A 
ATOM     11  N   UNL     1       2.427   3.074  17.705  0.00  0.00    +0.000 NA
ATOM     12  O   UNL     1       6.307   4.022  15.155  0.00  0.00    +0.000 OA
ATOM     13  C   UNL     1       7.211   5.129  15.347  0.00  0.00    +0.000 C 
ATOM     14  O   UNL     1       6.705   6.122  16.268  0.00  0.00    +0.000 OA
ENDROOT
BRANCH   4  15
ATOM     15  N   UNL     1       2.886   6.623  19.966  0.00  0.00    +0.000 N 
ATOM     16  H   UNL     1       3.779   6.705  20.444  0.00  0.00    +0.000 HD
BRANCH  15  17
ATOM     17  N   UNL     1       2.123   7.721  19.716  0.00  0.00    +0.000 NA
ATOM     18  C   UNL     1       1.430   8.196  20.699  0.00  0.00    +0.000 C 
BRANCH  18  19
ATOM     19  C   UNL     1       0.581   9.397  20.512  0.00  0.00    +0.000 A 
ATOM     20  C   UNL     1       0.096  10.097  21.628  0.00  0.00    +0.000 A 
ATOM     21  C   UNL     1      -0.784  11.167  21.449  0.00  0.00    +0.000 A 
ATOM     22  C   UNL     1      -1.165  11.532  20.165  0.00  0.00    +0.000 A 
ATOM     23  F   UNL     1      -2.039  12.534  19.996  0.00  0.00    +0.000 F 
ATOM     24  C   UNL     1      -0.664  10.867  19.049  0.00  0.00    +0.000 A 
ATOM     25  C   UNL     1       0.219   9.794  19.221  0.00  0.00    +0.000 A 
ENDBRANCH  18  19
ENDBRANCH  15  17
ENDBRANCH   4  15
TORSDOF 3
ENDMDL
MODEL 9
REMARK VINA RESULT:      -7.9      1.303      1.583
REMARK  Name = 
REMARK  4 active torsions:
REMARK  status: ('A' for Active; 'I' for Inactive)
REMARK    1  A    between atoms: C_1  and  C_2
REMARK    2  A    between atoms: C_4  and  N_5
REMARK    3  A    between atoms: N_5  and  N_6
REMARK    4  A    between atoms: C_7  and  C_8
REMARK                            x       y       z     vdW  Elec       q    Type
REMARK                         _______ _______ _______ _____ _____    ______ ____
ROOT
ATOM      1  C   UNL     1       1.636   4.144  20.819  0.00  0.00    +0.000 C 
ATOM      2  C   UNL     1       2.312   4.812  19.661  0.00  0.00    +0.000 A 
ATOM      3  C   UNL     1       2.148   6.165  19.418  0.00  0.00    +0.000 A 
ATOM      4  C   UNL     1       2.826   6.782  18.355  0.00  0.00    +0.000 A 
ATOM      5  C   UNL     1       3.711   5.986  17.571  0.00  0.00    +0.000 A 
ATOM      6  C   UNL     1       4.523   6.475  16.513  0.00  0.00    +0.000 A 
ATOM      7  C   UNL     1       5.397   5.611  15.883  0.00  0.00    +0.000 A 
ATOM      8  C   UNL     1       5.463   4.286  16.230  0.00  0.00    +0.000 A 
ATOM      9  C   UNL     1       4.665   3.764  17.216  0.00  0.00    +0.000 A 
ATOM     10  C   UNL     1       3.800   4.599  17.908  0.00  0.00    +0.000 A 
ATOM     11  N   UNL     1       3.112   4.036  18.904  0.00  0.00    +0.000 NA
ATOM     12  O   UNL     1       6.401   3.604  15.520  0.00  0.00    +0.000 OA
ATOM     13  C   UNL     1       6.978   4.672  14.743  0.00  0.00    +0.000 C 
ATOM     14  O   UNL     1       6.284   5.930  14.903  0.00  0.00    +0.000 OA
ENDROOT
BRANCH   4  15
ATOM     15  N   UNL     1       2.736   8.191  18.190  0.00  0.00    +0.000 N 
ATOM     16  H   UNL     1       3.125   8.572  17.332  0.00  0.00    +0.000 HD
BRANCH  15  17
ATOM     17  N   UNL     1       1.777   8.862  18.882  0.00  0.00    +0.000 NA
ATOM     18  C   UNL     1       1.006   9.653  18.210  0.00  0.00    +0.000 C 
BRANCH  18  19
ATOM     19  C   UNL     1      -0.073  10.412  18.889  0.00  0.00    +0.000 A 
ATOM     20  C   UNL     1      -1.066  11.052  18.133  0.00  0.00    +0.000 A 
ATOM     21  C   UNL     1      -2.022  11.847  18.770  0.00  0.00    +0.000 A 
ATOM     22  C   UNL     1      -1.981  11.991  20.151  0.00  0.00    +0.000 A 
ATOM     23  F   UNL     1      -2.874  12.785  20.758  0.00  0.00    +0.000 F 
ATOM     24  C   UNL     1      -1.020  11.334  20.914  0.00  0.00    +0.000 A 
ATOM     25  C   UNL     1      -0.060  10.534  20.282  0.00  0.00    +0.000 A 
ENDBRANCH  18  19
ENDBRANCH  15  17
ENDBRANCH   4  15
TORSDOF 3
ENDMDL
