MODEL 1
REMARK VINA RESULT:      -7.6      0.000      0.000
REMARK  Name = 
REMARK  10 active torsions:
REMARK  status: ('A' for Active; 'I' for Inactive)
REMARK    1  A    between atoms: C_1  and  C_2
REMARK    2  A    between atoms: C_2  and  C_3
REMARK    3  A    between atoms: C_3  and  C_4
REMARK    4  A    between atoms: C_10  and  C_11
REMARK    5  A    between atoms: C_11  and  S_12
REMARK    6  A    between atoms: S_12  and  C_13
REMARK    7  A    between atoms: C_13  and  C_14
REMARK    8  A    between atoms: N_16  and  C_17
REMARK    9  A    between atoms: C_21  and  O_22
REMARK   10  A    between atoms: O_22  and  C_23
REMARK                            x       y       z     vdW  Elec       q    Type
REMARK                         _______ _______ _______ _____ _____    ______ ____
ROOT
ATOM      1  C   UNL     1       2.974   5.353  19.961  0.00  0.00    +0.000 C 
ENDROOT
BRANCH   1   8
ATOM      2  C   UNL     1      -0.005  10.527  20.755  0.00  0.00    +0.000 A 
ATOM      3  N   UNL     1       0.594  10.392  19.614  0.00  0.00    +0.000 NA
ATOM      4  N   UNL     1       1.199   9.158  19.572  0.00  0.00    +0.000 N 
ATOM      5  C   UNL     1       1.888   8.726  18.462  0.00  0.00    +0.000 A 
ATOM      6  O   UNL     1       2.048   9.336  17.409  0.00  0.00    +0.000 OA
ATOM      7  C   UNL     1       2.474   7.378  18.620  0.00  0.00    +0.000 A 
ATOM      8  C   UNL     1       2.320   6.712  19.778  0.00  0.00    +0.000 A 
ATOM      9  N   UNL     1       1.576   7.190  20.841  0.00  0.00    +0.000 NA
ATOM     10  C   UNL     1       1.072   8.369  20.684  0.00  0.00    +0.000 A 
ATOM     11  S   UNL     1       0.114   9.190  21.876  0.00  0.00    +0.000 S 
BRANCH   2  12
ATOM     12  C   UNL     1      -0.763  11.761  21.148  0.00  0.00    +0.000 C 
BRANCH  12  14
ATOM     13  C   UNL     1      -2.364  11.979  23.089  0.00  0.00    +0.000 C 
ATOM     14  C   UNL     1      -0.910  11.841  22.667  0.00  0.00    +0.000 C 
ENDBRANCH  12  14
ENDBRANCH   2  12
ENDBRANCH   1   8
BRANCH   1  15
ATOM     15  S   UNL     1       1.654   4.078  20.060  0.00  0.00    +0.000 S 
BRANCH  15  16
ATOM     16  C   UNL     1       2.404   2.751  19.066  0.00  0.00    +0.000 C 
BRANCH  16  17
ATOM     17  C   UNL     1       3.062   3.308  17.816  0.00  0.00    +0.000 C 
ATOM     18  O   UNL     1       2.360   3.696  16.882  0.00  0.00    +0.000 OA
ATOM     19  N   UNL     1       4.448   3.340  17.857  0.00  0.00    +0.000 N 
ATOM     20  H   UNL     1       4.907   2.844  18.612  0.00  0.00    +0.000 HD
BRANCH  19  21
ATOM     21  C   UNL     1       5.292   3.917  16.876  0.00  0.00    +0.000 A 
ATOM     22  C   UNL     1       5.470   3.349  15.612  0.00  0.00    +0.000 A 
ATOM     23  C   UNL     1       6.323   3.936  14.681  0.00  0.00    +0.000 A 
ATOM     24  C   UNL     1       7.006   5.101  15.008  0.00  0.00    +0.000 A 
ATOM     25  C   UNL     1       6.829   5.700  16.255  0.00  0.00    +0.000 A 
ATOM     26  C   UNL     1       5.958   5.116  17.184  0.00  0.00    +0.000 A 
BRANCH  25  27
ATOM     27  O   UNL     1       7.570   6.836  16.437  0.00  0.00    +0.000 OA
ATOM     28  C   UNL     1       7.724   7.310  17.766  0.00  0.00    +0.000 C 
ENDBRANCH  25  27
ENDBRANCH  19  21
ENDBRANCH  16  17
ENDBRANCH  15  16
ENDBRANCH   1  15
TORSDOF 8
ENDMDL
MODEL 2
REMARK VINA RESULT:      -7.0      1.242      1.390
REMARK  Name = 
REMARK  10 active torsions:
REMARK  status: ('A' for Active; 'I' for Inactive)
REMARK    1  A    between atoms: C_1  and  C_2
REMARK    2  A    between atoms: C_2  and  C_3
REMARK    3  A    between atoms: C_3  and  C_4
REMARK    4  A    between atoms: C_10  and  C_11
REMARK    5  A    between atoms: C_11  and  S_12
REMARK    6  A    between atoms: S_12  and  C_13
REMARK    7  A    between atoms: C_13  and  C_14
REMARK    8  A    between atoms: N_16  and  C_17
REMARK    9  A    between atoms: C_21  and  O_22
REMARK   10  A    between atoms: O_22  and  C_23
REMARK                            x       y       z     vdW  Elec       q    Type
REMARK                         _______ _______ _______ _____ _____    ______ ____
ROOT
ATOM      1  C   UNL     1       2.533   5.103  20.393  0.00  0.00    +0.000 C 
ENDROOT
BRANCH   1   8
ATOM      2  C   UNL     1       0.488  10.768  20.396  0.00  0.00    +0.000 A 
ATOM      3  N   UNL     1       1.070  10.381  19.306  0.00  0.00    +0.000 NA
ATOM      4  N   UNL     1       1.452   9.068  19.447  0.00  0.00    +0.000 N 
ATOM      5  C   UNL     1       2.071   8.379  18.429  0.00  0.00    +0.000 A 
ATOM      6  O   UNL     1       2.350   8.807  17.312  0.00  0.00    +0.000 OA
ATOM      7  C   UNL     1       2.411   6.985  18.782  0.00  0.00    +0.000 A 
ATOM      8  C   UNL     1       2.128   6.517  20.011  0.00  0.00    +0.000 A 
ATOM      9  N   UNL     1       1.464   7.253  20.975  0.00  0.00    +0.000 NA
ATOM     10  C   UNL     1       1.174   8.469  20.647  0.00  0.00    +0.000 A 
ATOM     11  S   UNL     1       0.357   9.594  21.686  0.00  0.00    +0.000 S 
BRANCH   2  12
ATOM     12  C   UNL     1      -0.049  12.155  20.598  0.00  0.00    +0.000 C 
BRANCH  12  14
ATOM     13  C   UNL     1      -2.231  12.285  19.331  0.00  0.00    +0.000 C 
ATOM     14  C   UNL     1      -0.754  12.648  19.335  0.00  0.00    +0.000 C 
ENDBRANCH  12  14
ENDBRANCH   2  12
ENDBRANCH   1   8
BRANCH   1  15
ATOM     15  S   UNL     1       1.197   3.952  19.875  0.00  0.00    +0.000 S 
BRANCH  15  16
ATOM     16  C   UNL     1       2.186   2.610  19.146  0.00  0.00    +0.000 C 
BRANCH  16  17
ATOM     17  C   UNL     1       3.593   3.079  18.823  0.00  0.00    +0.000 C 
ATOM     18  O   UNL     1       4.532   2.710  19.528  0.00  0.00    +0.000 OA
ATOM     19  N   UNL     1       3.688   3.901  17.710  0.00  0.00    +0.000 N 
ATOM     20  H   UNL     1       2.825   4.259  17.317  0.00  0.00    +0.000 HD
BRANCH  19  21
ATOM     21  C   UNL     1       4.891   4.375  17.132  0.00  0.00    +0.000 A 
ATOM     22  C   UNL     1       5.331   3.961  15.872  0.00  0.00    +0.000 A 
ATOM     23  C   UNL     1       6.529   4.436  15.344  0.00  0.00    +0.000 A 
ATOM     24  C   UNL     1       7.300   5.331  16.076  0.00  0.00    +0.000 A 
ATOM     25  C   UNL     1       6.872   5.776  17.327  0.00  0.00    +0.000 A 
ATOM     26  C   UNL     1       5.658   5.310  17.848  0.00  0.00    +0.000 A 
BRANCH  25  27
ATOM     27  O   UNL     1       7.735   6.650  17.931  0.00  0.00    +0.000 OA
ATOM     28  C   UNL     1       7.676   8.010  17.529  0.00  0.00    +0.000 C 
ENDBRANCH  25  27
ENDBRANCH  19  21
ENDBRANCH  16  17
ENDBRANCH  15  16
ENDBRANCH   1  15
TORSDOF 8
ENDMDL
MODEL 3
REMARK VINA RESULT:      -6.9      2.726      7.036
REMARK  Name = 
REMARK  10 active torsions:
REMARK  status: ('A' for Active; 'I' for Inactive)
REMARK    1  A    between atoms: C_1  and  C_2
REMARK    2  A    between atoms: C_2  and  C_3
REMARK    3  A    between atoms: C_3  and  C_4
REMARK    4  A    between atoms: C_10  and  C_11
REMARK    5  A    between atoms: C_11  and  S_12
REMARK    6  A    between atoms: S_12  and  C_13
REMARK    7  A    between atoms: C_13  and  C_14
REMARK    8  A    between atoms: N_16  and  C_17
REMARK    9  A    between atoms: C_21  and  O_22
REMARK   10  A    between atoms: O_22  and  C_23
REMARK                            x       y       z     vdW  Elec       q    Type
REMARK                         _______ _______ _______ _____ _____    ______ ____
ROOT
ATOM      1  C   UNL     1       4.668   2.559  16.953  0.00  0.00    +0.000 C 
ENDROOT
BRANCH   1   8
ATOM      2  C   UNL     1       7.839   7.536  18.156  0.00  0.00    +0.000 A 
ATOM      3  N   UNL     1       7.049   7.606  17.131  0.00  0.00    +0.000 NA
ATOM      4  N   UNL     1       6.378   6.414  17.005  0.00  0.00    +0.000 N 
ATOM      5  C   UNL     1       5.444   6.209  16.015  0.00  0.00    +0.000 A 
ATOM      6  O   UNL     1       5.089   7.013  15.157  0.00  0.00    +0.000 OA
ATOM      7  C   UNL     1       4.843   4.859  16.041  0.00  0.00    +0.000 A 
ATOM      8  C   UNL     1       5.242   3.965  16.964  0.00  0.00    +0.000 A 
ATOM      9  N   UNL     1       6.158   4.253  17.960  0.00  0.00    +0.000 NA
ATOM     10  C   UNL     1       6.670   5.438  17.920  0.00  0.00    +0.000 A 
ATOM     11  S   UNL     1       7.849   6.032  19.048  0.00  0.00    +0.000 S 
BRANCH   2  12
ATOM     12  C   UNL     1       8.736   8.661  18.585  0.00  0.00    +0.000 C 
BRANCH  12  14
ATOM     13  C   UNL     1       9.411  11.039  18.066  0.00  0.00    +0.000 C 
ATOM     14  C   UNL     1       8.370   9.951  17.853  0.00  0.00    +0.000 C 
ENDBRANCH  12  14
ENDBRANCH   2  12
ENDBRANCH   1   8
BRANCH   1  15
ATOM     15  S   UNL     1       3.051   2.580  17.825  0.00  0.00    +0.000 S 
BRANCH  15  16
ATOM     16  C   UNL     1       3.427   3.727  19.187  0.00  0.00    +0.000 C 
BRANCH  16  17
ATOM     17  C   UNL     1       2.426   4.867  19.236  0.00  0.00    +0.000 C 
ATOM     18  O   UNL     1       1.252   4.633  19.520  0.00  0.00    +0.000 OA
ATOM     19  N   UNL     1       2.960   6.118  18.956  0.00  0.00    +0.000 N 
ATOM     20  H   UNL     1       3.900   6.153  18.580  0.00  0.00    +0.000 HD
BRANCH  19  21
ATOM     21  C   UNL     1       2.270   7.351  19.050  0.00  0.00    +0.000 A 
ATOM     22  C   UNL     1       2.095   8.198  17.952  0.00  0.00    +0.000 A 
ATOM     23  C   UNL     1       1.427   9.412  18.087  0.00  0.00    +0.000 A 
ATOM     24  C   UNL     1       0.925   9.790  19.327  0.00  0.00    +0.000 A 
ATOM     25  C   UNL     1       1.068   8.953  20.434  0.00  0.00    +0.000 A 
ATOM     26  C   UNL     1       1.726   7.725  20.291  0.00  0.00    +0.000 A 
BRANCH  25  27
ATOM     27  O   UNL     1       0.531   9.459  21.587  0.00  0.00    +0.000 OA
ATOM     28  C   UNL     1       0.129  10.820  21.578  0.00  0.00    +0.000 C 
ENDBRANCH  25  27
ENDBRANCH  19  21
ENDBRANCH  16  17
ENDBRANCH  15  16
ENDBRANCH   1  15
TORSDOF 8
ENDMDL
MODEL 4
REMARK VINA RESULT:      -6.8      1.978      2.337
REMARK  Name = 
REMARK  10 active torsions:
REMARK  status: ('A' for Active; 'I' for Inactive)
REMARK    1  A    between atoms: C_1  and  C_2
REMARK    2  A    between atoms: C_2  and  C_3
REMARK    3  A    between atoms: C_3  and  C_4
REMARK    4  A    between atoms: C_10  and  C_11
REMARK    5  A    between atoms: C_11  and  S_12
REMARK    6  A    between atoms: S_12  and  C_13
REMARK    7  A    between atoms: C_13  and  C_14
REMARK    8  A    between atoms: N_16  and  C_17
REMARK    9  A    between atoms: C_21  and  O_22
REMARK   10  A    between atoms: O_22  and  C_23
REMARK                            x       y       z     vdW  Elec       q    Type
REMARK                         _______ _______ _______ _____ _____    ______ ____
ROOT
ATOM      1  C   UNL     1       2.360   6.879  19.841  0.00  0.00    +0.000 C 
ENDROOT
BRANCH   1   8
ATOM      2  C   UNL     1      -0.748  12.013  20.341  0.00  0.00    +0.000 A 
ATOM      3  N   UNL     1      -0.452  11.424  21.456  0.00  0.00    +0.000 NA
ATOM      4  N   UNL     1       0.277  10.292  21.181  0.00  0.00    +0.000 N 
ATOM      5  C   UNL     1       0.758   9.478  22.182  0.00  0.00    +0.000 A 
ATOM      6  O   UNL     1       0.620   9.637  23.392  0.00  0.00    +0.000 OA
ATOM      7  C   UNL     1       1.507   8.307  21.681  0.00  0.00    +0.000 A 
ATOM      8  C   UNL     1       1.643   8.114  20.356  0.00  0.00    +0.000 A 
ATOM      9  N   UNL     1       1.169   8.999  19.404  0.00  0.00    +0.000 NA
ATOM     10  C   UNL     1       0.519  10.016  19.862  0.00  0.00    +0.000 A 
ATOM     11  S   UNL     1      -0.184  11.255  18.869  0.00  0.00    +0.000 S 
BRANCH   2  12
ATOM     12  C   UNL     1      -1.550  13.279  20.264  0.00  0.00    +0.000 C 
BRANCH  12  14
ATOM     13  C   UNL     1      -3.261  13.775  22.055  0.00  0.00    +0.000 C 
ATOM     14  C   UNL     1      -2.978  13.042  20.753  0.00  0.00    +0.000 C 
ENDBRANCH  12  14
ENDBRANCH   2  12
ENDBRANCH   1   8
BRANCH   1  15
ATOM     15  S   UNL     1       1.648   5.401  20.671  0.00  0.00    +0.000 S 
BRANCH  15  16
ATOM     16  C   UNL     1       1.915   4.142  19.383  0.00  0.00    +0.000 C 
BRANCH  16  17
ATOM     17  C   UNL     1       3.339   4.187  18.861  0.00  0.00    +0.000 C 
ATOM     18  O   UNL     1       4.253   3.732  19.548  0.00  0.00    +0.000 OA
ATOM     19  N   UNL     1       3.475   4.748  17.599  0.00  0.00    +0.000 N 
ATOM     20  H   UNL     1       2.673   5.229  17.211  0.00  0.00    +0.000 HD
BRANCH  19  21
ATOM     21  C   UNL     1       4.671   4.801  16.842  0.00  0.00    +0.000 A 
ATOM     22  C   UNL     1       4.995   3.837  15.883  0.00  0.00    +0.000 A 
ATOM     23  C   UNL     1       6.190   3.913  15.172  0.00  0.00    +0.000 A 
ATOM     24  C   UNL     1       7.073   4.958  15.414  0.00  0.00    +0.000 A 
ATOM     25  C   UNL     1       6.763   5.945  16.350  0.00  0.00    +0.000 A 
ATOM     26  C   UNL     1       5.553   5.875  17.053  0.00  0.00    +0.000 A 
BRANCH  25  27
ATOM     27  O   UNL     1       7.728   6.906  16.486  0.00  0.00    +0.000 OA
ATOM     28  C   UNL     1       7.669   7.734  17.638  0.00  0.00    +0.000 C 
ENDBRANCH  25  27
ENDBRANCH  19  21
ENDBRANCH  16  17
ENDBRANCH  15  16
ENDBRANCH   1  15
TORSDOF 8
ENDMDL
MODEL 5
REMARK VINA RESULT:      -6.8      1.312      2.050
REMARK  Name = 
REMARK  10 active torsions:
REMARK  status: ('A' for Active; 'I' for Inactive)
REMARK    1  A    between atoms: C_1  and  C_2
REMARK    2  A    between atoms: C_2  and  C_3
REMARK    3  A    between atoms: C_3  and  C_4
REMARK    4  A    between atoms: C_10  and  C_11
REMARK    5  A    between atoms: C_11  and  S_12
REMARK    6  A    between atoms: S_12  and  C_13
REMARK    7  A    between atoms: C_13  and  C_14
REMARK    8  A    between atoms: N_16  and  C_17
REMARK    9  A    between atoms: C_21  and  O_22
REMARK   10  A    between atoms: O_22  and  C_23
REMARK                            x       y       z     vdW  Elec       q    Type
REMARK                         _______ _______ _______ _____ _____    ______ ____
ROOT
ATOM      1  C   UNL     1       2.953   5.408  19.989  0.00  0.00    +0.000 C 
ENDROOT
BRANCH   1   8
ATOM      2  C   UNL     1      -0.206  10.496  20.633  0.00  0.00    +0.000 A 
ATOM      3  N   UNL     1       0.468  10.388  19.532  0.00  0.00    +0.000 NA
ATOM      4  N   UNL     1       1.107   9.171  19.519  0.00  0.00    +0.000 N 
ATOM      5  C   UNL     1       1.877   8.768  18.452  0.00  0.00    +0.000 A 
ATOM      6  O   UNL     1       2.089   9.393  17.417  0.00  0.00    +0.000 OA
ATOM      7  C   UNL     1       2.487   7.433  18.636  0.00  0.00    +0.000 A 
ATOM      8  C   UNL     1       2.277   6.752  19.776  0.00  0.00    +0.000 A 
ATOM      9  N   UNL     1       1.454   7.200  20.793  0.00  0.00    +0.000 NA
ATOM     10  C   UNL     1       0.930   8.367  20.613  0.00  0.00    +0.000 A 
ATOM     11  S   UNL     1      -0.125   9.152  21.748  0.00  0.00    +0.000 S 
BRANCH   2  12
ATOM     12  C   UNL     1      -1.019  11.707  20.987  0.00  0.00    +0.000 C 
BRANCH  12  14
ATOM     13  C   UNL     1      -1.097  13.199  23.023  0.00  0.00    +0.000 C 
ATOM     14  C   UNL     1      -0.230  12.635  21.909  0.00  0.00    +0.000 C 
ENDBRANCH  12  14
ENDBRANCH   2  12
ENDBRANCH   1   8
BRANCH   1  15
ATOM     15  S   UNL     1       1.669   4.094  19.939  0.00  0.00    +0.000 S 
BRANCH  15  16
ATOM     16  C   UNL     1       1.728   3.646  18.176  0.00  0.00    +0.000 C 
BRANCH  16  17
ATOM     17  C   UNL     1       3.161   3.518  17.690  0.00  0.00    +0.000 C 
ATOM     18  O   UNL     1       3.797   2.495  17.939  0.00  0.00    +0.000 OA
ATOM     19  N   UNL     1       3.627   4.609  16.971  0.00  0.00    +0.000 N 
ATOM     20  H   UNL     1       3.062   5.450  16.976  0.00  0.00    +0.000 HD
BRANCH  19  21
ATOM     21  C   UNL     1       4.878   4.692  16.312  0.00  0.00    +0.000 A 
ATOM     22  C   UNL     1       5.959   5.402  16.842  0.00  0.00    +0.000 A 
ATOM     23  C   UNL     1       7.168   5.476  16.155  0.00  0.00    +0.000 A 
ATOM     24  C   UNL     1       7.307   4.837  14.928  0.00  0.00    +0.000 A 
ATOM     25  C   UNL     1       6.249   4.105  14.388  0.00  0.00    +0.000 A 
ATOM     26  C   UNL     1       5.040   4.018  15.089  0.00  0.00    +0.000 A 
BRANCH  25  27
ATOM     27  O   UNL     1       6.529   3.538  13.174  0.00  0.00    +0.000 OA
ATOM     28  C   UNL     1       5.463   3.431  12.242  0.00  0.00    +0.000 C 
ENDBRANCH  25  27
ENDBRANCH  19  21
ENDBRANCH  16  17
ENDBRANCH  15  16
ENDBRANCH   1  15
TORSDOF 8
ENDMDL
MODEL 6
REMARK VINA RESULT:      -6.8      1.071      1.147
REMARK  Name = 
REMARK  10 active torsions:
REMARK  status: ('A' for Active; 'I' for Inactive)
REMARK    1  A    between atoms: C_1  and  C_2
REMARK    2  A    between atoms: C_2  and  C_3
REMARK    3  A    between atoms: C_3  and  C_4
REMARK    4  A    between atoms: C_10  and  C_11
REMARK    5  A    between atoms: C_11  and  S_12
REMARK    6  A    between atoms: S_12  and  C_13
REMARK    7  A    between atoms: C_13  and  C_14
REMARK    8  A    between atoms: N_16  and  C_17
REMARK    9  A    between atoms: C_21  and  O_22
REMARK   10  A    between atoms: O_22  and  C_23
REMARK                            x       y       z     vdW  Elec       q    Type
REMARK                         _______ _______ _______ _____ _____    ______ ____
ROOT
ATOM      1  C   UNL     1       2.835   5.749  19.989  0.00  0.00    +0.000 C 
ENDROOT
BRANCH   1   8
ATOM      2  C   UNL     1      -0.156  10.906  20.840  0.00  0.00    +0.000 A 
ATOM      3  N   UNL     1       0.437  10.782  19.695  0.00  0.00    +0.000 NA
ATOM      4  N   UNL     1       1.046   9.551  19.640  0.00  0.00    +0.000 N 
ATOM      5  C   UNL     1       1.731   9.130  18.523  0.00  0.00    +0.000 A 
ATOM      6  O   UNL     1       1.885   9.750  17.475  0.00  0.00    +0.000 OA
ATOM      7  C   UNL     1       2.322   7.783  18.667  0.00  0.00    +0.000 A 
ATOM      8  C   UNL     1       2.177   7.107  19.821  0.00  0.00    +0.000 A 
ATOM      9  N   UNL     1       1.436   7.574  20.892  0.00  0.00    +0.000 NA
ATOM     10  C   UNL     1       0.927   8.752  20.746  0.00  0.00    +0.000 A 
ATOM     11  S   UNL     1      -0.028   9.561  21.950  0.00  0.00    +0.000 S 
BRANCH   2  12
ATOM     12  C   UNL     1      -0.916  12.135  21.247  0.00  0.00    +0.000 C 
BRANCH  12  14
ATOM     13  C   UNL     1      -0.509  14.348  22.395  0.00  0.00    +0.000 C 
ATOM     14  C   UNL     1       0.030  13.324  21.408  0.00  0.00    +0.000 C 
ENDBRANCH  12  14
ENDBRANCH   2  12
ENDBRANCH   1   8
BRANCH   1  15
ATOM     15  S   UNL     1       1.547   4.449  19.820  0.00  0.00    +0.000 S 
BRANCH  15  16
ATOM     16  C   UNL     1       2.582   3.015  19.391  0.00  0.00    +0.000 C 
BRANCH  16  17
ATOM     17  C   UNL     1       3.932   3.455  18.854  0.00  0.00    +0.000 C 
ATOM     18  O   UNL     1       4.950   3.227  19.507  0.00  0.00    +0.000 OA
ATOM     19  N   UNL     1       3.885   4.085  17.618  0.00  0.00    +0.000 N 
ATOM     20  H   UNL     1       2.975   4.355  17.264  0.00  0.00    +0.000 HD
BRANCH  19  21
ATOM     21  C   UNL     1       5.005   4.484  16.850  0.00  0.00    +0.000 A 
ATOM     22  C   UNL     1       5.500   3.717  15.791  0.00  0.00    +0.000 A 
ATOM     23  C   UNL     1       6.616   4.133  15.070  0.00  0.00    +0.000 A 
ATOM     24  C   UNL     1       7.249   5.325  15.403  0.00  0.00    +0.000 A 
ATOM     25  C   UNL     1       6.763   6.119  16.442  0.00  0.00    +0.000 A 
ATOM     26  C   UNL     1       5.630   5.706  17.155  0.00  0.00    +0.000 A 
BRANCH  25  27
ATOM     27  O   UNL     1       7.490   7.257  16.659  0.00  0.00    +0.000 OA
ATOM     28  C   UNL     1       7.932   7.508  17.985  0.00  0.00    +0.000 C 
ENDBRANCH  25  27
ENDBRANCH  19  21
ENDBRANCH  16  17
ENDBRANCH  15  16
ENDBRANCH   1  15
TORSDOF 8
ENDMDL
MODEL 7
REMARK VINA RESULT:      -6.7      1.285      1.492
REMARK  Name = 
REMARK  10 active torsions:
REMARK  status: ('A' for Active; 'I' for Inactive)
REMARK    1  A    between atoms: C_1  and  C_2
REMARK    2  A    between atoms: C_2  and  C_3
REMARK    3  A    between atoms: C_3  and  C_4
REMARK    4  A    between atoms: C_10  and  C_11
REMARK    5  A    between atoms: C_11  and  S_12
REMARK    6  A    between atoms: S_12  and  C_13
REMARK    7  A    between atoms: C_13  and  C_14
REMARK    8  A    between atoms: N_16  and  C_17
REMARK    9  A    between atoms: C_21  and  O_22
REMARK   10  A    between atoms: O_22  and  C_23
REMARK                            x       y       z     vdW  Elec       q    Type
REMARK                         _______ _______ _______ _____ _____    ______ ____
ROOT
ATOM      1  C   UNL     1       2.472   6.596  19.907  0.00  0.00    +0.000 C 
ENDROOT
BRANCH   1   8
ATOM      2  C   UNL     1      -0.579  11.281  22.144  0.00  0.00    +0.000 A 
ATOM      3  N   UNL     1      -0.124  11.430  20.941  0.00  0.00    +0.000 NA
ATOM      4  N   UNL     1       0.518  10.275  20.562  0.00  0.00    +0.000 N 
ATOM      5  C   UNL     1       1.078  10.133  19.314  0.00  0.00    +0.000 A 
ATOM      6  O   UNL     1       1.082  10.962  18.408  0.00  0.00    +0.000 OA
ATOM      7  C   UNL     1       1.731   8.823  19.106  0.00  0.00    +0.000 A 
ATOM      8  C   UNL     1       1.750   7.918  20.101  0.00  0.00    +0.000 A 
ATOM      9  N   UNL     1       1.127   8.111  21.321  0.00  0.00    +0.000 NA
ATOM     10  C   UNL     1       0.562   9.261  21.482  0.00  0.00    +0.000 A 
ATOM     11  S   UNL     1      -0.270   9.748  22.927  0.00  0.00    +0.000 S 
BRANCH   2  12
ATOM     12  C   UNL     1      -1.329  12.353  22.882  0.00  0.00    +0.000 C 
BRANCH  12  14
ATOM     13  C   UNL     1      -3.743  12.848  23.436  0.00  0.00    +0.000 C 
ATOM     14  C   UNL     1      -2.638  11.803  23.446  0.00  0.00    +0.000 C 
ENDBRANCH  12  14
ENDBRANCH   2  12
ENDBRANCH   1   8
BRANCH   1  15
ATOM     15  S   UNL     1       1.385   5.241  20.507  0.00  0.00    +0.000 S 
BRANCH  15  16
ATOM     16  C   UNL     1       1.665   3.997  19.209  0.00  0.00    +0.000 C 
BRANCH  16  17
ATOM     17  C   UNL     1       3.119   3.978  18.773  0.00  0.00    +0.000 C 
ATOM     18  O   UNL     1       3.934   3.309  19.406  0.00  0.00    +0.000 OA
ATOM     19  N   UNL     1       3.394   4.739  17.645  0.00  0.00    +0.000 N 
ATOM     20  H   UNL     1       2.671   5.367  17.316  0.00  0.00    +0.000 HD
BRANCH  19  21
ATOM     21  C   UNL     1       4.637   4.796  16.969  0.00  0.00    +0.000 A 
ATOM     22  C   UNL     1       4.926   3.995  15.861  0.00  0.00    +0.000 A 
ATOM     23  C   UNL     1       6.167   4.066  15.234  0.00  0.00    +0.000 A 
ATOM     24  C   UNL     1       7.133   4.943  15.712  0.00  0.00    +0.000 A 
ATOM     25  C   UNL     1       6.863   5.769  16.804  0.00  0.00    +0.000 A 
ATOM     26  C   UNL     1       5.607   5.706  17.422  0.00  0.00    +0.000 A 
BRANCH  25  27
ATOM     27  O   UNL     1       7.909   6.573  17.165  0.00  0.00    +0.000 OA
ATOM     28  C   UNL     1       7.621   7.937  17.434  0.00  0.00    +0.000 C 
ENDBRANCH  25  27
ENDBRANCH  19  21
ENDBRANCH  16  17
ENDBRANCH  15  16
ENDBRANCH   1  15
TORSDOF 8
ENDMDL
MODEL 8
REMARK VINA RESULT:      -6.7      5.070      8.193
REMARK  Name = 
REMARK  10 active torsions:
REMARK  status: ('A' for Active; 'I' for Inactive)
REMARK    1  A    between atoms: C_1  and  C_2
REMARK    2  A    between atoms: C_2  and  C_3
REMARK    3  A    between atoms: C_3  and  C_4
REMARK    4  A    between atoms: C_10  and  C_11
REMARK    5  A    between atoms: C_11  and  S_12
REMARK    6  A    between atoms: S_12  and  C_13
REMARK    7  A    between atoms: C_13  and  C_14
REMARK    8  A    between atoms: N_16  and  C_17
REMARK    9  A    between atoms: C_21  and  O_22
REMARK   10  A    between atoms: O_22  and  C_23
REMARK                            x       y       z     vdW  Elec       q    Type
REMARK                         _______ _______ _______ _____ _____    ______ ____
ROOT
ATOM      1  C   UNL     1       7.564   6.812  17.474  0.00  0.00    +0.000 C 
ENDROOT
BRANCH   1   8
ATOM      2  C   UNL     1       2.343   3.909  18.241  0.00  0.00    +0.000 A 
ATOM      3  N   UNL     1       2.252   5.185  18.037  0.00  0.00    +0.000 NA
ATOM      4  N   UNL     1       3.515   5.697  17.852  0.00  0.00    +0.000 N 
ATOM      5  C   UNL     1       3.724   7.031  17.585  0.00  0.00    +0.000 A 
ATOM      6  O   UNL     1       2.868   7.904  17.473  0.00  0.00    +0.000 OA
ATOM      7  C   UNL     1       5.151   7.384  17.430  0.00  0.00    +0.000 A 
ATOM      8  C   UNL     1       6.096   6.436  17.573  0.00  0.00    +0.000 A 
ATOM      9  N   UNL     1       5.810   5.102  17.800  0.00  0.00    +0.000 NA
ATOM     10  C   UNL     1       4.558   4.814  17.931  0.00  0.00    +0.000 A 
ATOM     11  S   UNL     1       3.949   3.217  18.235  0.00  0.00    +0.000 S 
BRANCH   2  12
ATOM     12  C   UNL     1       1.155   3.027  18.492  0.00  0.00    +0.000 C 
BRANCH  12  14
ATOM     13  C   UNL     1       1.247   3.105  21.015  0.00  0.00    +0.000 C 
ATOM     14  C   UNL     1       1.342   2.225  19.778  0.00  0.00    +0.000 C 
ENDBRANCH  12  14
ENDBRANCH   2  12
ENDBRANCH   1   8
BRANCH   1  15
ATOM     15  S   UNL     1       7.704   8.643  17.531  0.00  0.00    +0.000 S 
BRANCH  15  16
ATOM     16  C   UNL     1       8.811   8.843  18.962  0.00  0.00    +0.000 C 
BRANCH  16  17
ATOM     17  C   UNL     1       9.211  10.296  19.147  0.00  0.00    +0.000 C 
ATOM     18  O   UNL     1       9.536  10.699  20.263  0.00  0.00    +0.000 OA
ATOM     19  N   UNL     1       9.183  11.055  17.985  0.00  0.00    +0.000 N 
ATOM     20  H   UNL     1       8.744  10.647  17.169  0.00  0.00    +0.000 HD
BRANCH  19  21
ATOM     21  C   UNL     1       9.620  12.397  17.864  0.00  0.00    +0.000 A 
ATOM     22  C   UNL     1      10.831  12.739  17.256  0.00  0.00    +0.000 A 
ATOM     23  C   UNL     1      11.236  14.068  17.172  0.00  0.00    +0.000 A 
ATOM     24  C   UNL     1      10.430  15.071  17.698  0.00  0.00    +0.000 A 
ATOM     25  C   UNL     1       9.207  14.758  18.291  0.00  0.00    +0.000 A 
ATOM     26  C   UNL     1       8.795  13.421  18.359  0.00  0.00    +0.000 A 
BRANCH  25  27
ATOM     27  O   UNL     1       8.526  15.845  18.768  0.00  0.00    +0.000 OA
ATOM     28  C   UNL     1       7.163  15.978  18.394  0.00  0.00    +0.000 C 
ENDBRANCH  25  27
ENDBRANCH  19  21
ENDBRANCH  16  17
ENDBRANCH  15  16
ENDBRANCH   1  15
TORSDOF 8
ENDMDL
MODEL 9
REMARK VINA RESULT:      -6.6      2.500      8.014
REMARK  Name = 
REMARK  10 active torsions:
REMARK  status: ('A' for Active; 'I' for Inactive)
REMARK    1  A    between atoms: C_1  and  C_2
REMARK    2  A    between atoms: C_2  and  C_3
REMARK    3  A    between atoms: C_3  and  C_4
REMARK    4  A    between atoms: C_10  and  C_11
REMARK    5  A    between atoms: C_11  and  S_12
REMARK    6  A    between atoms: S_12  and  C_13
REMARK    7  A    between atoms: C_13  and  C_14
REMARK    8  A    between atoms: N_16  and  C_17
REMARK    9  A    between atoms: C_21  and  O_22
REMARK   10  A    between atoms: O_22  and  C_23
REMARK                            x       y       z     vdW  Elec       q    Type
REMARK                         _______ _______ _______ _____ _____    ______ ____
ROOT
ATOM      1  C   UNL     1       4.962   3.993  19.968  0.00  0.00    +0.000 C 
ENDROOT
BRANCH   1   8
ATOM      2  C   UNL     1       6.803   4.823  14.295  0.00  0.00    +0.000 A 
ATOM      3  N   UNL     1       7.243   5.681  15.159  0.00  0.00    +0.000 NA
ATOM      4  N   UNL     1       6.764   5.344  16.403  0.00  0.00    +0.000 N 
ATOM      5  C   UNL     1       7.094   6.066  17.527  0.00  0.00    +0.000 A 
ATOM      6  O   UNL     1       7.825   7.052  17.583  0.00  0.00    +0.000 OA
ATOM      7  C   UNL     1       6.469   5.551  18.764  0.00  0.00    +0.000 A 
ATOM      8  C   UNL     1       5.651   4.485  18.707  0.00  0.00    +0.000 A 
ATOM      9  N   UNL     1       5.396   3.779  17.546  0.00  0.00    +0.000 NA
ATOM     10  C   UNL     1       5.952   4.244  16.477  0.00  0.00    +0.000 A 
ATOM     11  S   UNL     1       5.773   3.545  14.897  0.00  0.00    +0.000 S 
BRANCH   2  12
ATOM     12  C   UNL     1       7.122   4.890  12.829  0.00  0.00    +0.000 C 
BRANCH  12  14
ATOM     13  C   UNL     1       5.351   3.414  11.797  0.00  0.00    +0.000 C 
ATOM     14  C   UNL     1       6.823   3.554  12.151  0.00  0.00    +0.000 C 
ENDBRANCH  12  14
ENDBRANCH   2  12
ENDBRANCH   1   8
BRANCH   1  15
ATOM     15  S   UNL     1       3.788   2.655  19.510  0.00  0.00    +0.000 S 
BRANCH  15  16
ATOM     16  C   UNL     1       2.210   3.424  19.991  0.00  0.00    +0.000 C 
BRANCH  16  17
ATOM     17  C   UNL     1       1.965   4.703  19.211  0.00  0.00    +0.000 C 
ATOM     18  O   UNL     1       1.492   4.642  18.077  0.00  0.00    +0.000 OA
ATOM     19  N   UNL     1       2.299   5.867  19.889  0.00  0.00    +0.000 N 
ATOM     20  H   UNL     1       2.828   5.773  20.749  0.00  0.00    +0.000 HD
BRANCH  19  21
ATOM     21  C   UNL     1       2.059   7.187  19.435  0.00  0.00    +0.000 A 
ATOM     22  C   UNL     1       2.456   7.629  18.170  0.00  0.00    +0.000 A 
ATOM     23  C   UNL     1       2.219   8.940  17.766  0.00  0.00    +0.000 A 
ATOM     24  C   UNL     1       1.581   9.824  18.628  0.00  0.00    +0.000 A 
ATOM     25  C   UNL     1       1.156   9.402  19.889  0.00  0.00    +0.000 A 
ATOM     26  C   UNL     1       1.381   8.077  20.285  0.00  0.00    +0.000 A 
BRANCH  25  27
ATOM     27  O   UNL     1       0.550  10.381  20.627  0.00  0.00    +0.000 OA
ATOM     28  C   UNL     1       0.188  10.063  21.963  0.00  0.00    +0.000 C 
ENDBRANCH  25  27
ENDBRANCH  19  21
ENDBRANCH  16  17
ENDBRANCH  15  16
ENDBRANCH   1  15
TORSDOF 8
ENDMDL
