MODEL 1
REMARK VINA RESULT:      -7.8      0.000      0.000
REMARK  Name = 
REMARK  6 active torsions:
REMARK  status: ('A' for Active; 'I' for Inactive)
REMARK    1  A    between atoms: C_1  and  C_2
REMARK    2  A    between atoms: C_5  and  C_6
REMARK    3  A    between atoms: N_7  and  N_8
REMARK    4  A    between atoms: C_9  and  C_11
REMARK    5  A    between atoms: C_11  and  S_12
REMARK    6  A    between atoms: S_12  and  C_13
REMARK                            x       y       z     vdW  Elec       q    Type
REMARK                         _______ _______ _______ _____ _____    ______ ____
ROOT
ATOM      1  N   UNL     1       6.691   6.004  15.569  0.00  0.00    +0.000 N 
ATOM      2  C   UNL     1       7.383   5.491  16.664  0.00  0.00    +0.000 C 
ATOM      3  O   UNL     1       7.878   4.364  16.703  0.00  0.00    +0.000 OA
ATOM      4  H   UNL     1       6.392   6.973  15.540  0.00  0.00    +0.000 HD
ENDROOT
BRANCH   1   6
ATOM      5  C   UNL     1       5.501   4.534  14.290  0.00  0.00    +0.000 C 
ATOM      6  N   UNL     1       6.585   5.223  14.462  0.00  0.00    +0.000 NA
BRANCH   5  11
ATOM      7  C   UNL     1       6.990   1.336  10.985  0.00  0.00    +0.000 C 
ATOM      8  C   UNL     1       6.034   2.288  11.583  0.00  0.00    +0.000 A 
ATOM      9  C   UNL     1       4.773   2.700  11.211  0.00  0.00    +0.000 A 
ATOM     10  C   UNL     1       4.361   3.634  12.184  0.00  0.00    +0.000 A 
ATOM     11  C   UNL     1       5.391   3.739  13.101  0.00  0.00    +0.000 A 
ATOM     12  O   UNL     1       6.421   2.916  12.733  0.00  0.00    +0.000 OA
ENDBRANCH   5  11
ENDBRANCH   1   6
BRANCH   2  13
ATOM     13  C   UNL     1       7.438   6.432  17.850  0.00  0.00    +0.000 C 
BRANCH  13  14
ATOM     14  S   UNL     1       7.082   5.569  19.400  0.00  0.00    +0.000 S 
BRANCH  14  15
ATOM     15  C   UNL     1       5.507   4.885  19.065  0.00  0.00    +0.000 A 
ATOM     16  N   UNL     1       5.220   3.627  19.319  0.00  0.00    +0.000 NA
ATOM     17  C   UNL     1       3.875   3.401  19.036  0.00  0.00    +0.000 A 
ATOM     18  C   UNL     1       3.179   2.187  19.213  0.00  0.00    +0.000 A 
ATOM     19  C   UNL     1       1.818   2.105  18.887  0.00  0.00    +0.000 A 
ATOM     20  C   UNL     1       1.144   3.215  18.388  0.00  0.00    +0.000 A 
ATOM     21  C   UNL     1       1.808   4.430  18.205  0.00  0.00    +0.000 A 
ATOM     22  C   UNL     1       3.172   4.502  18.540  0.00  0.00    +0.000 A 
ATOM     23  S   UNL     1       4.235   5.849  18.449  0.00  0.00    +0.000 S 
ENDBRANCH  14  15
ENDBRANCH  13  14
ENDBRANCH   2  13
TORSDOF 5
ENDMDL
MODEL 2
REMARK VINA RESULT:      -7.8      4.415      7.246
REMARK  Name = 
REMARK  6 active torsions:
REMARK  status: ('A' for Active; 'I' for Inactive)
REMARK    1  A    between atoms: C_1  and  C_2
REMARK    2  A    between atoms: C_5  and  C_6
REMARK    3  A    between atoms: N_7  and  N_8
REMARK    4  A    between atoms: C_9  and  C_11
REMARK    5  A    between atoms: C_11  and  S_12
REMARK    6  A    between atoms: S_12  and  C_13
REMARK                            x       y       z     vdW  Elec       q    Type
REMARK                         _______ _______ _______ _____ _____    ______ ____
ROOT
ATOM      1  N   UNL     1       8.558   8.215  18.883  0.00  0.00    +0.000 N 
ATOM      2  C   UNL     1       7.840   7.297  18.120  0.00  0.00    +0.000 C 
ATOM      3  O   UNL     1       7.382   7.534  17.002  0.00  0.00    +0.000 OA
ATOM      4  H   UNL     1       9.006   7.944  19.752  0.00  0.00    +0.000 HD
ENDROOT
BRANCH   1   6
ATOM      5  C   UNL     1       9.401  10.329  19.066  0.00  0.00    +0.000 C 
ATOM      6  N   UNL     1       8.795   9.440  18.345  0.00  0.00    +0.000 NA
BRANCH   5  11
ATOM      7  C   UNL     1       8.589  14.999  18.119  0.00  0.00    +0.000 C 
ATOM      8  C   UNL     1       9.336  13.730  18.025  0.00  0.00    +0.000 A 
ATOM      9  C   UNL     1      10.495  13.377  17.368  0.00  0.00    +0.000 A 
ATOM     10  C   UNL     1      10.710  12.013  17.654  0.00  0.00    +0.000 A 
ATOM     11  C   UNL     1       9.673  11.607  18.474  0.00  0.00    +0.000 A 
ATOM     12  O   UNL     1       8.826  12.658  18.701  0.00  0.00    +0.000 OA
ENDBRANCH   5  11
ENDBRANCH   1   6
BRANCH   2  13
ATOM     13  C   UNL     1       7.620   5.966  18.810  0.00  0.00    +0.000 C 
BRANCH  13  14
ATOM     14  S   UNL     1       7.105   4.688  17.638  0.00  0.00    +0.000 S 
BRANCH  14  15
ATOM     15  C   UNL     1       5.482   4.339  18.192  0.00  0.00    +0.000 A 
ATOM     16  N   UNL     1       5.245   3.556  19.222  0.00  0.00    +0.000 NA
ATOM     17  C   UNL     1       3.877   3.543  19.478  0.00  0.00    +0.000 A 
ATOM     18  C   UNL     1       3.232   2.850  20.525  0.00  0.00    +0.000 A 
ATOM     19  C   UNL     1       1.839   2.931  20.664  0.00  0.00    +0.000 A 
ATOM     20  C   UNL     1       1.083   3.690  19.777  0.00  0.00    +0.000 A 
ATOM     21  C   UNL     1       1.696   4.388  18.733  0.00  0.00    +0.000 A 
ATOM     22  C   UNL     1       3.094   4.304  18.606  0.00  0.00    +0.000 A 
ATOM     23  S   UNL     1       4.119   5.061  17.453  0.00  0.00    +0.000 S 
ENDBRANCH  14  15
ENDBRANCH  13  14
ENDBRANCH   2  13
TORSDOF 5
ENDMDL
MODEL 3
REMARK VINA RESULT:      -7.8      4.120      7.396
REMARK  Name = 
REMARK  6 active torsions:
REMARK  status: ('A' for Active; 'I' for Inactive)
REMARK    1  A    between atoms: C_1  and  C_2
REMARK    2  A    between atoms: C_5  and  C_6
REMARK    3  A    between atoms: N_7  and  N_8
REMARK    4  A    between atoms: C_9  and  C_11
REMARK    5  A    between atoms: C_11  and  S_12
REMARK    6  A    between atoms: S_12  and  C_13
REMARK                            x       y       z     vdW  Elec       q    Type
REMARK                         _______ _______ _______ _____ _____    ______ ____
ROOT
ATOM      1  N   UNL     1       7.708   8.323  17.521  0.00  0.00    +0.000 N 
ATOM      2  C   UNL     1       7.502   6.972  17.790  0.00  0.00    +0.000 C 
ATOM      3  O   UNL     1       7.984   6.377  18.754  0.00  0.00    +0.000 OA
ATOM      4  H   UNL     1       7.206   8.795  16.776  0.00  0.00    +0.000 HD
ENDROOT
BRANCH   1   6
ATOM      5  C   UNL     1       8.826  10.236  18.069  0.00  0.00    +0.000 C 
ATOM      6  N   UNL     1       8.464   9.036  18.396  0.00  0.00    +0.000 NA
BRANCH   5  11
ATOM      7  C   UNL     1       9.542  12.828  22.086  0.00  0.00    +0.000 C 
ATOM      8  C   UNL     1       9.958  12.168  20.834  0.00  0.00    +0.000 A 
ATOM      9  C   UNL     1      11.175  12.059  20.196  0.00  0.00    +0.000 A 
ATOM     10  C   UNL     1      10.943  11.305  19.028  0.00  0.00    +0.000 A 
ATOM     11  C   UNL     1       9.596  10.989  19.016  0.00  0.00    +0.000 A 
ATOM     12  O   UNL     1       8.988  11.519  20.122  0.00  0.00    +0.000 OA
ENDBRANCH   5  11
ENDBRANCH   1   6
BRANCH   2  13
ATOM     13  C   UNL     1       6.655   6.261  16.753  0.00  0.00    +0.000 C 
BRANCH  13  14
ATOM     14  S   UNL     1       6.587   4.480  17.057  0.00  0.00    +0.000 S 
BRANCH  14  15
ATOM     15  C   UNL     1       5.027   4.316  17.832  0.00  0.00    +0.000 A 
ATOM     16  N   UNL     1       4.130   3.446  17.425  0.00  0.00    +0.000 NA
ATOM     17  C   UNL     1       3.036   3.484  18.287  0.00  0.00    +0.000 A 
ATOM     18  C   UNL     1       1.884   2.673  18.207  0.00  0.00    +0.000 A 
ATOM     19  C   UNL     1       0.858   2.820  19.150  0.00  0.00    +0.000 A 
ATOM     20  C   UNL     1       0.964   3.761  20.169  0.00  0.00    +0.000 A 
ATOM     21  C   UNL     1       2.094   4.575  20.274  0.00  0.00    +0.000 A 
ATOM     22  C   UNL     1       3.120   4.416  19.325  0.00  0.00    +0.000 A 
ATOM     23  S   UNL     1       4.621   5.243  19.211  0.00  0.00    +0.000 S 
ENDBRANCH  14  15
ENDBRANCH  13  14
ENDBRANCH   2  13
TORSDOF 5
ENDMDL
MODEL 4
REMARK VINA RESULT:      -7.7      0.692      1.189
REMARK  Name = 
REMARK  6 active torsions:
REMARK  status: ('A' for Active; 'I' for Inactive)
REMARK    1  A    between atoms: C_1  and  C_2
REMARK    2  A    between atoms: C_5  and  C_6
REMARK    3  A    between atoms: N_7  and  N_8
REMARK    4  A    between atoms: C_9  and  C_11
REMARK    5  A    between atoms: C_11  and  S_12
REMARK    6  A    between atoms: S_12  and  C_13
REMARK                            x       y       z     vdW  Elec       q    Type
REMARK                         _______ _______ _______ _____ _____    ______ ____
ROOT
ATOM      1  N   UNL     1       6.541   6.175  15.737  0.00  0.00    +0.000 N 
ATOM      2  C   UNL     1       7.356   5.636  16.730  0.00  0.00    +0.000 C 
ATOM      3  O   UNL     1       7.950   4.562  16.630  0.00  0.00    +0.000 OA
ATOM      4  H   UNL     1       6.157   7.110  15.819  0.00  0.00    +0.000 HD
ENDROOT
BRANCH   1   6
ATOM      5  C   UNL     1       5.642   4.450  14.541  0.00  0.00    +0.000 C 
ATOM      6  N   UNL     1       6.420   5.486  14.572  0.00  0.00    +0.000 NA
BRANCH   5  11
ATOM      7  C   UNL     1       3.382   3.112  10.483  0.00  0.00    +0.000 C 
ATOM      8  C   UNL     1       4.503   3.125  11.442  0.00  0.00    +0.000 A 
ATOM      9  C   UNL     1       5.731   2.500  11.449  0.00  0.00    +0.000 A 
ATOM     10  C   UNL     1       6.370   2.900  12.640  0.00  0.00    +0.000 A 
ATOM     11  C   UNL     1       5.500   3.752  13.296  0.00  0.00    +0.000 A 
ATOM     12  O   UNL     1       4.351   3.890  12.564  0.00  0.00    +0.000 OA
ENDBRANCH   5  11
ENDBRANCH   1   6
BRANCH   2  13
ATOM     13  C   UNL     1       7.419   6.472  17.992  0.00  0.00    +0.000 C 
BRANCH  13  14
ATOM     14  S   UNL     1       7.114   5.471  19.468  0.00  0.00    +0.000 S 
BRANCH  14  15
ATOM     15  C   UNL     1       5.528   4.817  19.125  0.00  0.00    +0.000 A 
ATOM     16  N   UNL     1       5.247   3.542  19.276  0.00  0.00    +0.000 NA
ATOM     17  C   UNL     1       3.894   3.339  19.018  0.00  0.00    +0.000 A 
ATOM     18  C   UNL     1       3.202   2.113  19.110  0.00  0.00    +0.000 A 
ATOM     19  C   UNL     1       1.831   2.059  18.822  0.00  0.00    +0.000 A 
ATOM     20  C   UNL     1       1.143   3.208  18.445  0.00  0.00    +0.000 A 
ATOM     21  C   UNL     1       1.802   4.435  18.349  0.00  0.00    +0.000 A 
ATOM     22  C   UNL     1       3.176   4.479  18.644  0.00  0.00    +0.000 A 
ATOM     23  S   UNL     1       4.238   5.830  18.638  0.00  0.00    +0.000 S 
ENDBRANCH  14  15
ENDBRANCH  13  14
ENDBRANCH   2  13
TORSDOF 5
ENDMDL
MODEL 5
REMARK VINA RESULT:      -7.6      4.015      7.191
REMARK  Name = 
REMARK  6 active torsions:
REMARK  status: ('A' for Active; 'I' for Inactive)
REMARK    1  A    between atoms: C_1  and  C_2
REMARK    2  A    between atoms: C_5  and  C_6
REMARK    3  A    between atoms: N_7  and  N_8
REMARK    4  A    between atoms: C_9  and  C_11
REMARK    5  A    between atoms: C_11  and  S_12
REMARK    6  A    between atoms: S_12  and  C_13
REMARK                            x       y       z     vdW  Elec       q    Type
REMARK                         _______ _______ _______ _____ _____    ______ ____
ROOT
ATOM      1  N   UNL     1       7.650   8.027  17.478  0.00  0.00    +0.000 N 
ATOM      2  C   UNL     1       7.377   6.705  17.821  0.00  0.00    +0.000 C 
ATOM      3  O   UNL     1       7.868   6.125  18.789  0.00  0.00    +0.000 OA
ATOM      4  H   UNL     1       7.142   8.495  16.735  0.00  0.00    +0.000 HD
ENDROOT
BRANCH   1   6
ATOM      5  C   UNL     1       8.525  10.021  18.165  0.00  0.00    +0.000 C 
ATOM      6  N   UNL     1       8.486   8.732  18.285  0.00  0.00    +0.000 NA
BRANCH   5  11
ATOM      7  C   UNL     1      12.313  12.802  19.295  0.00  0.00    +0.000 C 
ATOM      8  C   UNL     1      11.099  12.019  19.592  0.00  0.00    +0.000 A 
ATOM      9  C   UNL     1      10.425  11.753  20.765  0.00  0.00    +0.000 A 
ATOM     10  C   UNL     1       9.329  10.939  20.413  0.00  0.00    +0.000 A 
ATOM     11  C   UNL     1       9.389  10.754  19.044  0.00  0.00    +0.000 A 
ATOM     12  O   UNL     1      10.476  11.413  18.537  0.00  0.00    +0.000 OA
ENDBRANCH   5  11
ENDBRANCH   1   6
BRANCH   2  13
ATOM     13  C   UNL     1       6.442   6.002  16.857  0.00  0.00    +0.000 C 
BRANCH  13  14
ATOM     14  S   UNL     1       4.876   6.890  16.683  0.00  0.00    +0.000 S 
BRANCH  14  15
ATOM     15  C   UNL     1       3.817   5.933  17.696  0.00  0.00    +0.000 A 
ATOM     16  N   UNL     1       3.770   4.622  17.620  0.00  0.00    +0.000 NA
ATOM     17  C   UNL     1       2.912   4.139  18.605  0.00  0.00    +0.000 A 
ATOM     18  C   UNL     1       2.626   2.783  18.870  0.00  0.00    +0.000 A 
ATOM     19  C   UNL     1       1.739   2.443  19.901  0.00  0.00    +0.000 A 
ATOM     20  C   UNL     1       1.136   3.433  20.669  0.00  0.00    +0.000 A 
ATOM     21  C   UNL     1       1.403   4.783  20.430  0.00  0.00    +0.000 A 
ATOM     22  C   UNL     1       2.298   5.113  19.397  0.00  0.00    +0.000 A 
ATOM     23  S   UNL     1       2.835   6.664  18.891  0.00  0.00    +0.000 S 
ENDBRANCH  14  15
ENDBRANCH  13  14
ENDBRANCH   2  13
TORSDOF 5
ENDMDL
MODEL 6
REMARK VINA RESULT:      -7.6      4.496      7.699
REMARK  Name = 
REMARK  6 active torsions:
REMARK  status: ('A' for Active; 'I' for Inactive)
REMARK    1  A    between atoms: C_1  and  C_2
REMARK    2  A    between atoms: C_5  and  C_6
REMARK    3  A    between atoms: N_7  and  N_8
REMARK    4  A    between atoms: C_9  and  C_11
REMARK    5  A    between atoms: C_11  and  S_12
REMARK    6  A    between atoms: S_12  and  C_13
REMARK                            x       y       z     vdW  Elec       q    Type
REMARK                         _______ _______ _______ _____ _____    ______ ____
ROOT
ATOM      1  N   UNL     1       2.430   5.231  20.805  0.00  0.00    +0.000 N 
ATOM      2  C   UNL     1       2.000   4.111  20.097  0.00  0.00    +0.000 C 
ATOM      3  O   UNL     1       1.098   4.127  19.259  0.00  0.00    +0.000 OA
ATOM      4  H   UNL     1       3.246   5.194  21.408  0.00  0.00    +0.000 HD
ENDROOT
BRANCH   1   6
ATOM      5  C   UNL     1       2.372   7.187  19.629  0.00  0.00    +0.000 C 
ATOM      6  N   UNL     1       1.838   6.423  20.529  0.00  0.00    +0.000 NA
BRANCH   5  11
ATOM      7  C   UNL     1      -0.534  10.952  20.491  0.00  0.00    +0.000 C 
ATOM      8  C   UNL     1       0.408  10.153  19.685  0.00  0.00    +0.000 A 
ATOM      9  C   UNL     1       0.949  10.335  18.430  0.00  0.00    +0.000 A 
ATOM     10  C   UNL     1       1.788   9.226  18.198  0.00  0.00    +0.000 A 
ATOM     11  C   UNL     1       1.718   8.427  19.325  0.00  0.00    +0.000 A 
ATOM     12  O   UNL     1       0.870   8.992  20.239  0.00  0.00    +0.000 OA
ENDBRANCH   5  11
ENDBRANCH   1   6
BRANCH   2  13
ATOM     13  C   UNL     1       2.713   2.831  20.483  0.00  0.00    +0.000 C 
BRANCH  13  14
ATOM     14  S   UNL     1       3.743   2.211  19.132  0.00  0.00    +0.000 S 
BRANCH  14  15
ATOM     15  C   UNL     1       4.680   3.632  18.726  0.00  0.00    +0.000 A 
ATOM     16  N   UNL     1       5.748   3.986  19.406  0.00  0.00    +0.000 NA
ATOM     17  C   UNL     1       6.330   5.095  18.797  0.00  0.00    +0.000 A 
ATOM     18  C   UNL     1       7.512   5.747  19.206  0.00  0.00    +0.000 A 
ATOM     19  C   UNL     1       7.984   6.855  18.490  0.00  0.00    +0.000 A 
ATOM     20  C   UNL     1       7.296   7.321  17.375  0.00  0.00    +0.000 A 
ATOM     21  C   UNL     1       6.125   6.693  16.945  0.00  0.00    +0.000 A 
ATOM     22  C   UNL     1       5.663   5.579  17.668  0.00  0.00    +0.000 A 
ATOM     23  S   UNL     1       4.285   4.597  17.370  0.00  0.00    +0.000 S 
ENDBRANCH  14  15
ENDBRANCH  13  14
ENDBRANCH   2  13
TORSDOF 5
ENDMDL
MODEL 7
REMARK VINA RESULT:      -7.5      3.957      7.021
REMARK  Name = 
REMARK  6 active torsions:
REMARK  status: ('A' for Active; 'I' for Inactive)
REMARK    1  A    between atoms: C_1  and  C_2
REMARK    2  A    between atoms: C_5  and  C_6
REMARK    3  A    between atoms: N_7  and  N_8
REMARK    4  A    between atoms: C_9  and  C_11
REMARK    5  A    between atoms: C_11  and  S_12
REMARK    6  A    between atoms: S_12  and  C_13
REMARK                            x       y       z     vdW  Elec       q    Type
REMARK                         _______ _______ _______ _____ _____    ______ ____
ROOT
ATOM      1  N   UNL     1       7.621   8.073  17.222  0.00  0.00    +0.000 N 
ATOM      2  C   UNL     1       7.320   6.846  17.808  0.00  0.00    +0.000 C 
ATOM      3  O   UNL     1       7.908   6.383  18.786  0.00  0.00    +0.000 OA
ATOM      4  H   UNL     1       7.043   8.462  16.485  0.00  0.00    +0.000 HD
ENDROOT
BRANCH   1   6
ATOM      5  C   UNL     1       8.291   9.954  18.329  0.00  0.00    +0.000 C 
ATOM      6  N   UNL     1       8.606   8.821  17.786  0.00  0.00    +0.000 NA
BRANCH   5  11
ATOM      7  C   UNL     1      12.259  12.713  18.419  0.00  0.00    +0.000 C 
ATOM      8  C   UNL     1      11.135  11.975  19.026  0.00  0.00    +0.000 A 
ATOM      9  C   UNL     1      10.736  11.792  20.333  0.00  0.00    +0.000 A 
ATOM     10  C   UNL     1       9.583  10.983  20.283  0.00  0.00    +0.000 A 
ATOM     11  C   UNL     1       9.335  10.718  18.948  0.00  0.00    +0.000 A 
ATOM     12  O   UNL     1      10.288  11.323  18.174  0.00  0.00    +0.000 OA
ENDBRANCH   5  11
ENDBRANCH   1   6
BRANCH   2  13
ATOM     13  C   UNL     1       6.216   6.083  17.103  0.00  0.00    +0.000 C 
BRANCH  13  14
ATOM     14  S   UNL     1       6.371   4.300  17.360  0.00  0.00    +0.000 S 
BRANCH  14  15
ATOM     15  C   UNL     1       4.891   3.941  18.221  0.00  0.00    +0.000 A 
ATOM     16  N   UNL     1       4.887   3.344  19.392  0.00  0.00    +0.000 NA
ATOM     17  C   UNL     1       3.579   3.278  19.865  0.00  0.00    +0.000 A 
ATOM     18  C   UNL     1       3.167   2.742  21.104  0.00  0.00    +0.000 A 
ATOM     19  C   UNL     1       1.809   2.746  21.452  0.00  0.00    +0.000 A 
ATOM     20  C   UNL     1       0.860   3.274  20.584  0.00  0.00    +0.000 A 
ATOM     21  C   UNL     1       1.239   3.814  19.353  0.00  0.00    +0.000 A 
ATOM     22  C   UNL     1       2.605   3.809  19.016  0.00  0.00    +0.000 A 
ATOM     23  S   UNL     1       3.368   4.417  17.602  0.00  0.00    +0.000 S 
ENDBRANCH  14  15
ENDBRANCH  13  14
ENDBRANCH   2  13
TORSDOF 5
ENDMDL
MODEL 8
REMARK VINA RESULT:      -7.5      4.688      8.094
REMARK  Name = 
REMARK  6 active torsions:
REMARK  status: ('A' for Active; 'I' for Inactive)
REMARK    1  A    between atoms: C_1  and  C_2
REMARK    2  A    between atoms: C_5  and  C_6
REMARK    3  A    between atoms: N_7  and  N_8
REMARK    4  A    between atoms: C_9  and  C_11
REMARK    5  A    between atoms: C_11  and  S_12
REMARK    6  A    between atoms: S_12  and  C_13
REMARK                            x       y       z     vdW  Elec       q    Type
REMARK                         _______ _______ _______ _____ _____    ______ ____
ROOT
ATOM      1  N   UNL     1       2.433   5.171  20.844  0.00  0.00    +0.000 N 
ATOM      2  C   UNL     1       1.906   3.928  20.497  0.00  0.00    +0.000 C 
ATOM      3  O   UNL     1       0.719   3.727  20.239  0.00  0.00    +0.000 OA
ATOM      4  H   UNL     1       3.433   5.311  20.945  0.00  0.00    +0.000 HD
ENDROOT
BRANCH   1   6
ATOM      5  C   UNL     1       2.049   7.401  20.542  0.00  0.00    +0.000 C 
ATOM      6  N   UNL     1       1.588   6.234  20.866  0.00  0.00    +0.000 NA
BRANCH   5  11
ATOM      7  C   UNL     1      -0.305  11.154  18.608  0.00  0.00    +0.000 C 
ATOM      8  C   UNL     1       0.049  10.218  19.692  0.00  0.00    +0.000 A 
ATOM      9  C   UNL     1      -0.369  10.105  21.001  0.00  0.00    +0.000 A 
ATOM     10  C   UNL     1       0.332   9.010  21.545  0.00  0.00    +0.000 A 
ATOM     11  C   UNL     1       1.138   8.508  20.540  0.00  0.00    +0.000 A 
ATOM     12  O   UNL     1       0.969   9.250  19.401  0.00  0.00    +0.000 OA
ENDBRANCH   5  11
ENDBRANCH   1   6
BRANCH   2  13
ATOM     13  C   UNL     1       2.924   2.806  20.510  0.00  0.00    +0.000 C 
BRANCH  13  14
ATOM     14  S   UNL     1       3.552   2.459  18.849  0.00  0.00    +0.000 S 
BRANCH  14  15
ATOM     15  C   UNL     1       4.578   3.848  18.566  0.00  0.00    +0.000 A 
ATOM     16  N   UNL     1       5.679   4.059  19.253  0.00  0.00    +0.000 NA
ATOM     17  C   UNL     1       6.325   5.182  18.744  0.00  0.00    +0.000 A 
ATOM     18  C   UNL     1       7.557   5.708  19.188  0.00  0.00    +0.000 A 
ATOM     19  C   UNL     1       8.092   6.850  18.576  0.00  0.00    +0.000 A 
ATOM     20  C   UNL     1       7.419   7.472  17.530  0.00  0.00    +0.000 A 
ATOM     21  C   UNL     1       6.200   6.971  17.068  0.00  0.00    +0.000 A 
ATOM     22  C   UNL     1       5.674   5.823  17.686  0.00  0.00    +0.000 A 
ATOM     23  S   UNL     1       4.226   4.971  17.324  0.00  0.00    +0.000 S 
ENDBRANCH  14  15
ENDBRANCH  13  14
ENDBRANCH   2  13
TORSDOF 5
ENDMDL
MODEL 9
REMARK VINA RESULT:      -7.5      4.049      7.236
REMARK  Name = 
REMARK  6 active torsions:
REMARK  status: ('A' for Active; 'I' for Inactive)
REMARK    1  A    between atoms: C_1  and  C_2
REMARK    2  A    between atoms: C_5  and  C_6
REMARK    3  A    between atoms: N_7  and  N_8
REMARK    4  A    between atoms: C_9  and  C_11
REMARK    5  A    between atoms: C_11  and  S_12
REMARK    6  A    between atoms: S_12  and  C_13
REMARK                            x       y       z     vdW  Elec       q    Type
REMARK                         _______ _______ _______ _____ _____    ______ ____
ROOT
ATOM      1  N   UNL     1       7.709   7.816  17.329  0.00  0.00    +0.000 N 
ATOM      2  C   UNL     1       7.514   6.502  17.747  0.00  0.00    +0.000 C 
ATOM      3  O   UNL     1       7.897   6.056  18.830  0.00  0.00    +0.000 OA
ATOM      4  H   UNL     1       7.286   8.167  16.477  0.00  0.00    +0.000 HD
ENDROOT
BRANCH   1   6
ATOM      5  C   UNL     1       8.462   9.910  17.839  0.00  0.00    +0.000 C 
ATOM      6  N   UNL     1       8.332   8.668  18.185  0.00  0.00    +0.000 NA
BRANCH   5  11
ATOM      7  C   UNL     1      10.108  14.177  19.406  0.00  0.00    +0.000 C 
ATOM      8  C   UNL     1       9.851  12.728  19.510  0.00  0.00    +0.000 A 
ATOM      9  C   UNL     1      10.118  11.801  20.495  0.00  0.00    +0.000 A 
ATOM     10  C   UNL     1       9.634  10.567  20.017  0.00  0.00    +0.000 A 
ATOM     11  C   UNL     1       9.094  10.805  18.766  0.00  0.00    +0.000 A 
ATOM     12  O   UNL     1       9.228  12.130  18.451  0.00  0.00    +0.000 OA
ENDBRANCH   5  11
ENDBRANCH   1   6
BRANCH   2  13
ATOM     13  C   UNL     1       6.821   5.628  16.721  0.00  0.00    +0.000 C 
BRANCH  13  14
ATOM     14  S   UNL     1       5.204   6.298  16.263  0.00  0.00    +0.000 S 
BRANCH  14  15
ATOM     15  C   UNL     1       4.144   5.425  17.347  0.00  0.00    +0.000 A 
ATOM     16  N   UNL     1       3.636   5.977  18.427  0.00  0.00    +0.000 NA
ATOM     17  C   UNL     1       2.766   5.075  19.033  0.00  0.00    +0.000 A 
ATOM     18  C   UNL     1       1.998   5.308  20.194  0.00  0.00    +0.000 A 
ATOM     19  C   UNL     1       1.157   4.304  20.691  0.00  0.00    +0.000 A 
ATOM     20  C   UNL     1       1.071   3.073  20.050  0.00  0.00    +0.000 A 
ATOM     21  C   UNL     1       1.817   2.815  18.897  0.00  0.00    +0.000 A 
ATOM     22  C   UNL     1       2.654   3.832  18.404  0.00  0.00    +0.000 A 
ATOM     23  S   UNL     1       3.660   3.819  17.011  0.00  0.00    +0.000 S 
ENDBRANCH  14  15
ENDBRANCH  13  14
ENDBRANCH   2  13
TORSDOF 5
ENDMDL
