MODEL 1
REMARK VINA RESULT:      -6.9      0.000      0.000
REMARK  Name = 
REMARK  10 active torsions:
REMARK  status: ('A' for Active; 'I' for Inactive)
REMARK    1  A    between atoms: C_1  and  O_2
REMARK    2  A    between atoms: O_2  and  C_3
REMARK    3  A    between atoms: C_6  and  N_7
REMARK    4  A    between atoms: C_11  and  C_13
REMARK    5  A    between atoms: C_13  and  N_14
REMARK    6  A    between atoms: C_17  and  C_18
REMARK    7  A    between atoms: C_21  and  O_22
REMARK    8  A    between atoms: O_22  and  C_23
REMARK    9  A    between atoms: C_24  and  O_25
REMARK   10  A    between atoms: O_25  and  C_26
REMARK                            x       y       z     vdW  Elec       q    Type
REMARK                         _______ _______ _______ _____ _____    ______ ____
ROOT
ATOM      1  N   UNL     1       2.687   7.109  18.475  0.00  0.00    +0.000 N 
ATOM      2  C   UNL     1       1.986   6.607  19.670  0.00  0.00    +0.000 C 
ATOM      3  C   UNL     1       1.816   7.758  20.683  0.00  0.00    +0.000 C 
ATOM      4  N   UNL     1       1.159   8.923  20.067  0.00  0.00    +0.000 N 
ATOM      5  C   UNL     1       0.100   9.530  20.721  0.00  0.00    +0.000 C 
ATOM      6  O   UNL     1      -0.324   9.091  21.796  0.00  0.00    +0.000 OA
ATOM      7  C   UNL     1       1.848   9.410  18.857  0.00  0.00    +0.000 C 
ATOM      8  C   UNL     1       2.062   8.276  17.830  0.00  0.00    +0.000 C 
ENDROOT
BRANCH   1  12
ATOM      9  C   UNL     1       5.881   4.969  16.715  0.00  0.00    +0.000 A 
ATOM     10  C   UNL     1       5.399   6.132  16.123  0.00  0.00    +0.000 A 
ATOM     11  C   UNL     1       4.353   6.854  16.716  0.00  0.00    +0.000 A 
ATOM     12  C   UNL     1       3.749   6.435  17.909  0.00  0.00    +0.000 A 
ATOM     13  C   UNL     1       4.250   5.256  18.481  0.00  0.00    +0.000 A 
ATOM     14  C   UNL     1       5.295   4.524  17.894  0.00  0.00    +0.000 A 
BRANCH   9  16
ATOM     15  C   UNL     1       7.127   4.798  14.718  0.00  0.00    +0.000 C 
ATOM     16  O   UNL     1       6.887   4.334  16.041  0.00  0.00    +0.000 OA
ENDBRANCH   9  16
ENDBRANCH   1  12
BRANCH   5  17
ATOM     17  C   UNL     1      -0.608  10.701  20.080  0.00  0.00    +0.000 C 
BRANCH  17  18
ATOM     18  N   UNL     1      -0.038  11.968  20.472  0.00  0.00    +0.000 N 
ATOM     19  N   UNL     1      -0.025  12.362  21.756  0.00  0.00    +0.000 NA
ATOM     20  N   UNL     1       0.787  13.408  21.784  0.00  0.00    +0.000 NA
ATOM     21  C   UNL     1       1.283  13.569  20.508  0.00  0.00    +0.000 A 
ATOM     22  N   UNL     1       0.810  12.642  19.659  0.00  0.00    +0.000 NA
BRANCH  21  23
ATOM     23  C   UNL     1       2.232  14.626  20.166  0.00  0.00    +0.000 A 
ATOM     24  C   UNL     1       3.345  14.897  20.965  0.00  0.00    +0.000 A 
ATOM     25  C   UNL     1       4.251  15.892  20.588  0.00  0.00    +0.000 A 
ATOM     26  C   UNL     1       4.064  16.648  19.422  0.00  0.00    +0.000 A 
ATOM     27  C   UNL     1       2.931  16.409  18.625  0.00  0.00    +0.000 A 
ATOM     28  C   UNL     1       2.035  15.395  19.008  0.00  0.00    +0.000 A 
BRANCH  26  29
ATOM     29  O   UNL     1       5.079  17.551  19.217  0.00  0.00    +0.000 OA
ATOM     30  C   UNL     1       6.361  17.077  18.837  0.00  0.00    +0.000 C 
ENDBRANCH  26  29
BRANCH  27  31
ATOM     31  O   UNL     1       2.743  17.184  17.511  0.00  0.00    +0.000 OA
ATOM     32  C   UNL     1       1.525  17.905  17.385  0.00  0.00    +0.000 C 
ENDBRANCH  27  31
ENDBRANCH  21  23
ENDBRANCH  17  18
ENDBRANCH   5  17
TORSDOF 7
ENDMDL
MODEL 2
REMARK VINA RESULT:      -6.9      3.664     11.110
REMARK  Name = 
REMARK  10 active torsions:
REMARK  status: ('A' for Active; 'I' for Inactive)
REMARK    1  A    between atoms: C_1  and  O_2
REMARK    2  A    between atoms: O_2  and  C_3
REMARK    3  A    between atoms: C_6  and  N_7
REMARK    4  A    between atoms: C_11  and  C_13
REMARK    5  A    between atoms: C_13  and  N_14
REMARK    6  A    between atoms: C_17  and  C_18
REMARK    7  A    between atoms: C_21  and  O_22
REMARK    8  A    between atoms: O_22  and  C_23
REMARK    9  A    between atoms: C_24  and  O_25
REMARK   10  A    between atoms: O_25  and  C_26
REMARK                            x       y       z     vdW  Elec       q    Type
REMARK                         _______ _______ _______ _____ _____    ______ ____
ROOT
ATOM      1  N   UNL     1      -1.197  14.127  21.524  0.00  0.00    +0.000 N 
ATOM      2  C   UNL     1      -0.116  14.592  20.637  0.00  0.00    +0.000 C 
ATOM      3  C   UNL     1       0.994  13.522  20.583  0.00  0.00    +0.000 C 
ATOM      4  N   UNL     1       0.455  12.205  20.207  0.00  0.00    +0.000 N 
ATOM      5  C   UNL     1       1.087  11.469  19.218  0.00  0.00    +0.000 C 
ATOM      6  O   UNL     1       2.076  11.913  18.625  0.00  0.00    +0.000 OA
ATOM      7  C   UNL     1      -0.644  11.752  21.081  0.00  0.00    +0.000 C 
ATOM      8  C   UNL     1      -1.763  12.811  21.182  0.00  0.00    +0.000 C 
ENDROOT
BRANCH   1  12
ATOM      9  C   UNL     1      -2.946  16.649  24.432  0.00  0.00    +0.000 A 
ATOM     10  C   UNL     1      -3.201  15.282  24.439  0.00  0.00    +0.000 A 
ATOM     11  C   UNL     1      -2.605  14.440  23.488  0.00  0.00    +0.000 A 
ATOM     12  C   UNL     1      -1.749  14.937  22.496  0.00  0.00    +0.000 A 
ATOM     13  C   UNL     1      -1.516  16.320  22.508  0.00  0.00    +0.000 A 
ATOM     14  C   UNL     1      -2.109  17.171  23.454  0.00  0.00    +0.000 A 
BRANCH   9  16
ATOM     15  C   UNL     1      -4.993  17.552  25.187  0.00  0.00    +0.000 C 
ATOM     16  O   UNL     1      -3.596  17.377  25.391  0.00  0.00    +0.000 OA
ENDBRANCH   9  16
ENDBRANCH   1  12
BRANCH   5  17
ATOM     17  C   UNL     1       0.519  10.135  18.795  0.00  0.00    +0.000 C 
BRANCH  17  18
ATOM     18  N   UNL     1       1.470   9.060  18.950  0.00  0.00    +0.000 N 
ATOM     19  N   UNL     1       1.496   8.303  20.059  0.00  0.00    +0.000 NA
ATOM     20  N   UNL     1       2.281   7.279  19.755  0.00  0.00    +0.000 NA
ATOM     21  C   UNL     1       2.654   7.433  18.438  0.00  0.00    +0.000 A 
ATOM     22  N   UNL     1       2.119   8.534  17.884  0.00  0.00    +0.000 NA
BRANCH  21  23
ATOM     23  C   UNL     1       3.514   6.471  17.751  0.00  0.00    +0.000 A 
ATOM     24  C   UNL     1       4.603   6.884  16.980  0.00  0.00    +0.000 A 
ATOM     25  C   UNL     1       5.425   5.935  16.366  0.00  0.00    +0.000 A 
ATOM     26  C   UNL     1       5.175   4.561  16.491  0.00  0.00    +0.000 A 
ATOM     27  C   UNL     1       4.064   4.132  17.237  0.00  0.00    +0.000 A 
ATOM     28  C   UNL     1       3.253   5.097  17.862  0.00  0.00    +0.000 A 
BRANCH  26  29
ATOM     29  O   UNL     1       6.113   3.799  15.837  0.00  0.00    +0.000 OA
ATOM     30  C   UNL     1       6.220   3.895  14.426  0.00  0.00    +0.000 C 
ENDBRANCH  26  29
BRANCH  27  31
ATOM     31  O   UNL     1       3.811   2.788  17.315  0.00  0.00    +0.000 OA
ATOM     32  C   UNL     1       2.742   2.346  18.140  0.00  0.00    +0.000 C 
ENDBRANCH  27  31
ENDBRANCH  21  23
ENDBRANCH  17  18
ENDBRANCH   5  17
TORSDOF 7
ENDMDL
MODEL 3
REMARK VINA RESULT:      -6.8      2.083      2.799
REMARK  Name = 
REMARK  10 active torsions:
REMARK  status: ('A' for Active; 'I' for Inactive)
REMARK    1  A    between atoms: C_1  and  O_2
REMARK    2  A    between atoms: O_2  and  C_3
REMARK    3  A    between atoms: C_6  and  N_7
REMARK    4  A    between atoms: C_11  and  C_13
REMARK    5  A    between atoms: C_13  and  N_14
REMARK    6  A    between atoms: C_17  and  C_18
REMARK    7  A    between atoms: C_21  and  O_22
REMARK    8  A    between atoms: O_22  and  C_23
REMARK    9  A    between atoms: C_24  and  O_25
REMARK   10  A    between atoms: O_25  and  C_26
REMARK                            x       y       z     vdW  Elec       q    Type
REMARK                         _______ _______ _______ _____ _____    ______ ____
ROOT
ATOM      1  N   UNL     1       1.730   8.405  19.212  0.00  0.00    +0.000 N 
ATOM      2  C   UNL     1       1.500   9.260  18.034  0.00  0.00    +0.000 C 
ATOM      3  C   UNL     1       0.053   9.792  18.064  0.00  0.00    +0.000 C 
ATOM      4  N   UNL     1      -0.248  10.461  19.340  0.00  0.00    +0.000 N 
ATOM      5  C   UNL     1      -0.856  11.706  19.328  0.00  0.00    +0.000 C 
ATOM      6  O   UNL     1      -1.121  12.277  18.264  0.00  0.00    +0.000 OA
ATOM      7  C   UNL     1       0.005   9.612  20.520  0.00  0.00    +0.000 C 
ATOM      8  C   UNL     1       1.439   9.038  20.510  0.00  0.00    +0.000 C 
ENDROOT
BRANCH   1  12
ATOM      9  C   UNL     1       3.479   4.568  18.898  0.00  0.00    +0.000 A 
ATOM     10  C   UNL     1       3.677   5.518  17.902  0.00  0.00    +0.000 A 
ATOM     11  C   UNL     1       3.115   6.798  18.014  0.00  0.00    +0.000 A 
ATOM     12  C   UNL     1       2.330   7.166  19.115  0.00  0.00    +0.000 A 
ATOM     13  C   UNL     1       2.140   6.186  20.101  0.00  0.00    +0.000 A 
ATOM     14  C   UNL     1       2.696   4.902  19.997  0.00  0.00    +0.000 A 
BRANCH   9  16
ATOM     15  C   UNL     1       4.291   2.559  19.836  0.00  0.00    +0.000 C 
ATOM     16  O   UNL     1       4.054   3.347  18.676  0.00  0.00    +0.000 OA
ENDBRANCH   9  16
ENDBRANCH   1  12
BRANCH   5  17
ATOM     17  C   UNL     1      -1.132  12.421  20.630  0.00  0.00    +0.000 C 
BRANCH  17  18
ATOM     18  N   UNL     1      -0.123  13.406  20.940  0.00  0.00    +0.000 N 
ATOM     19  N   UNL     1       0.325  13.578  22.194  0.00  0.00    +0.000 NA
ATOM     20  N   UNL     1       1.399  14.343  22.070  0.00  0.00    +0.000 NA
ATOM     21  C   UNL     1       1.591  14.556  20.723  0.00  0.00    +0.000 A 
ATOM     22  N   UNL     1       0.664  13.937  19.974  0.00  0.00    +0.000 NA
BRANCH  21  23
ATOM     23  C   UNL     1       2.705  15.350  20.207  0.00  0.00    +0.000 A 
ATOM     24  C   UNL     1       3.035  16.591  20.756  0.00  0.00    +0.000 A 
ATOM     25  C   UNL     1       4.128  17.306  20.260  0.00  0.00    +0.000 A 
ATOM     26  C   UNL     1       4.905  16.814  19.201  0.00  0.00    +0.000 A 
ATOM     27  C   UNL     1       4.564  15.582  18.616  0.00  0.00    +0.000 A 
ATOM     28  C   UNL     1       3.471  14.865  19.135  0.00  0.00    +0.000 A 
BRANCH  26  29
ATOM     29  O   UNL     1       5.945  17.654  18.884  0.00  0.00    +0.000 OA
ATOM     30  C   UNL     1       7.152  17.570  19.626  0.00  0.00    +0.000 C 
ENDBRANCH  26  29
BRANCH  27  31
ATOM     31  O   UNL     1       5.309  15.136  17.557  0.00  0.00    +0.000 OA
ATOM     32  C   UNL     1       6.482  14.380  17.824  0.00  0.00    +0.000 C 
ENDBRANCH  27  31
ENDBRANCH  21  23
ENDBRANCH  17  18
ENDBRANCH   5  17
TORSDOF 7
ENDMDL
MODEL 4
REMARK VINA RESULT:      -6.7      3.723     11.052
REMARK  Name = 
REMARK  10 active torsions:
REMARK  status: ('A' for Active; 'I' for Inactive)
REMARK    1  A    between atoms: C_1  and  O_2
REMARK    2  A    between atoms: O_2  and  C_3
REMARK    3  A    between atoms: C_6  and  N_7
REMARK    4  A    between atoms: C_11  and  C_13
REMARK    5  A    between atoms: C_13  and  N_14
REMARK    6  A    between atoms: C_17  and  C_18
REMARK    7  A    between atoms: C_21  and  O_22
REMARK    8  A    between atoms: O_22  and  C_23
REMARK    9  A    between atoms: C_24  and  O_25
REMARK   10  A    between atoms: O_25  and  C_26
REMARK                            x       y       z     vdW  Elec       q    Type
REMARK                         _______ _______ _______ _____ _____    ______ ____
ROOT
ATOM      1  N   UNL     1      -1.165  13.414  21.876  0.00  0.00    +0.000 N 
ATOM      2  C   UNL     1      -2.139  12.396  21.444  0.00  0.00    +0.000 C 
ATOM      3  C   UNL     1      -1.976  12.146  19.931  0.00  0.00    +0.000 C 
ATOM      4  N   UNL     1      -0.585  11.808  19.587  0.00  0.00    +0.000 N 
ATOM      5  C   UNL     1      -0.332  10.713  18.777  0.00  0.00    +0.000 C 
ATOM      6  O   UNL     1      -1.252   9.998  18.363  0.00  0.00    +0.000 OA
ATOM      7  C   UNL     1       0.391  12.816  20.042  0.00  0.00    +0.000 C 
ATOM      8  C   UNL     1       0.239  13.114  21.550  0.00  0.00    +0.000 C 
ENDROOT
BRANCH   1  12
ATOM      9  C   UNL     1      -2.340  16.709  24.252  0.00  0.00    +0.000 A 
ATOM     10  C   UNL     1      -2.526  15.408  24.708  0.00  0.00    +0.000 A 
ATOM     11  C   UNL     1      -2.117  14.314  23.930  0.00  0.00    +0.000 A 
ATOM     12  C   UNL     1      -1.524  14.483  22.672  0.00  0.00    +0.000 A 
ATOM     13  C   UNL     1      -1.355  15.805  22.234  0.00  0.00    +0.000 A 
ATOM     14  C   UNL     1      -1.762  16.906  23.004  0.00  0.00    +0.000 A 
BRANCH   9  16
ATOM     15  C   UNL     1      -4.201  17.724  25.292  0.00  0.00    +0.000 C 
ATOM     16  O   UNL     1      -2.794  17.697  25.081  0.00  0.00    +0.000 OA
ENDBRANCH   9  16
ENDBRANCH   1  12
BRANCH   5  17
ATOM     17  C   UNL     1       1.093  10.332  18.451  0.00  0.00    +0.000 C 
BRANCH  17  18
ATOM     18  N   UNL     1       1.555   9.214  19.239  0.00  0.00    +0.000 N 
ATOM     19  N   UNL     1       1.132   9.024  20.500  0.00  0.00    +0.000 NA
ATOM     20  N   UNL     1       1.532   7.800  20.813  0.00  0.00    +0.000 NA
ATOM     21  C   UNL     1       2.137   7.273  19.693  0.00  0.00    +0.000 A 
ATOM     22  N   UNL     1       2.130   8.132  18.660  0.00  0.00    +0.000 NA
BRANCH  21  23
ATOM     23  C   UNL     1       2.689   5.920  19.665  0.00  0.00    +0.000 A 
ATOM     24  C   UNL     1       1.889   4.799  19.895  0.00  0.00    +0.000 A 
ATOM     25  C   UNL     1       2.444   3.518  19.827  0.00  0.00    +0.000 A 
ATOM     26  C   UNL     1       3.804   3.324  19.544  0.00  0.00    +0.000 A 
ATOM     27  C   UNL     1       4.628   4.445  19.343  0.00  0.00    +0.000 A 
ATOM     28  C   UNL     1       4.054   5.727  19.401  0.00  0.00    +0.000 A 
BRANCH  26  29
ATOM     29  O   UNL     1       4.142   1.994  19.494  0.00  0.00    +0.000 OA
ATOM     30  C   UNL     1       3.719   1.214  18.386  0.00  0.00    +0.000 C 
ENDBRANCH  26  29
BRANCH  27  31
ATOM     31  O   UNL     1       5.962   4.239  19.108  0.00  0.00    +0.000 OA
ATOM     32  C   UNL     1       6.500   4.642  17.856  0.00  0.00    +0.000 C 
ENDBRANCH  27  31
ENDBRANCH  21  23
ENDBRANCH  17  18
ENDBRANCH   5  17
TORSDOF 7
ENDMDL
MODEL 5
REMARK VINA RESULT:      -6.7      2.721      3.624
REMARK  Name = 
REMARK  10 active torsions:
REMARK  status: ('A' for Active; 'I' for Inactive)
REMARK    1  A    between atoms: C_1  and  O_2
REMARK    2  A    between atoms: O_2  and  C_3
REMARK    3  A    between atoms: C_6  and  N_7
REMARK    4  A    between atoms: C_11  and  C_13
REMARK    5  A    between atoms: C_13  and  N_14
REMARK    6  A    between atoms: C_17  and  C_18
REMARK    7  A    between atoms: C_21  and  O_22
REMARK    8  A    between atoms: O_22  and  C_23
REMARK    9  A    between atoms: C_24  and  O_25
REMARK   10  A    between atoms: O_25  and  C_26
REMARK                            x       y       z     vdW  Elec       q    Type
REMARK                         _______ _______ _______ _____ _____    ______ ____
ROOT
ATOM      1  N   UNL     1       1.813   8.009  19.642  0.00  0.00    +0.000 N 
ATOM      2  C   UNL     1       1.917   8.906  18.478  0.00  0.00    +0.000 C 
ATOM      3  C   UNL     1       0.667   9.807  18.416  0.00  0.00    +0.000 C 
ATOM      4  N   UNL     1       0.453  10.519  19.686  0.00  0.00    +0.000 N 
ATOM      5  C   UNL     1       0.202  11.882  19.668  0.00  0.00    +0.000 C 
ATOM      6  O   UNL     1       0.187  12.514  18.606  0.00  0.00    +0.000 OA
ATOM      7  C   UNL     1       0.373   9.622  20.854  0.00  0.00    +0.000 C 
ATOM      8  C   UNL     1       1.597   8.683  20.933  0.00  0.00    +0.000 C 
ENDROOT
BRANCH   1  12
ATOM      9  C   UNL     1       2.490   3.844  19.362  0.00  0.00    +0.000 A 
ATOM     10  C   UNL     1       2.771   4.679  18.286  0.00  0.00    +0.000 A 
ATOM     11  C   UNL     1       2.567   6.064  18.384  0.00  0.00    +0.000 A 
ATOM     12  C   UNL     1       2.066   6.655  19.551  0.00  0.00    +0.000 A 
ATOM     13  C   UNL     1       1.784   5.789  20.618  0.00  0.00    +0.000 A 
ATOM     14  C   UNL     1       1.983   4.402  20.529  0.00  0.00    +0.000 A 
BRANCH   9  16
ATOM     15  C   UNL     1       2.750   2.106  17.786  0.00  0.00    +0.000 C 
ATOM     16  O   UNL     1       2.707   2.511  19.149  0.00  0.00    +0.000 OA
ENDBRANCH   9  16
ENDBRANCH   1  12
BRANCH   5  17
ATOM     17  C   UNL     1       0.022  12.631  20.967  0.00  0.00    +0.000 C 
BRANCH  17  18
ATOM     18  N   UNL     1       1.115  13.535  21.235  0.00  0.00    +0.000 N 
ATOM     19  N   UNL     1       1.046  14.443  22.223  0.00  0.00    +0.000 NA
ATOM     20  N   UNL     1       2.283  14.899  22.354  0.00  0.00    +0.000 NA
ATOM     21  C   UNL     1       3.069  14.195  21.469  0.00  0.00    +0.000 A 
ATOM     22  N   UNL     1       2.364  13.289  20.772  0.00  0.00    +0.000 NA
BRANCH  21  23
ATOM     23  C   UNL     1       4.508  14.421  21.350  0.00  0.00    +0.000 A 
ATOM     24  C   UNL     1       5.389  14.090  22.382  0.00  0.00    +0.000 A 
ATOM     25  C   UNL     1       6.763  14.288  22.220  0.00  0.00    +0.000 A 
ATOM     26  C   UNL     1       7.289  14.833  21.039  0.00  0.00    +0.000 A 
ATOM     27  C   UNL     1       6.412  15.202  20.005  0.00  0.00    +0.000 A 
ATOM     28  C   UNL     1       5.033  14.983  20.176  0.00  0.00    +0.000 A 
BRANCH  26  29
ATOM     29  O   UNL     1       8.660  14.918  21.071  0.00  0.00    +0.000 OA
ATOM     30  C   UNL     1       9.405  13.867  21.664  0.00  0.00    +0.000 C 
ENDBRANCH  26  29
BRANCH  27  31
ATOM     31  O   UNL     1       6.939  15.770  18.875  0.00  0.00    +0.000 OA
ATOM     32  C   UNL     1       7.346  14.916  17.814  0.00  0.00    +0.000 C 
ENDBRANCH  27  31
ENDBRANCH  21  23
ENDBRANCH  17  18
ENDBRANCH   5  17
TORSDOF 7
ENDMDL
MODEL 6
REMARK VINA RESULT:      -6.7      3.911     10.363
REMARK  Name = 
REMARK  10 active torsions:
REMARK  status: ('A' for Active; 'I' for Inactive)
REMARK    1  A    between atoms: C_1  and  O_2
REMARK    2  A    between atoms: O_2  and  C_3
REMARK    3  A    between atoms: C_6  and  N_7
REMARK    4  A    between atoms: C_11  and  C_13
REMARK    5  A    between atoms: C_13  and  N_14
REMARK    6  A    between atoms: C_17  and  C_18
REMARK    7  A    between atoms: C_21  and  O_22
REMARK    8  A    between atoms: O_22  and  C_23
REMARK    9  A    between atoms: C_24  and  O_25
REMARK   10  A    between atoms: O_25  and  C_26
REMARK                            x       y       z     vdW  Elec       q    Type
REMARK                         _______ _______ _______ _____ _____    ______ ____
ROOT
ATOM      1  N   UNL     1      -0.908  11.877  21.610  0.00  0.00    +0.000 N 
ATOM      2  C   UNL     1      -0.658  11.712  20.167  0.00  0.00    +0.000 C 
ATOM      3  C   UNL     1       0.712  11.034  19.961  0.00  0.00    +0.000 C 
ATOM      4  N   UNL     1       0.809   9.776  20.719  0.00  0.00    +0.000 N 
ATOM      5  C   UNL     1       1.275   8.635  20.085  0.00  0.00    +0.000 C 
ATOM      6  O   UNL     1       1.579   8.649  18.887  0.00  0.00    +0.000 OA
ATOM      7  C   UNL     1       0.535   9.938  22.159  0.00  0.00    +0.000 C 
ATOM      8  C   UNL     1      -0.819  10.640  22.405  0.00  0.00    +0.000 C 
ENDROOT
BRANCH   1  12
ATOM      9  C   UNL     1      -2.189  15.537  23.297  0.00  0.00    +0.000 A 
ATOM     10  C   UNL     1      -1.997  15.421  21.924  0.00  0.00    +0.000 A 
ATOM     11  C   UNL     1      -1.593  14.202  21.360  0.00  0.00    +0.000 A 
ATOM     12  C   UNL     1      -1.355  13.067  22.147  0.00  0.00    +0.000 A 
ATOM     13  C   UNL     1      -1.549  13.214  23.529  0.00  0.00    +0.000 A 
ATOM     14  C   UNL     1      -1.953  14.430  24.103  0.00  0.00    +0.000 A 
BRANCH   9  16
ATOM     15  C   UNL     1      -3.638  16.796  24.672  0.00  0.00    +0.000 C 
ATOM     16  O   UNL     1      -2.564  16.775  23.740  0.00  0.00    +0.000 OA
ENDBRANCH   9  16
ENDBRANCH   1  12
BRANCH   5  17
ATOM     17  C   UNL     1       1.340   7.329  20.841  0.00  0.00    +0.000 C 
BRANCH  17  18
ATOM     18  N   UNL     1       2.165   6.350  20.174  0.00  0.00    +0.000 N 
ATOM     19  N   UNL     1       1.754   5.081  20.013  0.00  0.00    +0.000 NA
ATOM     20  N   UNL     1       2.610   4.551  19.152  0.00  0.00    +0.000 NA
ATOM     21  C   UNL     1       3.480   5.553  18.779  0.00  0.00    +0.000 A 
ATOM     22  N   UNL     1       3.197   6.721  19.379  0.00  0.00    +0.000 NA
BRANCH  21  23
ATOM     23  C   UNL     1       4.559   5.333  17.818  0.00  0.00    +0.000 A 
ATOM     24  C   UNL     1       4.565   4.228  16.964  0.00  0.00    +0.000 A 
ATOM     25  C   UNL     1       5.596   4.069  16.034  0.00  0.00    +0.000 A 
ATOM     26  C   UNL     1       6.647   4.993  15.942  0.00  0.00    +0.000 A 
ATOM     27  C   UNL     1       6.672   6.092  16.817  0.00  0.00    +0.000 A 
ATOM     28  C   UNL     1       5.621   6.248  17.738  0.00  0.00    +0.000 A 
BRANCH  26  29
ATOM     29  O   UNL     1       7.538   4.670  14.947  0.00  0.00    +0.000 OA
ATOM     30  C   UNL     1       7.138   4.796  13.592  0.00  0.00    +0.000 C 
ENDBRANCH  26  29
BRANCH  27  31
ATOM     31  O   UNL     1       7.726   6.963  16.740  0.00  0.00    +0.000 OA
ATOM     32  C   UNL     1       7.716   8.115  17.571  0.00  0.00    +0.000 C 
ENDBRANCH  27  31
ENDBRANCH  21  23
ENDBRANCH  17  18
ENDBRANCH   5  17
TORSDOF 7
ENDMDL
MODEL 7
REMARK VINA RESULT:      -6.7      1.416      1.945
REMARK  Name = 
REMARK  10 active torsions:
REMARK  status: ('A' for Active; 'I' for Inactive)
REMARK    1  A    between atoms: C_1  and  O_2
REMARK    2  A    between atoms: O_2  and  C_3
REMARK    3  A    between atoms: C_6  and  N_7
REMARK    4  A    between atoms: C_11  and  C_13
REMARK    5  A    between atoms: C_13  and  N_14
REMARK    6  A    between atoms: C_17  and  C_18
REMARK    7  A    between atoms: C_21  and  O_22
REMARK    8  A    between atoms: O_22  and  C_23
REMARK    9  A    between atoms: C_24  and  O_25
REMARK   10  A    between atoms: O_25  and  C_26
REMARK                            x       y       z     vdW  Elec       q    Type
REMARK                         _______ _______ _______ _____ _____    ______ ____
ROOT
ATOM      1  N   UNL     1       2.524   6.789  18.316  0.00  0.00    +0.000 N 
ATOM      2  C   UNL     1       1.900   6.393  19.592  0.00  0.00    +0.000 C 
ATOM      3  C   UNL     1       1.948   7.581  20.573  0.00  0.00    +0.000 C 
ATOM      4  N   UNL     1       1.354   8.792  19.982  0.00  0.00    +0.000 N 
ATOM      5  C   UNL     1       0.432   9.523  20.713  0.00  0.00    +0.000 C 
ATOM      6  O   UNL     1       0.076   9.158  21.840  0.00  0.00    +0.000 OA
ATOM      7  C   UNL     1       1.963   9.173  18.694  0.00  0.00    +0.000 C 
ATOM      8  C   UNL     1       1.958   7.997  17.693  0.00  0.00    +0.000 C 
ENDROOT
BRANCH   1  12
ATOM      9  C   UNL     1       5.295   4.327  16.282  0.00  0.00    +0.000 A 
ATOM     10  C   UNL     1       5.431   5.711  16.259  0.00  0.00    +0.000 A 
ATOM     11  C   UNL     1       4.525   6.528  16.951  0.00  0.00    +0.000 A 
ATOM     12  C   UNL     1       3.451   5.993  17.675  0.00  0.00    +0.000 A 
ATOM     13  C   UNL     1       3.334   4.595  17.675  0.00  0.00    +0.000 A 
ATOM     14  C   UNL     1       4.234   3.768  16.984  0.00  0.00    +0.000 A 
BRANCH   9  16
ATOM     15  C   UNL     1       6.578   4.201  14.304  0.00  0.00    +0.000 C 
ATOM     16  O   UNL     1       6.222   3.629  15.557  0.00  0.00    +0.000 OA
ENDBRANCH   9  16
ENDBRANCH   1  12
BRANCH   5  17
ATOM     17  C   UNL     1      -0.215  10.743  20.102  0.00  0.00    +0.000 C 
BRANCH  17  18
ATOM     18  N   UNL     1       0.544  11.947  20.345  0.00  0.00    +0.000 N 
ATOM     19  N   UNL     1       0.566  12.527  21.557  0.00  0.00    +0.000 NA
ATOM     20  N   UNL     1       1.543  13.420  21.489  0.00  0.00    +0.000 NA
ATOM     21  C   UNL     1       2.116  13.299  20.242  0.00  0.00    +0.000 A 
ATOM     22  N   UNL     1       1.531  12.340  19.505  0.00  0.00    +0.000 NA
BRANCH  21  23
ATOM     23  C   UNL     1       3.247  14.122  19.817  0.00  0.00    +0.000 A 
ATOM     24  C   UNL     1       3.542  14.319  18.466  0.00  0.00    +0.000 A 
ATOM     25  C   UNL     1       4.610  15.140  18.096  0.00  0.00    +0.000 A 
ATOM     26  C   UNL     1       5.415  15.770  19.056  0.00  0.00    +0.000 A 
ATOM     27  C   UNL     1       5.150  15.555  20.420  0.00  0.00    +0.000 A 
ATOM     28  C   UNL     1       4.063  14.738  20.778  0.00  0.00    +0.000 A 
BRANCH  26  29
ATOM     29  O   UNL     1       6.389  16.554  18.487  0.00  0.00    +0.000 OA
ATOM     30  C   UNL     1       7.663  15.990  18.222  0.00  0.00    +0.000 C 
ENDBRANCH  26  29
BRANCH  27  31
ATOM     31  O   UNL     1       5.971  16.145  21.344  0.00  0.00    +0.000 OA
ATOM     32  C   UNL     1       5.380  16.763  22.479  0.00  0.00    +0.000 C 
ENDBRANCH  27  31
ENDBRANCH  21  23
ENDBRANCH  17  18
ENDBRANCH   5  17
TORSDOF 7
ENDMDL
MODEL 8
REMARK VINA RESULT:      -6.7      2.964      4.233
REMARK  Name = 
REMARK  10 active torsions:
REMARK  status: ('A' for Active; 'I' for Inactive)
REMARK    1  A    between atoms: C_1  and  O_2
REMARK    2  A    between atoms: O_2  and  C_3
REMARK    3  A    between atoms: C_6  and  N_7
REMARK    4  A    between atoms: C_11  and  C_13
REMARK    5  A    between atoms: C_13  and  N_14
REMARK    6  A    between atoms: C_17  and  C_18
REMARK    7  A    between atoms: C_21  and  O_22
REMARK    8  A    between atoms: O_22  and  C_23
REMARK    9  A    between atoms: C_24  and  O_25
REMARK   10  A    between atoms: O_25  and  C_26
REMARK                            x       y       z     vdW  Elec       q    Type
REMARK                         _______ _______ _______ _____ _____    ______ ____
ROOT
ATOM      1  N   UNL     1       1.830   7.939  19.643  0.00  0.00    +0.000 N 
ATOM      2  C   UNL     1       2.032   8.836  18.492  0.00  0.00    +0.000 C 
ATOM      3  C   UNL     1       0.822   9.784  18.366  0.00  0.00    +0.000 C 
ATOM      4  N   UNL     1       0.565  10.499  19.627  0.00  0.00    +0.000 N 
ATOM      5  C   UNL     1       0.367  11.870  19.603  0.00  0.00    +0.000 C 
ATOM      6  O   UNL     1       0.434  12.507  18.546  0.00  0.00    +0.000 OA
ATOM      7  C   UNL     1       0.387   9.601  20.784  0.00  0.00    +0.000 C 
ATOM      8  C   UNL     1       1.569   8.616  20.925  0.00  0.00    +0.000 C 
ENDROOT
BRANCH   1  12
ATOM      9  C   UNL     1       2.364   3.752  19.386  0.00  0.00    +0.000 A 
ATOM     10  C   UNL     1       2.629   4.567  18.290  0.00  0.00    +0.000 A 
ATOM     11  C   UNL     1       2.473   5.957  18.380  0.00  0.00    +0.000 A 
ATOM     12  C   UNL     1       2.037   6.577  19.558  0.00  0.00    +0.000 A 
ATOM     13  C   UNL     1       1.770   5.731  20.646  0.00  0.00    +0.000 A 
ATOM     14  C   UNL     1       1.921   4.338  20.565  0.00  0.00    +0.000 A 
BRANCH   9  16
ATOM     15  C   UNL     1       3.164   2.050  17.959  0.00  0.00    +0.000 C 
ATOM     16  O   UNL     1       2.530   2.410  19.180  0.00  0.00    +0.000 OA
ENDBRANCH   9  16
ENDBRANCH   1  12
BRANCH   5  17
ATOM     17  C   UNL     1       0.144  12.621  20.895  0.00  0.00    +0.000 C 
BRANCH  17  18
ATOM     18  N   UNL     1       1.239  13.507  21.211  0.00  0.00    +0.000 N 
ATOM     19  N   UNL     1       1.117  14.466  22.143  0.00  0.00    +0.000 NA
ATOM     20  N   UNL     1       2.352  14.894  22.357  0.00  0.00    +0.000 NA
ATOM     21  C   UNL     1       3.187  14.125  21.576  0.00  0.00    +0.000 A 
ATOM     22  N   UNL     1       2.514  13.204  20.867  0.00  0.00    +0.000 NA
BRANCH  21  23
ATOM     23  C   UNL     1       4.638  14.306  21.569  0.00  0.00    +0.000 A 
ATOM     24  C   UNL     1       5.272  15.096  20.607  0.00  0.00    +0.000 A 
ATOM     25  C   UNL     1       6.657  15.274  20.652  0.00  0.00    +0.000 A 
ATOM     26  C   UNL     1       7.442  14.661  21.639  0.00  0.00    +0.000 A 
ATOM     27  C   UNL     1       6.822  13.837  22.594  0.00  0.00    +0.000 A 
ATOM     28  C   UNL     1       5.425  13.678  22.546  0.00  0.00    +0.000 A 
BRANCH  26  29
ATOM     29  O   UNL     1       8.772  14.986  21.524  0.00  0.00    +0.000 OA
ATOM     30  C   UNL     1       9.298  15.303  20.244  0.00  0.00    +0.000 C 
ENDBRANCH  26  29
BRANCH  27  31
ATOM     31  O   UNL     1       7.608  13.214  23.526  0.00  0.00    +0.000 OA
ATOM     32  C   UNL     1       8.001  11.869  23.293  0.00  0.00    +0.000 C 
ENDBRANCH  27  31
ENDBRANCH  21  23
ENDBRANCH  17  18
ENDBRANCH   5  17
TORSDOF 7
ENDMDL
MODEL 9
REMARK VINA RESULT:      -6.6      1.848      2.630
REMARK  Name = 
REMARK  10 active torsions:
REMARK  status: ('A' for Active; 'I' for Inactive)
REMARK    1  A    between atoms: C_1  and  O_2
REMARK    2  A    between atoms: O_2  and  C_3
REMARK    3  A    between atoms: C_6  and  N_7
REMARK    4  A    between atoms: C_11  and  C_13
REMARK    5  A    between atoms: C_13  and  N_14
REMARK    6  A    between atoms: C_17  and  C_18
REMARK    7  A    between atoms: C_21  and  O_22
REMARK    8  A    between atoms: O_22  and  C_23
REMARK    9  A    between atoms: C_24  and  O_25
REMARK   10  A    between atoms: O_25  and  C_26
REMARK                            x       y       z     vdW  Elec       q    Type
REMARK                         _______ _______ _______ _____ _____    ______ ____
ROOT
ATOM      1  N   UNL     1       1.572   8.642  19.137  0.00  0.00    +0.000 N 
ATOM      2  C   UNL     1       1.285   9.416  17.916  0.00  0.00    +0.000 C 
ATOM      3  C   UNL     1      -0.201   9.827  17.911  0.00  0.00    +0.000 C 
ATOM      4  N   UNL     1      -0.569  10.531  19.150  0.00  0.00    +0.000 N 
ATOM      5  C   UNL     1      -1.278  11.719  19.072  0.00  0.00    +0.000 C 
ATOM      6  O   UNL     1      -1.578  12.214  17.980  0.00  0.00    +0.000 OA
ATOM      7  C   UNL     1      -0.260   9.765  20.372  0.00  0.00    +0.000 C 
ATOM      8  C   UNL     1       1.216   9.311  20.399  0.00  0.00    +0.000 C 
ENDROOT
BRANCH   1  12
ATOM      9  C   UNL     1       3.804   5.051  19.059  0.00  0.00    +0.000 A 
ATOM     10  C   UNL     1       2.904   5.301  20.090  0.00  0.00    +0.000 A 
ATOM     11  C   UNL     1       2.147   6.482  20.106  0.00  0.00    +0.000 A 
ATOM     12  C   UNL     1       2.273   7.454  19.105  0.00  0.00    +0.000 A 
ATOM     13  C   UNL     1       3.193   7.180  18.081  0.00  0.00    +0.000 A 
ATOM     14  C   UNL     1       3.957   6.002  18.057  0.00  0.00    +0.000 A 
BRANCH   9  16
ATOM     15  C   UNL     1       3.716   2.703  19.288  0.00  0.00    +0.000 C 
ATOM     16  O   UNL     1       4.504   3.880  19.154  0.00  0.00    +0.000 OA
ENDBRANCH   9  16
ENDBRANCH   1  12
BRANCH   5  17
ATOM     17  C   UNL     1      -1.625  12.472  20.335  0.00  0.00    +0.000 C 
BRANCH  17  18
ATOM     18  N   UNL     1      -0.513  13.242  20.839  0.00  0.00    +0.000 N 
ATOM     19  N   UNL     1       0.107  12.910  21.983  0.00  0.00    +0.000 NA
ATOM     20  N   UNL     1       1.211  13.643  21.997  0.00  0.00    +0.000 NA
ATOM     21  C   UNL     1       1.241  14.352  20.817  0.00  0.00    +0.000 A 
ATOM     22  N   UNL     1       0.180  14.087  20.038  0.00  0.00    +0.000 NA
BRANCH  21  23
ATOM     23  C   UNL     1       2.335  15.261  20.478  0.00  0.00    +0.000 A 
ATOM     24  C   UNL     1       3.383  15.508  21.367  0.00  0.00    +0.000 A 
ATOM     25  C   UNL     1       4.430  16.356  20.995  0.00  0.00    +0.000 A 
ATOM     26  C   UNL     1       4.450  16.988  19.743  0.00  0.00    +0.000 A 
ATOM     27  C   UNL     1       3.385  16.775  18.851  0.00  0.00    +0.000 A 
ATOM     28  C   UNL     1       2.346  15.908  19.232  0.00  0.00    +0.000 A 
BRANCH  26  29
ATOM     29  O   UNL     1       5.576  17.754  19.564  0.00  0.00    +0.000 OA
ATOM     30  C   UNL     1       6.714  17.177  18.944  0.00  0.00    +0.000 C 
ENDBRANCH  26  29
BRANCH  27  31
ATOM     31  O   UNL     1       3.401  17.431  17.649  0.00  0.00    +0.000 OA
ATOM     32  C   UNL     1       2.862  16.773  16.511  0.00  0.00    +0.000 C 
ENDBRANCH  27  31
ENDBRANCH  21  23
ENDBRANCH  17  18
ENDBRANCH   5  17
TORSDOF 7
ENDMDL
