MODEL 1
REMARK VINA RESULT:      -6.6      0.000      0.000
REMARK  Name = 
REMARK  8 active torsions:
REMARK  status: ('A' for Active; 'I' for Inactive)
REMARK    1  A    between atoms: C_1  and  C_2
REMARK    2  A    between atoms: C_2  and  C_3
REMARK    3  A    between atoms: C_2  and  O_4
REMARK    4  A    between atoms: O_4  and  C_5
REMARK    5  A    between atoms: C_8  and  C_9
REMARK    6  A    between atoms: C_9  and  O_11
REMARK    7  A    between atoms: C_12  and  C_13
REMARK    8  A    between atoms: C_13  and  O_15
REMARK                            x       y       z     vdW  Elec       q    Type
REMARK                         _______ _______ _______ _____ _____    ______ ____
ROOT
ATOM      1  C   UNL     1       3.946   4.601  18.703  0.00  0.00    +0.000 A 
ATOM      2  C   UNL     1       3.494   4.301  17.425  0.00  0.00    +0.000 A 
ATOM      3  C   UNL     1       4.398   4.238  16.358  0.00  0.00    +0.000 A 
ATOM      4  C   UNL     1       5.776   4.479  16.530  0.00  0.00    +0.000 A 
ATOM      5  C   UNL     1       6.218   4.770  17.835  0.00  0.00    +0.000 A 
ATOM      6  C   UNL     1       5.307   4.785  18.916  0.00  0.00    +0.000 A 
ENDROOT
BRANCH   4   7
ATOM      7  C   UNL     1       6.576   4.437  15.256  0.00  0.00    +0.000 C 
ATOM      8  O   UNL     1       7.467   5.256  15.066  0.00  0.00    +0.000 OA
BRANCH   7   9
ATOM      9  O   UNL     1       6.360   3.465  14.358  0.00  0.00    +0.000 OA
ATOM     10  H   UNL     1       5.450   3.362  13.995  0.00  0.00    +0.000 HD
ENDBRANCH   7   9
ENDBRANCH   4   7
BRANCH   5  11
ATOM     11  C   UNL     1       7.630   5.012  18.172  0.00  0.00    +0.000 C 
ATOM     12  O   UNL     1       7.995   6.017  18.759  0.00  0.00    +0.000 OA
BRANCH  11  13
ATOM     13  O   UNL     1       8.479   4.027  17.811  0.00  0.00    +0.000 OA
ATOM     14  H   UNL     1       8.946   3.565  18.532  0.00  0.00    +0.000 HD
ENDBRANCH  11  13
ENDBRANCH   5  11
BRANCH   1  15
ATOM     15  O   UNL     1       3.002   4.629  19.687  0.00  0.00    +0.000 OA
BRANCH  15  17
ATOM     16  C   UNL     1       2.883   2.709  21.104  0.00  0.00    +0.000 C 
ATOM     17  C   UNL     1       2.258   3.421  19.909  0.00  0.00    +0.000 C 
ATOM     18  C   UNL     1       0.809   3.791  20.202  0.00  0.00    +0.000 C 
ENDBRANCH  15  17
ENDBRANCH   1  15
TORSDOF 6
ENDMDL
MODEL 2
REMARK VINA RESULT:      -6.6      2.580      5.657
REMARK  Name = 
REMARK  8 active torsions:
REMARK  status: ('A' for Active; 'I' for Inactive)
REMARK    1  A    between atoms: C_1  and  C_2
REMARK    2  A    between atoms: C_2  and  C_3
REMARK    3  A    between atoms: C_2  and  O_4
REMARK    4  A    between atoms: O_4  and  C_5
REMARK    5  A    between atoms: C_8  and  C_9
REMARK    6  A    between atoms: C_9  and  O_11
REMARK    7  A    between atoms: C_12  and  C_13
REMARK    8  A    between atoms: C_13  and  O_15
REMARK                            x       y       z     vdW  Elec       q    Type
REMARK                         _______ _______ _______ _____ _____    ______ ____
ROOT
ATOM      1  C   UNL     1       4.260   5.677  18.645  0.00  0.00    +0.000 A 
ATOM      2  C   UNL     1       3.089   6.151  19.219  0.00  0.00    +0.000 A 
ATOM      3  C   UNL     1       2.323   5.317  20.041  0.00  0.00    +0.000 A 
ATOM      4  C   UNL     1       2.694   3.984  20.309  0.00  0.00    +0.000 A 
ATOM      5  C   UNL     1       3.891   3.524  19.729  0.00  0.00    +0.000 A 
ATOM      6  C   UNL     1       4.686   4.386  18.938  0.00  0.00    +0.000 A 
ENDROOT
BRANCH   4   7
ATOM      7  C   UNL     1       1.709   3.224  21.154  0.00  0.00    +0.000 C 
ATOM      8  O   UNL     1       1.995   2.922  22.307  0.00  0.00    +0.000 OA
BRANCH   7   9
ATOM      9  O   UNL     1       0.492   2.932  20.671  0.00  0.00    +0.000 OA
ATOM     10  H   UNL     1       0.387   2.107  20.144  0.00  0.00    +0.000 HD
ENDBRANCH   7   9
ENDBRANCH   4   7
BRANCH   5  11
ATOM     11  C   UNL     1       4.422   2.168  19.944  0.00  0.00    +0.000 C 
ATOM     12  O   UNL     1       4.970   1.842  20.985  0.00  0.00    +0.000 OA
BRANCH  11  13
ATOM     13  O   UNL     1       4.228   1.311  18.921  0.00  0.00    +0.000 OA
ATOM     14  H   UNL     1       4.921   0.640  18.772  0.00  0.00    +0.000 HD
ENDBRANCH  11  13
ENDBRANCH   5  11
BRANCH   1  15
ATOM     15  O   UNL     1       4.954   6.558  17.869  0.00  0.00    +0.000 OA
BRANCH  15  17
ATOM     16  C   UNL     1       5.551   5.985  15.628  0.00  0.00    +0.000 C 
ATOM     17  C   UNL     1       6.026   6.022  17.076  0.00  0.00    +0.000 C 
ATOM     18  C   UNL     1       7.239   6.934  17.221  0.00  0.00    +0.000 C 
ENDBRANCH  15  17
ENDBRANCH   1  15
TORSDOF 6
ENDMDL
MODEL 3
REMARK VINA RESULT:      -6.6      2.313      5.482
REMARK  Name = 
REMARK  8 active torsions:
REMARK  status: ('A' for Active; 'I' for Inactive)
REMARK    1  A    between atoms: C_1  and  C_2
REMARK    2  A    between atoms: C_2  and  C_3
REMARK    3  A    between atoms: C_2  and  O_4
REMARK    4  A    between atoms: O_4  and  C_5
REMARK    5  A    between atoms: C_8  and  C_9
REMARK    6  A    between atoms: C_9  and  O_11
REMARK    7  A    between atoms: C_12  and  C_13
REMARK    8  A    between atoms: C_13  and  O_15
REMARK                            x       y       z     vdW  Elec       q    Type
REMARK                         _______ _______ _______ _____ _____    ______ ____
ROOT
ATOM      1  C   UNL     1       4.295   5.468  18.133  0.00  0.00    +0.000 A 
ATOM      2  C   UNL     1       2.969   5.714  17.807  0.00  0.00    +0.000 A 
ATOM      3  C   UNL     1       1.957   4.892  18.314  0.00  0.00    +0.000 A 
ATOM      4  C   UNL     1       2.235   3.796  19.155  0.00  0.00    +0.000 A 
ATOM      5  C   UNL     1       3.584   3.567  19.486  0.00  0.00    +0.000 A 
ATOM      6  C   UNL     1       4.597   4.431  19.008  0.00  0.00    +0.000 A 
ENDROOT
BRANCH   4   7
ATOM      7  C   UNL     1       1.025   2.988  19.540  0.00  0.00    +0.000 C 
ATOM      8  O   UNL     1       0.449   2.309  18.698  0.00  0.00    +0.000 OA
BRANCH   7   9
ATOM      9  O   UNL     1       0.615   2.957  20.817  0.00  0.00    +0.000 OA
ATOM     10  H   UNL     1       1.123   2.404  21.454  0.00  0.00    +0.000 HD
ENDBRANCH   7   9
ENDBRANCH   4   7
BRANCH   5  11
ATOM     11  C   UNL     1       4.023   2.482  20.377  0.00  0.00    +0.000 C 
ATOM     12  O   UNL     1       3.518   2.295  21.472  0.00  0.00    +0.000 OA
BRANCH  11  13
ATOM     13  O   UNL     1       4.998   1.695  19.879  0.00  0.00    +0.000 OA
ATOM     14  H   UNL     1       5.028   1.594  18.908  0.00  0.00    +0.000 HD
ENDBRANCH  11  13
ENDBRANCH   5  11
BRANCH   1  15
ATOM     15  O   UNL     1       5.217   6.324  17.608  0.00  0.00    +0.000 OA
BRANCH  15  17
ATOM     16  C   UNL     1       6.733   5.302  16.069  0.00  0.00    +0.000 C 
ATOM     17  C   UNL     1       6.563   5.836  17.487  0.00  0.00    +0.000 C 
ATOM     18  C   UNL     1       7.523   6.992  17.745  0.00  0.00    +0.000 C 
ENDBRANCH  15  17
ENDBRANCH   1  15
TORSDOF 6
ENDMDL
MODEL 4
REMARK VINA RESULT:      -6.5      0.883      1.181
REMARK  Name = 
REMARK  8 active torsions:
REMARK  status: ('A' for Active; 'I' for Inactive)
REMARK    1  A    between atoms: C_1  and  C_2
REMARK    2  A    between atoms: C_2  and  C_3
REMARK    3  A    between atoms: C_2  and  O_4
REMARK    4  A    between atoms: O_4  and  C_5
REMARK    5  A    between atoms: C_8  and  C_9
REMARK    6  A    between atoms: C_9  and  O_11
REMARK    7  A    between atoms: C_12  and  C_13
REMARK    8  A    between atoms: C_13  and  O_15
REMARK                            x       y       z     vdW  Elec       q    Type
REMARK                         _______ _______ _______ _____ _____    ______ ____
ROOT
ATOM      1  C   UNL     1       4.065   3.999  18.877  0.00  0.00    +0.000 A 
ATOM      2  C   UNL     1       3.444   3.705  17.671  0.00  0.00    +0.000 A 
ATOM      3  C   UNL     1       4.140   3.859  16.467  0.00  0.00    +0.000 A 
ATOM      4  C   UNL     1       5.473   4.317  16.427  0.00  0.00    +0.000 A 
ATOM      5  C   UNL     1       6.092   4.598  17.659  0.00  0.00    +0.000 A 
ATOM      6  C   UNL     1       5.398   4.395  18.875  0.00  0.00    +0.000 A 
ENDROOT
BRANCH   4   7
ATOM      7  C   UNL     1       6.028   4.486  15.039  0.00  0.00    +0.000 C 
ATOM      8  O   UNL     1       6.337   5.602  14.635  0.00  0.00    +0.000 OA
BRANCH   7   9
ATOM      9  O   UNL     1       6.246   3.413  14.265  0.00  0.00    +0.000 OA
ATOM     10  H   UNL     1       5.526   2.745  14.184  0.00  0.00    +0.000 HD
ENDBRANCH   7   9
ENDBRANCH   4   7
BRANCH   5  11
ATOM     11  C   UNL     1       7.486   5.053  17.776  0.00  0.00    +0.000 C 
ATOM     12  O   UNL     1       8.381   4.317  18.159  0.00  0.00    +0.000 OA
BRANCH  11  13
ATOM     13  O   UNL     1       7.702   6.329  17.397  0.00  0.00    +0.000 OA
ATOM     14  H   UNL     1       8.627   6.583  17.217  0.00  0.00    +0.000 HD
ENDBRANCH  11  13
ENDBRANCH   5  11
BRANCH   1  15
ATOM     15  O   UNL     1       3.321   3.809  20.004  0.00  0.00    +0.000 OA
BRANCH  15  17
ATOM     16  C   UNL     1       1.139   3.169  20.736  0.00  0.00    +0.000 C 
ATOM     17  C   UNL     1       1.939   4.196  19.943  0.00  0.00    +0.000 C 
ATOM     18  C   UNL     1       1.797   5.582  20.562  0.00  0.00    +0.000 C 
ENDBRANCH  15  17
ENDBRANCH   1  15
TORSDOF 6
ENDMDL
MODEL 5
REMARK VINA RESULT:      -6.5      0.839      1.145
REMARK  Name = 
REMARK  8 active torsions:
REMARK  status: ('A' for Active; 'I' for Inactive)
REMARK    1  A    between atoms: C_1  and  C_2
REMARK    2  A    between atoms: C_2  and  C_3
REMARK    3  A    between atoms: C_2  and  O_4
REMARK    4  A    between atoms: O_4  and  C_5
REMARK    5  A    between atoms: C_8  and  C_9
REMARK    6  A    between atoms: C_9  and  O_11
REMARK    7  A    between atoms: C_12  and  C_13
REMARK    8  A    between atoms: C_13  and  O_15
REMARK                            x       y       z     vdW  Elec       q    Type
REMARK                         _______ _______ _______ _____ _____    ______ ____
ROOT
ATOM      1  C   UNL     1       3.952   4.660  19.142  0.00  0.00    +0.000 A 
ATOM      2  C   UNL     1       3.646   4.190  17.871  0.00  0.00    +0.000 A 
ATOM      3  C   UNL     1       4.597   4.264  16.848  0.00  0.00    +0.000 A 
ATOM      4  C   UNL     1       5.879   4.814  17.056  0.00  0.00    +0.000 A 
ATOM      5  C   UNL     1       6.176   5.274  18.353  0.00  0.00    +0.000 A 
ATOM      6  C   UNL     1       5.227   5.153  19.394  0.00  0.00    +0.000 A 
ENDROOT
BRANCH   4   7
ATOM      7  C   UNL     1       6.736   4.873  15.820  0.00  0.00    +0.000 C 
ATOM      8  O   UNL     1       6.694   3.961  15.003  0.00  0.00    +0.000 OA
BRANCH   7   9
ATOM      9  O   UNL     1       7.497   5.950  15.579  0.00  0.00    +0.000 OA
ATOM     10  H   UNL     1       7.680   6.189  14.641  0.00  0.00    +0.000 HD
ENDBRANCH   7   9
ENDBRANCH   4   7
BRANCH   5  11
ATOM     11  C   UNL     1       7.481   5.843  18.726  0.00  0.00    +0.000 C 
ATOM     12  O   UNL     1       7.866   6.920  18.303  0.00  0.00    +0.000 OA
BRANCH  11  13
ATOM     13  O   UNL     1       8.199   5.099  19.592  0.00  0.00    +0.000 OA
ATOM     14  H   UNL     1       9.137   4.947  19.368  0.00  0.00    +0.000 HD
ENDBRANCH  11  13
ENDBRANCH   5  11
BRANCH   1  15
ATOM     15  O   UNL     1       2.974   4.538  20.084  0.00  0.00    +0.000 OA
BRANCH  15  17
ATOM     16  C   UNL     1       2.558   2.713  21.568  0.00  0.00    +0.000 C 
ATOM     17  C   UNL     1       2.309   3.267  20.170  0.00  0.00    +0.000 C 
ATOM     18  C   UNL     1       0.818   3.483  19.935  0.00  0.00    +0.000 C 
ENDBRANCH  15  17
ENDBRANCH   1  15
TORSDOF 6
ENDMDL
MODEL 6
REMARK VINA RESULT:      -6.5      1.855      2.036
REMARK  Name = 
REMARK  8 active torsions:
REMARK  status: ('A' for Active; 'I' for Inactive)
REMARK    1  A    between atoms: C_1  and  C_2
REMARK    2  A    between atoms: C_2  and  C_3
REMARK    3  A    between atoms: C_2  and  O_4
REMARK    4  A    between atoms: O_4  and  C_5
REMARK    5  A    between atoms: C_8  and  C_9
REMARK    6  A    between atoms: C_9  and  O_11
REMARK    7  A    between atoms: C_12  and  C_13
REMARK    8  A    between atoms: C_13  and  O_15
REMARK                            x       y       z     vdW  Elec       q    Type
REMARK                         _______ _______ _______ _____ _____    ______ ____
ROOT
ATOM      1  C   UNL     1       3.069   4.999  19.464  0.00  0.00    +0.000 A 
ATOM      2  C   UNL     1       2.630   5.721  18.362  0.00  0.00    +0.000 A 
ATOM      3  C   UNL     1       3.555   6.247  17.454  0.00  0.00    +0.000 A 
ATOM      4  C   UNL     1       4.944   6.076  17.617  0.00  0.00    +0.000 A 
ATOM      5  C   UNL     1       5.372   5.330  18.732  0.00  0.00    +0.000 A 
ATOM      6  C   UNL     1       4.429   4.762  19.621  0.00  0.00    +0.000 A 
ENDROOT
BRANCH   4   7
ATOM      7  C   UNL     1       5.781   6.773  16.579  0.00  0.00    +0.000 C 
ATOM      8  O   UNL     1       5.384   6.847  15.422  0.00  0.00    +0.000 OA
BRANCH   7   9
ATOM      9  O   UNL     1       6.929   7.371  16.930  0.00  0.00    +0.000 OA
ATOM     10  H   UNL     1       7.384   7.932  16.260  0.00  0.00    +0.000 HD
ENDBRANCH   7   9
ENDBRANCH   4   7
BRANCH   5  11
ATOM     11  C   UNL     1       6.787   5.043  19.015  0.00  0.00    +0.000 C 
ATOM     12  O   UNL     1       7.339   5.432  20.032  0.00  0.00    +0.000 OA
BRANCH  11  13
ATOM     13  O   UNL     1       7.413   4.295  18.084  0.00  0.00    +0.000 OA
ATOM     14  H   UNL     1       7.164   4.452  17.154  0.00  0.00    +0.000 HD
ENDBRANCH  11  13
ENDBRANCH   5  11
BRANCH   1  15
ATOM     15  O   UNL     1       2.102   4.511  20.292  0.00  0.00    +0.000 OA
BRANCH  15  17
ATOM     16  C   UNL     1       1.545   2.681  21.725  0.00  0.00    +0.000 C 
ATOM     17  C   UNL     1       1.913   3.086  20.302  0.00  0.00    +0.000 C 
ATOM     18  C   UNL     1       0.785   2.741  19.336  0.00  0.00    +0.000 C 
ENDBRANCH  15  17
ENDBRANCH   1  15
TORSDOF 6
ENDMDL
MODEL 7
REMARK VINA RESULT:      -6.4      1.208      1.522
REMARK  Name = 
REMARK  8 active torsions:
REMARK  status: ('A' for Active; 'I' for Inactive)
REMARK    1  A    between atoms: C_1  and  C_2
REMARK    2  A    between atoms: C_2  and  C_3
REMARK    3  A    between atoms: C_2  and  O_4
REMARK    4  A    between atoms: O_4  and  C_5
REMARK    5  A    between atoms: C_8  and  C_9
REMARK    6  A    between atoms: C_9  and  O_11
REMARK    7  A    between atoms: C_12  and  C_13
REMARK    8  A    between atoms: C_13  and  O_15
REMARK                            x       y       z     vdW  Elec       q    Type
REMARK                         _______ _______ _______ _____ _____    ______ ____
ROOT
ATOM      1  C   UNL     1       3.551   3.908  18.654  0.00  0.00    +0.000 A 
ATOM      2  C   UNL     1       3.508   3.590  17.303  0.00  0.00    +0.000 A 
ATOM      3  C   UNL     1       4.576   3.935  16.467  0.00  0.00    +0.000 A 
ATOM      4  C   UNL     1       5.714   4.612  16.948  0.00  0.00    +0.000 A 
ATOM      5  C   UNL     1       5.747   4.916  18.322  0.00  0.00    +0.000 A 
ATOM      6  C   UNL     1       4.686   4.522  19.170  0.00  0.00    +0.000 A 
ENDROOT
BRANCH   4   7
ATOM      7  C   UNL     1       6.723   4.960  15.887  0.00  0.00    +0.000 C 
ATOM      8  O   UNL     1       7.870   4.535  15.969  0.00  0.00    +0.000 OA
BRANCH   7   9
ATOM      9  O   UNL     1       6.354   5.681  14.817  0.00  0.00    +0.000 OA
ATOM     10  H   UNL     1       5.391   5.813  14.657  0.00  0.00    +0.000 HD
ENDBRANCH   7   9
ENDBRANCH   4   7
BRANCH   5  11
ATOM     11  C   UNL     1       6.882   5.591  18.972  0.00  0.00    +0.000 C 
ATOM     12  O   UNL     1       7.324   5.227  20.049  0.00  0.00    +0.000 OA
BRANCH  11  13
ATOM     13  O   UNL     1       7.410   6.616  18.273  0.00  0.00    +0.000 OA
ATOM     14  H   UNL     1       7.114   7.513  18.517  0.00  0.00    +0.000 HD
ENDBRANCH  11  13
ENDBRANCH   5  11
BRANCH   1  15
ATOM     15  O   UNL     1       2.476   3.524  19.400  0.00  0.00    +0.000 OA
BRANCH  15  17
ATOM     16  C   UNL     1       1.527   5.256  20.746  0.00  0.00    +0.000 C 
ATOM     17  C   UNL     1       2.414   4.015  20.749  0.00  0.00    +0.000 C 
ATOM     18  C   UNL     1       1.813   2.928  21.633  0.00  0.00    +0.000 C 
ENDBRANCH  15  17
ENDBRANCH   1  15
TORSDOF 6
ENDMDL
MODEL 8
REMARK VINA RESULT:      -6.4      0.858      1.222
REMARK  Name = 
REMARK  8 active torsions:
REMARK  status: ('A' for Active; 'I' for Inactive)
REMARK    1  A    between atoms: C_1  and  C_2
REMARK    2  A    between atoms: C_2  and  C_3
REMARK    3  A    between atoms: C_2  and  O_4
REMARK    4  A    between atoms: O_4  and  C_5
REMARK    5  A    between atoms: C_8  and  C_9
REMARK    6  A    between atoms: C_9  and  O_11
REMARK    7  A    between atoms: C_12  and  C_13
REMARK    8  A    between atoms: C_13  and  O_15
REMARK                            x       y       z     vdW  Elec       q    Type
REMARK                         _______ _______ _______ _____ _____    ______ ____
ROOT
ATOM      1  C   UNL     1       4.069   3.930  18.791  0.00  0.00    +0.000 A 
ATOM      2  C   UNL     1       3.426   3.698  17.582  0.00  0.00    +0.000 A 
ATOM      3  C   UNL     1       4.105   3.902  16.376  0.00  0.00    +0.000 A 
ATOM      4  C   UNL     1       5.441   4.350  16.335  0.00  0.00    +0.000 A 
ATOM      5  C   UNL     1       6.081   4.568  17.570  0.00  0.00    +0.000 A 
ATOM      6  C   UNL     1       5.405   4.315  18.786  0.00  0.00    +0.000 A 
ENDROOT
BRANCH   4   7
ATOM      7  C   UNL     1       5.976   4.580  14.948  0.00  0.00    +0.000 C 
ATOM      8  O   UNL     1       5.777   3.749  14.070  0.00  0.00    +0.000 OA
BRANCH   7   9
ATOM      9  O   UNL     1       6.615   5.721  14.653  0.00  0.00    +0.000 OA
ATOM     10  H   UNL     1       7.204   6.115  15.339  0.00  0.00    +0.000 HD
ENDBRANCH   7   9
ENDBRANCH   4   7
BRANCH   5  11
ATOM     11  C   UNL     1       7.482   5.006  17.685  0.00  0.00    +0.000 C 
ATOM     12  O   UNL     1       7.800   6.184  17.661  0.00  0.00    +0.000 OA
BRANCH  11  13
ATOM     13  O   UNL     1       8.377   4.010  17.850  0.00  0.00    +0.000 OA
ATOM     14  H   UNL     1       9.300   4.203  17.596  0.00  0.00    +0.000 HD
ENDBRANCH  11  13
ENDBRANCH   5  11
BRANCH   1  15
ATOM     15  O   UNL     1       3.340   3.694  19.919  0.00  0.00    +0.000 OA
BRANCH  15  17
ATOM     16  C   UNL     1       1.164   3.060  20.673  0.00  0.00    +0.000 C 
ATOM     17  C   UNL     1       1.963   4.104  19.901  0.00  0.00    +0.000 C 
ATOM     18  C   UNL     1       1.855   5.468  20.572  0.00  0.00    +0.000 C 
ENDBRANCH  15  17
ENDBRANCH   1  15
TORSDOF 6
ENDMDL
MODEL 9
REMARK VINA RESULT:      -6.4      1.202      1.648
REMARK  Name = 
REMARK  8 active torsions:
REMARK  status: ('A' for Active; 'I' for Inactive)
REMARK    1  A    between atoms: C_1  and  C_2
REMARK    2  A    between atoms: C_2  and  C_3
REMARK    3  A    between atoms: C_2  and  O_4
REMARK    4  A    between atoms: O_4  and  C_5
REMARK    5  A    between atoms: C_8  and  C_9
REMARK    6  A    between atoms: C_9  and  O_11
REMARK    7  A    between atoms: C_12  and  C_13
REMARK    8  A    between atoms: C_13  and  O_15
REMARK                            x       y       z     vdW  Elec       q    Type
REMARK                         _______ _______ _______ _____ _____    ______ ____
ROOT
ATOM      1  C   UNL     1       3.622   3.581  18.793  0.00  0.00    +0.000 A 
ATOM      2  C   UNL     1       3.153   3.934  17.535  0.00  0.00    +0.000 A 
ATOM      3  C   UNL     1       3.991   4.601  16.635  0.00  0.00    +0.000 A 
ATOM      4  C   UNL     1       5.320   4.942  16.962  0.00  0.00    +0.000 A 
ATOM      5  C   UNL     1       5.783   4.565  18.236  0.00  0.00    +0.000 A 
ATOM      6  C   UNL     1       4.946   3.850  19.123  0.00  0.00    +0.000 A 
ENDROOT
BRANCH   4   7
ATOM      7  C   UNL     1       6.041   5.718  15.893  0.00  0.00    +0.000 C 
ATOM      8  O   UNL     1       5.546   6.746  15.444  0.00  0.00    +0.000 OA
BRANCH   7   9
ATOM      9  O   UNL     1       7.254   5.325  15.478  0.00  0.00    +0.000 OA
ATOM     10  H   UNL     1       7.627   4.495  15.855  0.00  0.00    +0.000 HD
ENDBRANCH   7   9
ENDBRANCH   4   7
BRANCH   5  11
ATOM     11  C   UNL     1       7.154   4.825  18.705  0.00  0.00    +0.000 C 
ATOM     12  O   UNL     1       8.136   4.476  18.069  0.00  0.00    +0.000 OA
BRANCH  11  13
ATOM     13  O   UNL     1       7.239   5.502  19.868  0.00  0.00    +0.000 OA
ATOM     14  H   UNL     1       8.121   5.838  20.117  0.00  0.00    +0.000 HD
ENDBRANCH  11  13
ENDBRANCH   5  11
BRANCH   1  15
ATOM     15  O   UNL     1       2.746   2.923  19.604  0.00  0.00    +0.000 OA
BRANCH  15  17
ATOM     16  C   UNL     1       1.694   4.832  20.582  0.00  0.00    +0.000 C 
ATOM     17  C   UNL     1       2.443   3.535  20.867  0.00  0.00    +0.000 C 
ATOM     18  C   UNL     1       1.572   2.578  21.674  0.00  0.00    +0.000 C 
ENDBRANCH  15  17
ENDBRANCH   1  15
TORSDOF 6
ENDMDL
