MODEL 1
REMARK VINA RESULT:      -7.0      0.000      0.000
REMARK  Name = 
REMARK  10 active torsions:
REMARK  status: ('A' for Active; 'I' for Inactive)
REMARK    1  A    between atoms: C_1  and  C_2
REMARK    2  A    between atoms: C_2  and  N_3
REMARK    3  A    between atoms: C_6  and  C_7
REMARK    4  A    between atoms: C_7  and  N_8
REMARK    5  A    between atoms: N_11  and  C_12
REMARK    6  A    between atoms: C_12  and  C_13
REMARK    7  A    between atoms: C_12  and  C_14
REMARK    8  A    between atoms: C_12  and  C_17
REMARK    9  A    between atoms: C_14  and  O_15
REMARK   10  A    between atoms: O_15  and  C_16
REMARK                            x       y       z     vdW  Elec       q    Type
REMARK                         _______ _______ _______ _____ _____    ______ ____
ROOT
ATOM      1  N   UNL     1       6.245   5.582  16.888  0.00  0.00    +0.000 N 
ATOM      2  C   UNL     1       5.060   5.206  17.450  0.00  0.00    +0.000 C 
ATOM      3  O   UNL     1       4.697   4.021  17.482  0.00  0.00    +0.000 OA
ATOM      4  N   UNL     1       4.328   6.220  17.977  0.00  0.00    +0.000 N 
ATOM      5  H   UNL     1       6.354   6.506  16.493  0.00  0.00    +0.000 HD
ATOM      6  H   UNL     1       4.835   7.065  18.152  0.00  0.00    +0.000 HD
ENDROOT
BRANCH   4   7
ATOM      7  C   UNL     1       3.043   6.032  18.709  0.00  0.00    +0.000 C 
ATOM      8  C   UNL     1       2.073   5.176  17.847  0.00  0.00    +0.000 C 
BRANCH   7   9
ATOM      9  C   UNL     1       2.355   7.406  18.966  0.00  0.00    +0.000 A 
ATOM     10  C   UNL     1       1.773   7.749  20.203  0.00  0.00    +0.000 A 
ATOM     11  C   UNL     1       1.028   8.918  20.364  0.00  0.00    +0.000 A 
ATOM     12  C   UNL     1       0.872   9.795  19.302  0.00  0.00    +0.000 A 
ATOM     13  C   UNL     1       1.490   9.520  18.086  0.00  0.00    +0.000 A 
ATOM     14  C   UNL     1       2.232   8.345  17.924  0.00  0.00    +0.000 A 
ENDBRANCH   7   9
BRANCH   7  15
ATOM     15  C   UNL     1       3.269   5.279  20.078  0.00  0.00    +0.000 C 
BRANCH  15  16
ATOM     16  O   UNL     1       2.669   3.977  20.115  0.00  0.00    +0.000 OA
ATOM     17  C   UNL     1       2.149   3.675  21.409  0.00  0.00    +0.000 C 
ENDBRANCH  15  16
ENDBRANCH   7  15
ENDBRANCH   4   7
BRANCH   1  18
ATOM     18  C   UNL     1       7.058   4.529  16.305  0.00  0.00    +0.000 C 
BRANCH  18  22
ATOM     19  N   UNL     1       6.332   3.686  12.919  0.00  0.00    +0.000 N 
ATOM     20  C   UNL     1       7.148   4.745  12.647  0.00  0.00    +0.000 A 
ATOM     21  C   UNL     1       7.540   5.238  13.863  0.00  0.00    +0.000 A 
ATOM     22  C   UNL     1       6.894   4.421  14.826  0.00  0.00    +0.000 A 
ATOM     23  N   UNL     1       6.160   3.461  14.241  0.00  0.00    +0.000 NA
BRANCH  19  25
ATOM     24  C   UNL     1       4.327   3.350  11.531  0.00  0.00    +0.000 C 
ATOM     25  C   UNL     1       5.696   2.831  11.936  0.00  0.00    +0.000 C 
ENDBRANCH  19  25
ENDBRANCH  18  22
ENDBRANCH   1  18
TORSDOF 7
ENDMDL
MODEL 2
REMARK VINA RESULT:      -7.0      0.908      1.438
REMARK  Name = 
REMARK  10 active torsions:
REMARK  status: ('A' for Active; 'I' for Inactive)
REMARK    1  A    between atoms: C_1  and  C_2
REMARK    2  A    between atoms: C_2  and  N_3
REMARK    3  A    between atoms: C_6  and  C_7
REMARK    4  A    between atoms: C_7  and  N_8
REMARK    5  A    between atoms: N_11  and  C_12
REMARK    6  A    between atoms: C_12  and  C_13
REMARK    7  A    between atoms: C_12  and  C_14
REMARK    8  A    between atoms: C_12  and  C_17
REMARK    9  A    between atoms: C_14  and  O_15
REMARK   10  A    between atoms: O_15  and  C_16
REMARK                            x       y       z     vdW  Elec       q    Type
REMARK                         _______ _______ _______ _____ _____    ______ ____
ROOT
ATOM      1  N   UNL     1       5.988   5.897  16.000  0.00  0.00    +0.000 N 
ATOM      2  C   UNL     1       5.137   5.313  16.894  0.00  0.00    +0.000 C 
ATOM      3  O   UNL     1       5.308   4.154  17.300  0.00  0.00    +0.000 OA
ATOM      4  N   UNL     1       4.112   6.100  17.308  0.00  0.00    +0.000 N 
ATOM      5  H   UNL     1       5.656   6.620  15.376  0.00  0.00    +0.000 HD
ATOM      6  H   UNL     1       4.236   7.080  17.148  0.00  0.00    +0.000 HD
ENDROOT
BRANCH   4   7
ATOM      7  C   UNL     1       3.111   5.698  18.338  0.00  0.00    +0.000 C 
ATOM      8  C   UNL     1       2.071   4.733  17.704  0.00  0.00    +0.000 C 
BRANCH   7   9
ATOM      9  C   UNL     1       2.338   6.944  18.862  0.00  0.00    +0.000 A 
ATOM     10  C   UNL     1       2.061   8.066  18.056  0.00  0.00    +0.000 A 
ATOM     11  C   UNL     1       1.506   9.232  18.586  0.00  0.00    +0.000 A 
ATOM     12  C   UNL     1       1.180   9.296  19.933  0.00  0.00    +0.000 A 
ATOM     13  C   UNL     1       1.376   8.182  20.742  0.00  0.00    +0.000 A 
ATOM     14  C   UNL     1       1.938   7.016  20.211  0.00  0.00    +0.000 A 
ENDBRANCH   7   9
BRANCH   7  15
ATOM     15  C   UNL     1       3.801   4.946  19.542  0.00  0.00    +0.000 C 
BRANCH  15  16
ATOM     16  O   UNL     1       3.206   3.674  19.832  0.00  0.00    +0.000 OA
ATOM     17  C   UNL     1       4.173   2.735  20.298  0.00  0.00    +0.000 C 
ENDBRANCH  15  16
ENDBRANCH   7  15
ENDBRANCH   4   7
BRANCH   1  18
ATOM     18  C   UNL     1       7.097   5.088  15.525  0.00  0.00    +0.000 C 
BRANCH  18  22
ATOM     19  N   UNL     1       6.307   3.521  12.424  0.00  0.00    +0.000 N 
ATOM     20  C   UNL     1       7.206   4.416  11.923  0.00  0.00    +0.000 A 
ATOM     21  C   UNL     1       7.637   5.154  12.995  0.00  0.00    +0.000 A 
ATOM     22  C   UNL     1       6.926   4.644  14.111  0.00  0.00    +0.000 A 
ATOM     23  N   UNL     1       6.116   3.633  13.757  0.00  0.00    +0.000 NA
BRANCH  19  25
ATOM     24  C   UNL     1       6.545   1.441  11.130  0.00  0.00    +0.000 C 
ATOM     25  C   UNL     1       5.604   2.509  11.659  0.00  0.00    +0.000 C 
ENDBRANCH  19  25
ENDBRANCH  18  22
ENDBRANCH   1  18
TORSDOF 7
ENDMDL
MODEL 3
REMARK VINA RESULT:      -6.9      2.131      7.547
REMARK  Name = 
REMARK  10 active torsions:
REMARK  status: ('A' for Active; 'I' for Inactive)
REMARK    1  A    between atoms: C_1  and  C_2
REMARK    2  A    between atoms: C_2  and  N_3
REMARK    3  A    between atoms: C_6  and  C_7
REMARK    4  A    between atoms: C_7  and  N_8
REMARK    5  A    between atoms: N_11  and  C_12
REMARK    6  A    between atoms: C_12  and  C_13
REMARK    7  A    between atoms: C_12  and  C_14
REMARK    8  A    between atoms: C_12  and  C_17
REMARK    9  A    between atoms: C_14  and  O_15
REMARK   10  A    between atoms: O_15  and  C_16
REMARK                            x       y       z     vdW  Elec       q    Type
REMARK                         _______ _______ _______ _____ _____    ______ ____
ROOT
ATOM      1  N   UNL     1       4.528   2.728  18.309  0.00  0.00    +0.000 N 
ATOM      2  C   UNL     1       5.100   3.880  17.852  0.00  0.00    +0.000 C 
ATOM      3  O   UNL     1       5.321   4.844  18.600  0.00  0.00    +0.000 OA
ATOM      4  N   UNL     1       5.417   3.879  16.532  0.00  0.00    +0.000 N 
ATOM      5  H   UNL     1       3.986   2.145  17.687  0.00  0.00    +0.000 HD
ATOM      6  H   UNL     1       5.464   2.973  16.107  0.00  0.00    +0.000 HD
ENDROOT
BRANCH   4   7
ATOM      7  C   UNL     1       6.120   4.996  15.838  0.00  0.00    +0.000 C 
ATOM      8  C   UNL     1       5.175   6.226  15.745  0.00  0.00    +0.000 C 
BRANCH   7   9
ATOM      9  C   UNL     1       6.499   4.583  14.385  0.00  0.00    +0.000 A 
ATOM     10  C   UNL     1       7.537   5.203  13.662  0.00  0.00    +0.000 A 
ATOM     11  C   UNL     1       7.758   4.926  12.312  0.00  0.00    +0.000 A 
ATOM     12  C   UNL     1       6.967   3.996  11.654  0.00  0.00    +0.000 A 
ATOM     13  C   UNL     1       5.977   3.317  12.356  0.00  0.00    +0.000 A 
ATOM     14  C   UNL     1       5.753   3.599  13.708  0.00  0.00    +0.000 A 
ENDBRANCH   7   9
BRANCH   7  15
ATOM     15  C   UNL     1       7.413   5.435  16.628  0.00  0.00    +0.000 C 
BRANCH  15  16
ATOM     16  O   UNL     1       7.611   6.855  16.649  0.00  0.00    +0.000 OA
ATOM     17  C   UNL     1       7.808   7.339  17.976  0.00  0.00    +0.000 C 
ENDBRANCH  15  16
ENDBRANCH   7  15
ENDBRANCH   4   7
BRANCH   1  18
ATOM     18  C   UNL     1       4.167   2.689  19.715  0.00  0.00    +0.000 C 
BRANCH  18  22
ATOM     19  N   UNL     1       1.668   5.071  20.599  0.00  0.00    +0.000 N 
ATOM     20  C   UNL     1       0.827   4.006  20.456  0.00  0.00    +0.000 A 
ATOM     21  C   UNL     1       1.619   2.950  20.091  0.00  0.00    +0.000 A 
ATOM     22  C   UNL     1       2.935   3.474  20.019  0.00  0.00    +0.000 A 
ATOM     23  N   UNL     1       2.962   4.778  20.343  0.00  0.00    +0.000 NA
BRANCH  19  25
ATOM     24  C   UNL     1       1.952   7.476  20.159  0.00  0.00    +0.000 C 
ATOM     25  C   UNL     1       1.280   6.408  21.004  0.00  0.00    +0.000 C 
ENDBRANCH  19  25
ENDBRANCH  18  22
ENDBRANCH   1  18
TORSDOF 7
ENDMDL
MODEL 4
REMARK VINA RESULT:      -6.8      2.993      8.070
REMARK  Name = 
REMARK  10 active torsions:
REMARK  status: ('A' for Active; 'I' for Inactive)
REMARK    1  A    between atoms: C_1  and  C_2
REMARK    2  A    between atoms: C_2  and  N_3
REMARK    3  A    between atoms: C_6  and  C_7
REMARK    4  A    between atoms: C_7  and  N_8
REMARK    5  A    between atoms: N_11  and  C_12
REMARK    6  A    between atoms: C_12  and  C_13
REMARK    7  A    between atoms: C_12  and  C_14
REMARK    8  A    between atoms: C_12  and  C_17
REMARK    9  A    between atoms: C_14  and  O_15
REMARK   10  A    between atoms: O_15  and  C_16
REMARK                            x       y       z     vdW  Elec       q    Type
REMARK                         _______ _______ _______ _____ _____    ______ ____
ROOT
ATOM      1  N   UNL     1       2.553   6.959  19.967  0.00  0.00    +0.000 N 
ATOM      2  C   UNL     1       2.780   5.951  19.076  0.00  0.00    +0.000 C 
ATOM      3  O   UNL     1       2.421   6.031  17.891  0.00  0.00    +0.000 OA
ATOM      4  N   UNL     1       3.435   4.876  19.581  0.00  0.00    +0.000 N 
ATOM      5  H   UNL     1       2.454   6.758  20.953  0.00  0.00    +0.000 HD
ATOM      6  H   UNL     1       3.921   5.039  20.441  0.00  0.00    +0.000 HD
ENDROOT
BRANCH   4   7
ATOM      7  C   UNL     1       3.858   3.697  18.772  0.00  0.00    +0.000 C 
ATOM      8  C   UNL     1       4.380   2.578  19.717  0.00  0.00    +0.000 C 
BRANCH   7   9
ATOM      9  C   UNL     1       5.023   4.082  17.813  0.00  0.00    +0.000 A 
ATOM     10  C   UNL     1       6.244   4.618  18.271  0.00  0.00    +0.000 A 
ATOM     11  C   UNL     1       7.211   5.100  17.387  0.00  0.00    +0.000 A 
ATOM     12  C   UNL     1       6.999   5.030  16.019  0.00  0.00    +0.000 A 
ATOM     13  C   UNL     1       5.834   4.445  15.532  0.00  0.00    +0.000 A 
ATOM     14  C   UNL     1       4.863   3.967  16.419  0.00  0.00    +0.000 A 
ENDBRANCH   7   9
BRANCH   7  15
ATOM     15  C   UNL     1       2.650   3.109  17.944  0.00  0.00    +0.000 C 
BRANCH  15  16
ATOM     16  O   UNL     1       1.922   2.092  18.647  0.00  0.00    +0.000 OA
ATOM     17  C   UNL     1       0.674   2.582  19.134  0.00  0.00    +0.000 C 
ENDBRANCH  15  16
ENDBRANCH   7  15
ENDBRANCH   4   7
BRANCH   1  18
ATOM     18  C   UNL     1       1.848   8.128  19.470  0.00  0.00    +0.000 C 
BRANCH  18  22
ATOM     19  N   UNL     1       0.194  10.467  21.590  0.00  0.00    +0.000 N 
ATOM     20  C   UNL     1       0.380   9.502  22.536  0.00  0.00    +0.000 A 
ATOM     21  C   UNL     1       1.015   8.469  21.897  0.00  0.00    +0.000 A 
ATOM     22  C   UNL     1       1.158   8.892  20.550  0.00  0.00    +0.000 A 
ATOM     23  N   UNL     1       0.661  10.126  20.368  0.00  0.00    +0.000 NA
BRANCH  19  25
ATOM     24  C   UNL     1      -1.443  11.723  22.932  0.00  0.00    +0.000 C 
ATOM     25  C   UNL     1      -0.419  11.763  21.811  0.00  0.00    +0.000 C 
ENDBRANCH  19  25
ENDBRANCH  18  22
ENDBRANCH   1  18
TORSDOF 7
ENDMDL
MODEL 5
REMARK VINA RESULT:      -6.8      3.122      4.545
REMARK  Name = 
REMARK  10 active torsions:
REMARK  status: ('A' for Active; 'I' for Inactive)
REMARK    1  A    between atoms: C_1  and  C_2
REMARK    2  A    between atoms: C_2  and  N_3
REMARK    3  A    between atoms: C_6  and  C_7
REMARK    4  A    between atoms: C_7  and  N_8
REMARK    5  A    between atoms: N_11  and  C_12
REMARK    6  A    between atoms: C_12  and  C_13
REMARK    7  A    between atoms: C_12  and  C_14
REMARK    8  A    between atoms: C_12  and  C_17
REMARK    9  A    between atoms: C_14  and  O_15
REMARK   10  A    between atoms: O_15  and  C_16
REMARK                            x       y       z     vdW  Elec       q    Type
REMARK                         _______ _______ _______ _____ _____    ______ ____
ROOT
ATOM      1  N   UNL     1       6.323   5.065  17.616  0.00  0.00    +0.000 N 
ATOM      2  C   UNL     1       5.298   5.047  18.517  0.00  0.00    +0.000 C 
ATOM      3  O   UNL     1       5.463   5.368  19.704  0.00  0.00    +0.000 OA
ATOM      4  N   UNL     1       4.097   4.669  18.012  0.00  0.00    +0.000 N 
ATOM      5  H   UNL     1       6.313   4.445  16.818  0.00  0.00    +0.000 HD
ATOM      6  H   UNL     1       4.020   4.717  17.015  0.00  0.00    +0.000 HD
ENDROOT
BRANCH   4   7
ATOM      7  C   UNL     1       2.827   4.654  18.793  0.00  0.00    +0.000 C 
ATOM      8  C   UNL     1       1.682   4.080  17.913  0.00  0.00    +0.000 C 
BRANCH   7   9
ATOM      9  C   UNL     1       2.423   6.101  19.205  0.00  0.00    +0.000 A 
ATOM     10  C   UNL     1       1.911   6.416  20.480  0.00  0.00    +0.000 A 
ATOM     11  C   UNL     1       1.411   7.685  20.777  0.00  0.00    +0.000 A 
ATOM     12  C   UNL     1       1.440   8.685  19.817  0.00  0.00    +0.000 A 
ATOM     13  C   UNL     1       2.000   8.427  18.570  0.00  0.00    +0.000 A 
ATOM     14  C   UNL     1       2.496   7.153  18.272  0.00  0.00    +0.000 A 
ENDBRANCH   7   9
BRANCH   7  15
ATOM     15  C   UNL     1       2.956   3.744  20.076  0.00  0.00    +0.000 C 
BRANCH  15  16
ATOM     16  O   UNL     1       1.942   2.733  20.158  0.00  0.00    +0.000 OA
ATOM     17  C   UNL     1       1.320   2.716  21.442  0.00  0.00    +0.000 C 
ENDBRANCH  15  16
ENDBRANCH   7  15
ENDBRANCH   4   7
BRANCH   1  18
ATOM     18  C   UNL     1       7.629   5.457  18.116  0.00  0.00    +0.000 C 
BRANCH  18  22
ATOM     19  N   UNL     1       8.503   8.882  18.578  0.00  0.00    +0.000 N 
ATOM     20  C   UNL     1       7.673   9.073  17.512  0.00  0.00    +0.000 A 
ATOM     21  C   UNL     1       7.223   7.828  17.159  0.00  0.00    +0.000 A 
ATOM     22  C   UNL     1       7.851   6.932  18.062  0.00  0.00    +0.000 A 
ATOM     23  N   UNL     1       8.630   7.586  18.939  0.00  0.00    +0.000 NA
BRANCH  19  25
ATOM     24  C   UNL     1       9.601  11.078  18.409  0.00  0.00    +0.000 C 
ATOM     25  C   UNL     1       9.195   9.925  19.309  0.00  0.00    +0.000 C 
ENDBRANCH  19  25
ENDBRANCH  18  22
ENDBRANCH   1  18
TORSDOF 7
ENDMDL
MODEL 6
REMARK VINA RESULT:      -6.8      1.852      3.947
REMARK  Name = 
REMARK  10 active torsions:
REMARK  status: ('A' for Active; 'I' for Inactive)
REMARK    1  A    between atoms: C_1  and  C_2
REMARK    2  A    between atoms: C_2  and  N_3
REMARK    3  A    between atoms: C_6  and  C_7
REMARK    4  A    between atoms: C_7  and  N_8
REMARK    5  A    between atoms: N_11  and  C_12
REMARK    6  A    between atoms: C_12  and  C_13
REMARK    7  A    between atoms: C_12  and  C_14
REMARK    8  A    between atoms: C_12  and  C_17
REMARK    9  A    between atoms: C_14  and  O_15
REMARK   10  A    between atoms: O_15  and  C_16
REMARK                            x       y       z     vdW  Elec       q    Type
REMARK                         _______ _______ _______ _____ _____    ______ ____
ROOT
ATOM      1  N   UNL     1       5.616   5.197  14.768  0.00  0.00    +0.000 N 
ATOM      2  C   UNL     1       5.370   4.897  16.076  0.00  0.00    +0.000 C 
ATOM      3  O   UNL     1       5.934   3.952  16.649  0.00  0.00    +0.000 OA
ATOM      4  N   UNL     1       4.481   5.715  16.694  0.00  0.00    +0.000 N 
ATOM      5  H   UNL     1       4.908   5.648  14.204  0.00  0.00    +0.000 HD
ATOM      6  H   UNL     1       4.319   6.591  16.237  0.00  0.00    +0.000 HD
ENDROOT
BRANCH   4   7
ATOM      7  C   UNL     1       4.123   5.623  18.139  0.00  0.00    +0.000 C 
ATOM      8  C   UNL     1       5.419   5.520  18.990  0.00  0.00    +0.000 C 
BRANCH   7   9
ATOM      9  C   UNL     1       3.278   4.344  18.412  0.00  0.00    +0.000 A 
ATOM     10  C   UNL     1       1.977   4.166  17.902  0.00  0.00    +0.000 A 
ATOM     11  C   UNL     1       1.180   3.086  18.285  0.00  0.00    +0.000 A 
ATOM     12  C   UNL     1       1.674   2.134  19.164  0.00  0.00    +0.000 A 
ATOM     13  C   UNL     1       2.979   2.244  19.634  0.00  0.00    +0.000 A 
ATOM     14  C   UNL     1       3.775   3.330  19.253  0.00  0.00    +0.000 A 
ENDBRANCH   7   9
BRANCH   7  15
ATOM     15  C   UNL     1       3.331   6.904  18.613  0.00  0.00    +0.000 C 
BRANCH  15  16
ATOM     16  O   UNL     1       2.657   7.582  17.545  0.00  0.00    +0.000 OA
ATOM     17  C   UNL     1       2.191   8.868  17.950  0.00  0.00    +0.000 C 
ENDBRANCH  15  16
ENDBRANCH   7  15
ENDBRANCH   4   7
BRANCH   1  18
ATOM     18  C   UNL     1       6.557   4.342  14.065  0.00  0.00    +0.000 C 
BRANCH  18  22
ATOM     19  N   UNL     1       4.520   3.007  11.463  0.00  0.00    +0.000 N 
ATOM     20  C   UNL     1       5.593   2.191  11.257  0.00  0.00    +0.000 A 
ATOM     21  C   UNL     1       6.531   2.564  12.184  0.00  0.00    +0.000 A 
ATOM     22  C   UNL     1       5.942   3.635  12.904  0.00  0.00    +0.000 A 
ATOM     23  N   UNL     1       4.701   3.897  12.463  0.00  0.00    +0.000 NA
BRANCH  19  25
ATOM     24  C   UNL     1       3.107   4.160   9.809  0.00  0.00    +0.000 C 
ATOM     25  C   UNL     1       3.269   2.963  10.730  0.00  0.00    +0.000 C 
ENDBRANCH  19  25
ENDBRANCH  18  22
ENDBRANCH   1  18
TORSDOF 7
ENDMDL
MODEL 7
REMARK VINA RESULT:      -6.8      3.257      7.508
REMARK  Name = 
REMARK  10 active torsions:
REMARK  status: ('A' for Active; 'I' for Inactive)
REMARK    1  A    between atoms: C_1  and  C_2
REMARK    2  A    between atoms: C_2  and  N_3
REMARK    3  A    between atoms: C_6  and  C_7
REMARK    4  A    between atoms: C_7  and  N_8
REMARK    5  A    between atoms: N_11  and  C_12
REMARK    6  A    between atoms: C_12  and  C_13
REMARK    7  A    between atoms: C_12  and  C_14
REMARK    8  A    between atoms: C_12  and  C_17
REMARK    9  A    between atoms: C_14  and  O_15
REMARK   10  A    between atoms: O_15  and  C_16
REMARK                            x       y       z     vdW  Elec       q    Type
REMARK                         _______ _______ _______ _____ _____    ______ ____
ROOT
ATOM      1  N   UNL     1       3.031   8.161  18.052  0.00  0.00    +0.000 N 
ATOM      2  C   UNL     1       2.938   6.801  18.103  0.00  0.00    +0.000 C 
ATOM      3  O   UNL     1       1.862   6.210  17.922  0.00  0.00    +0.000 OA
ATOM      4  N   UNL     1       4.105   6.155  18.351  0.00  0.00    +0.000 N 
ATOM      5  H   UNL     1       3.743   8.646  18.581  0.00  0.00    +0.000 HD
ATOM      6  H   UNL     1       4.933   6.695  18.191  0.00  0.00    +0.000 HD
ENDROOT
BRANCH   4   7
ATOM      7  C   UNL     1       4.254   4.671  18.371  0.00  0.00    +0.000 C 
ATOM      8  C   UNL     1       4.082   4.112  16.931  0.00  0.00    +0.000 C 
BRANCH   7   9
ATOM      9  C   UNL     1       3.152   4.025  19.262  0.00  0.00    +0.000 A 
ATOM     10  C   UNL     1       2.974   4.359  20.619  0.00  0.00    +0.000 A 
ATOM     11  C   UNL     1       2.087   3.658  21.437  0.00  0.00    +0.000 A 
ATOM     12  C   UNL     1       1.326   2.624  20.912  0.00  0.00    +0.000 A 
ATOM     13  C   UNL     1       1.428   2.313  19.560  0.00  0.00    +0.000 A 
ATOM     14  C   UNL     1       2.322   3.012  18.742  0.00  0.00    +0.000 A 
ENDBRANCH   7   9
BRANCH   7  15
ATOM     15  C   UNL     1       5.683   4.247  18.889  0.00  0.00    +0.000 C 
BRANCH  15  16
ATOM     16  O   UNL     1       6.315   5.251  19.696  0.00  0.00    +0.000 OA
ATOM     17  C   UNL     1       7.571   5.650  19.150  0.00  0.00    +0.000 C 
ENDBRANCH  15  16
ENDBRANCH   7  15
ENDBRANCH   4   7
BRANCH   1  18
ATOM     18  C   UNL     1       1.803   8.894  17.796  0.00  0.00    +0.000 C 
BRANCH  18  22
ATOM     19  N   UNL     1       0.566   9.839  21.002  0.00  0.00    +0.000 N 
ATOM     20  C   UNL     1       0.264  11.007  20.366  0.00  0.00    +0.000 A 
ATOM     21  C   UNL     1       0.688  10.850  19.072  0.00  0.00    +0.000 A 
ATOM     22  C   UNL     1       1.255   9.551  19.018  0.00  0.00    +0.000 A 
ATOM     23  N   UNL     1       1.168   8.929  20.205  0.00  0.00    +0.000 NA
BRANCH  19  25
ATOM     24  C   UNL     1      -0.808  10.428  22.957  0.00  0.00    +0.000 C 
ATOM     25  C   UNL     1       0.278   9.531  22.389  0.00  0.00    +0.000 C 
ENDBRANCH  19  25
ENDBRANCH  18  22
ENDBRANCH   1  18
TORSDOF 7
ENDMDL
MODEL 8
REMARK VINA RESULT:      -6.8      3.388      7.299
REMARK  Name = 
REMARK  10 active torsions:
REMARK  status: ('A' for Active; 'I' for Inactive)
REMARK    1  A    between atoms: C_1  and  C_2
REMARK    2  A    between atoms: C_2  and  N_3
REMARK    3  A    between atoms: C_6  and  C_7
REMARK    4  A    between atoms: C_7  and  N_8
REMARK    5  A    between atoms: N_11  and  C_12
REMARK    6  A    between atoms: C_12  and  C_13
REMARK    7  A    between atoms: C_12  and  C_14
REMARK    8  A    between atoms: C_12  and  C_17
REMARK    9  A    between atoms: C_14  and  O_15
REMARK   10  A    between atoms: O_15  and  C_16
REMARK                            x       y       z     vdW  Elec       q    Type
REMARK                         _______ _______ _______ _____ _____    ______ ____
ROOT
ATOM      1  N   UNL     1       1.821   8.670  17.924  0.00  0.00    +0.000 N 
ATOM      2  C   UNL     1       2.424   7.631  18.572  0.00  0.00    +0.000 C 
ATOM      3  O   UNL     1       2.477   7.573  19.810  0.00  0.00    +0.000 OA
ATOM      4  N   UNL     1       2.941   6.673  17.762  0.00  0.00    +0.000 N 
ATOM      5  H   UNL     1       2.121   8.938  16.997  0.00  0.00    +0.000 HD
ATOM      6  H   UNL     1       2.593   6.676  16.823  0.00  0.00    +0.000 HD
ENDROOT
BRANCH   4   7
ATOM      7  C   UNL     1       3.572   5.414  18.251  0.00  0.00    +0.000 C 
ATOM      8  C   UNL     1       3.970   4.526  17.039  0.00  0.00    +0.000 C 
BRANCH   7   9
ATOM      9  C   UNL     1       2.567   4.600  19.119  0.00  0.00    +0.000 A 
ATOM     10  C   UNL     1       2.694   4.472  20.517  0.00  0.00    +0.000 A 
ATOM     11  C   UNL     1       1.875   3.615  21.253  0.00  0.00    +0.000 A 
ATOM     12  C   UNL     1       0.882   2.885  20.616  0.00  0.00    +0.000 A 
ATOM     13  C   UNL     1       0.685   3.040  19.247  0.00  0.00    +0.000 A 
ATOM     14  C   UNL     1       1.510   3.896  18.510  0.00  0.00    +0.000 A 
ENDBRANCH   7   9
BRANCH   7  15
ATOM     15  C   UNL     1       4.880   5.715  19.082  0.00  0.00    +0.000 C 
BRANCH  15  16
ATOM     16  O   UNL     1       6.017   6.015  18.262  0.00  0.00    +0.000 OA
ATOM     17  C   UNL     1       7.237   5.631  18.893  0.00  0.00    +0.000 C 
ENDBRANCH  15  16
ENDBRANCH   7  15
ENDBRANCH   4   7
BRANCH   1  18
ATOM     18  C   UNL     1       1.259   9.722  18.753  0.00  0.00    +0.000 C 
BRANCH  18  22
ATOM     19  N   UNL     1      -1.927  10.229  17.239  0.00  0.00    +0.000 N 
ATOM     20  C   UNL     1      -1.885  11.412  17.919  0.00  0.00    +0.000 A 
ATOM     21  C   UNL     1      -0.698  11.409  18.603  0.00  0.00    +0.000 A 
ATOM     22  C   UNL     1      -0.087  10.167  18.291  0.00  0.00    +0.000 A 
ATOM     23  N   UNL     1      -0.842   9.449  17.443  0.00  0.00    +0.000 NA
BRANCH  19  25
ATOM     24  C   UNL     1      -2.974  10.555  15.036  0.00  0.00    +0.000 C 
ATOM     25  C   UNL     1      -2.991   9.799  16.353  0.00  0.00    +0.000 C 
ENDBRANCH  19  25
ENDBRANCH  18  22
ENDBRANCH   1  18
TORSDOF 7
ENDMDL
MODEL 9
REMARK VINA RESULT:      -6.7      3.031      8.087
REMARK  Name = 
REMARK  10 active torsions:
REMARK  status: ('A' for Active; 'I' for Inactive)
REMARK    1  A    between atoms: C_1  and  C_2
REMARK    2  A    between atoms: C_2  and  N_3
REMARK    3  A    between atoms: C_6  and  C_7
REMARK    4  A    between atoms: C_7  and  N_8
REMARK    5  A    between atoms: N_11  and  C_12
REMARK    6  A    between atoms: C_12  and  C_13
REMARK    7  A    between atoms: C_12  and  C_14
REMARK    8  A    between atoms: C_12  and  C_17
REMARK    9  A    between atoms: C_14  and  O_15
REMARK   10  A    between atoms: O_15  and  C_16
REMARK                            x       y       z     vdW  Elec       q    Type
REMARK                         _______ _______ _______ _____ _____    ______ ____
ROOT
ATOM      1  N   UNL     1       2.500   7.007  20.012  0.00  0.00    +0.000 N 
ATOM      2  C   UNL     1       2.762   6.028  19.098  0.00  0.00    +0.000 C 
ATOM      3  O   UNL     1       2.502   6.170  17.894  0.00  0.00    +0.000 OA
ATOM      4  N   UNL     1       3.335   4.908  19.605  0.00  0.00    +0.000 N 
ATOM      5  H   UNL     1       2.315   6.769  20.977  0.00  0.00    +0.000 HD
ATOM      6  H   UNL     1       3.756   5.016  20.507  0.00  0.00    +0.000 HD
ENDROOT
BRANCH   4   7
ATOM      7  C   UNL     1       3.780   3.748  18.781  0.00  0.00    +0.000 C 
ATOM      8  C   UNL     1       4.303   2.618  19.712  0.00  0.00    +0.000 C 
BRANCH   7   9
ATOM      9  C   UNL     1       4.951   4.162  17.841  0.00  0.00    +0.000 A 
ATOM     10  C   UNL     1       4.883   4.043  16.439  0.00  0.00    +0.000 A 
ATOM     11  C   UNL     1       5.996   4.272  15.628  0.00  0.00    +0.000 A 
ATOM     12  C   UNL     1       7.200   4.661  16.194  0.00  0.00    +0.000 A 
ATOM     13  C   UNL     1       7.283   4.854  17.570  0.00  0.00    +0.000 A 
ATOM     14  C   UNL     1       6.168   4.619  18.382  0.00  0.00    +0.000 A 
ENDBRANCH   7   9
BRANCH   7  15
ATOM     15  C   UNL     1       2.587   3.162  17.929  0.00  0.00    +0.000 C 
BRANCH  15  16
ATOM     16  O   UNL     1       1.882   2.104  18.593  0.00  0.00    +0.000 OA
ATOM     17  C   UNL     1       0.625   2.548  19.101  0.00  0.00    +0.000 C 
ENDBRANCH  15  16
ENDBRANCH   7  15
ENDBRANCH   4   7
BRANCH   1  18
ATOM     18  C   UNL     1       1.879   8.222  19.514  0.00  0.00    +0.000 C 
BRANCH  18  22
ATOM     19  N   UNL     1      -0.008  10.385  21.625  0.00  0.00    +0.000 N 
ATOM     20  C   UNL     1      -0.254   9.235  22.318  0.00  0.00    +0.000 A 
ATOM     21  C   UNL     1       0.398   8.241  21.636  0.00  0.00    +0.000 A 
ATOM     22  C   UNL     1       1.003   8.882  20.525  0.00  0.00    +0.000 A 
ATOM     23  N   UNL     1       0.759  10.203  20.528  0.00  0.00    +0.000 NA
BRANCH  19  25
ATOM     24  C   UNL     1      -1.533  12.221  21.025  0.00  0.00    +0.000 C 
ATOM     25  C   UNL     1      -0.477  11.708  21.988  0.00  0.00    +0.000 C 
ENDBRANCH  19  25
ENDBRANCH  18  22
ENDBRANCH   1  18
TORSDOF 7
ENDMDL
