MODEL 1
REMARK VINA RESULT:      -7.8      0.000      0.000
REMARK  Name = 
REMARK  9 active torsions:
REMARK  status: ('A' for Active; 'I' for Inactive)
REMARK    1  A    between atoms: C_1  and  C_2
REMARK    2  A    between atoms: C_2  and  C_3
REMARK    3  A    between atoms: C_3  and  C_4
REMARK    4  A    between atoms: C_4  and  C_5
REMARK    5  A    between atoms: C_5  and  N_6
REMARK    6  A    between atoms: C_10  and  S_11
REMARK    7  A    between atoms: S_11  and  C_12
REMARK    8  A    between atoms: C_12  and  C_13
REMARK    9  A    between atoms: C_13  and  C_15
REMARK                            x       y       z     vdW  Elec       q    Type
REMARK                         _______ _______ _______ _____ _____    ______ ____
ROOT
ATOM      1  C   UNL     1       6.005   5.210  16.698  0.00  0.00    +0.000 C 
ENDROOT
BRANCH   1   2
ATOM      2  C   UNL     1       5.840   4.694  18.119  0.00  0.00    +0.000 C 
ATOM      3  O   UNL     1       6.783   4.496  18.882  0.00  0.00    +0.000 OA
BRANCH   2   4
ATOM      4  C   UNL     1       4.450   4.433  18.630  0.00  0.00    +0.000 A 
ATOM      5  C   UNL     1       3.293   4.978  18.029  0.00  0.00    +0.000 A 
ATOM      6  C   UNL     1       2.021   4.720  18.558  0.00  0.00    +0.000 A 
ATOM      7  C   UNL     1       1.935   3.920  19.678  0.00  0.00    +0.000 A 
ATOM      8  C   UNL     1       3.054   3.387  20.268  0.00  0.00    +0.000 A 
ATOM      9  C   UNL     1       4.318   3.621  19.772  0.00  0.00    +0.000 A 
ATOM     10  O   UNL     1       2.757   2.635  21.360  0.00  0.00    +0.000 OA
ATOM     11  C   UNL     1       1.321   2.770  21.403  0.00  0.00    +0.000 C 
ATOM     12  O   UNL     1       0.791   3.570  20.323  0.00  0.00    +0.000 OA
ENDBRANCH   2   4
ENDBRANCH   1   2
BRANCH   1  13
ATOM     13  S   UNL     1       5.919   3.875  15.458  0.00  0.00    +0.000 S 
BRANCH  13  18
ATOM     14  N   UNL     1       6.738   4.164  12.850  0.00  0.00    +0.000 N 
ATOM     15  C   UNL     1       7.621   4.960  12.174  0.00  0.00    +0.000 A 
ATOM     16  N   UNL     1       8.244   5.751  13.016  0.00  0.00    +0.000 NA
ATOM     17  N   UNL     1       7.738   5.501  14.273  0.00  0.00    +0.000 NA
ATOM     18  C   UNL     1       6.832   4.556  14.158  0.00  0.00    +0.000 A 
BRANCH  14  19
ATOM     19  C   UNL     1       5.833   3.220  12.230  0.00  0.00    +0.000 C 
BRANCH  19  20
ATOM     20  C   UNL     1       4.690   3.871  11.441  0.00  0.00    +0.000 C 
BRANCH  20  21
ATOM     21  C   UNL     1       3.593   2.845  11.136  0.00  0.00    +0.000 C 
BRANCH  21  23
ATOM     22  C   UNL     1       2.837   4.557   9.456  0.00  0.00    +0.000 C 
ATOM     23  C   UNL     1       2.954   3.072   9.766  0.00  0.00    +0.000 C 
ENDBRANCH  21  23
ENDBRANCH  20  21
ENDBRANCH  19  20
ENDBRANCH  14  19
ENDBRANCH  13  18
ENDBRANCH   1  13
TORSDOF 8
ENDMDL
MODEL 2
REMARK VINA RESULT:      -7.4      0.990      1.017
REMARK  Name = 
REMARK  9 active torsions:
REMARK  status: ('A' for Active; 'I' for Inactive)
REMARK    1  A    between atoms: C_1  and  C_2
REMARK    2  A    between atoms: C_2  and  C_3
REMARK    3  A    between atoms: C_3  and  C_4
REMARK    4  A    between atoms: C_4  and  C_5
REMARK    5  A    between atoms: C_5  and  N_6
REMARK    6  A    between atoms: C_10  and  S_11
REMARK    7  A    between atoms: S_11  and  C_12
REMARK    8  A    between atoms: C_12  and  C_13
REMARK    9  A    between atoms: C_13  and  C_15
REMARK                            x       y       z     vdW  Elec       q    Type
REMARK                         _______ _______ _______ _____ _____    ______ ____
ROOT
ATOM      1  C   UNL     1       6.190   5.986  17.490  0.00  0.00    +0.000 C 
ENDROOT
BRANCH   1   2
ATOM      2  C   UNL     1       5.960   5.498  18.912  0.00  0.00    +0.000 C 
ATOM      3  O   UNL     1       6.863   5.358  19.734  0.00  0.00    +0.000 OA
BRANCH   2   4
ATOM      4  C   UNL     1       4.553   5.191  19.347  0.00  0.00    +0.000 A 
ATOM      5  C   UNL     1       3.512   6.146  19.312  0.00  0.00    +0.000 A 
ATOM      6  C   UNL     1       2.221   5.813  19.749  0.00  0.00    +0.000 A 
ATOM      7  C   UNL     1       2.002   4.533  20.210  0.00  0.00    +0.000 A 
ATOM      8  C   UNL     1       3.010   3.600  20.247  0.00  0.00    +0.000 A 
ATOM      9  C   UNL     1       4.288   3.895  19.824  0.00  0.00    +0.000 A 
ATOM     10  O   UNL     1       2.592   2.404  20.739  0.00  0.00    +0.000 OA
ATOM     11  C   UNL     1       1.208   2.695  21.026  0.00  0.00    +0.000 C 
ATOM     12  O   UNL     1       0.822   4.041  20.672  0.00  0.00    +0.000 OA
ENDBRANCH   2   4
ENDBRANCH   1   2
BRANCH   1  13
ATOM     13  S   UNL     1       5.418   4.898  16.247  0.00  0.00    +0.000 S 
BRANCH  13  18
ATOM     14  N   UNL     1       6.405   4.392  13.731  0.00  0.00    +0.000 N 
ATOM     15  C   UNL     1       7.514   4.750  13.015  0.00  0.00    +0.000 A 
ATOM     16  N   UNL     1       8.304   5.494  13.755  0.00  0.00    +0.000 NA
ATOM     17  N   UNL     1       7.689   5.664  14.976  0.00  0.00    +0.000 NA
ATOM     18  C   UNL     1       6.551   5.008  14.945  0.00  0.00    +0.000 A 
BRANCH  14  19
ATOM     19  C   UNL     1       5.292   3.631  13.208  0.00  0.00    +0.000 C 
BRANCH  19  20
ATOM     20  C   UNL     1       5.479   3.156  11.761  0.00  0.00    +0.000 C 
BRANCH  20  21
ATOM     21  C   UNL     1       4.122   2.904  11.096  0.00  0.00    +0.000 C 
BRANCH  21  23
ATOM     22  C   UNL     1       2.919   4.149   9.271  0.00  0.00    +0.000 C 
ATOM     23  C   UNL     1       3.418   4.204  10.708  0.00  0.00    +0.000 C 
ENDBRANCH  21  23
ENDBRANCH  20  21
ENDBRANCH  19  20
ENDBRANCH  14  19
ENDBRANCH  13  18
ENDBRANCH   1  13
TORSDOF 8
ENDMDL
MODEL 3
REMARK VINA RESULT:      -7.3      2.400      3.569
REMARK  Name = 
REMARK  9 active torsions:
REMARK  status: ('A' for Active; 'I' for Inactive)
REMARK    1  A    between atoms: C_1  and  C_2
REMARK    2  A    between atoms: C_2  and  C_3
REMARK    3  A    between atoms: C_3  and  C_4
REMARK    4  A    between atoms: C_4  and  C_5
REMARK    5  A    between atoms: C_5  and  N_6
REMARK    6  A    between atoms: C_10  and  S_11
REMARK    7  A    between atoms: S_11  and  C_12
REMARK    8  A    between atoms: C_12  and  C_13
REMARK    9  A    between atoms: C_13  and  C_15
REMARK                            x       y       z     vdW  Elec       q    Type
REMARK                         _______ _______ _______ _____ _____    ______ ____
ROOT
ATOM      1  C   UNL     1       4.285   7.719  17.729  0.00  0.00    +0.000 C 
ENDROOT
BRANCH   1   2
ATOM      2  C   UNL     1       2.792   7.564  17.975  0.00  0.00    +0.000 C 
ATOM      3  O   UNL     1       1.956   8.385  17.603  0.00  0.00    +0.000 OA
BRANCH   2   4
ATOM      4  C   UNL     1       2.306   6.334  18.691  0.00  0.00    +0.000 A 
ATOM      5  C   UNL     1       2.197   6.255  20.098  0.00  0.00    +0.000 A 
ATOM      6  C   UNL     1       1.758   5.076  20.717  0.00  0.00    +0.000 A 
ATOM      7  C   UNL     1       1.437   4.003  19.913  0.00  0.00    +0.000 A 
ATOM      8  C   UNL     1       1.540   4.072  18.545  0.00  0.00    +0.000 A 
ATOM      9  C   UNL     1       1.968   5.217  17.907  0.00  0.00    +0.000 A 
ATOM     10  O   UNL     1       1.183   2.910  17.938  0.00  0.00    +0.000 OA
ATOM     11  C   UNL     1       0.860   2.092  19.082  0.00  0.00    +0.000 C 
ATOM     12  O   UNL     1       1.000   2.788  20.339  0.00  0.00    +0.000 OA
ENDBRANCH   2   4
ENDBRANCH   1   2
BRANCH   1  13
ATOM     13  S   UNL     1       4.865   6.717  16.320  0.00  0.00    +0.000 S 
BRANCH  13  18
ATOM     14  N   UNL     1       6.957   4.935  16.400  0.00  0.00    +0.000 N 
ATOM     15  C   UNL     1       7.720   4.351  17.373  0.00  0.00    +0.000 A 
ATOM     16  N   UNL     1       7.301   4.731  18.558  0.00  0.00    +0.000 NA
ATOM     17  N   UNL     1       6.261   5.614  18.367  0.00  0.00    +0.000 NA
ATOM     18  C   UNL     1       6.071   5.733  17.072  0.00  0.00    +0.000 A 
BRANCH  14  19
ATOM     19  C   UNL     1       7.180   4.794  14.978  0.00  0.00    +0.000 C 
BRANCH  19  20
ATOM     20  C   UNL     1       6.223   3.815  14.285  0.00  0.00    +0.000 C 
BRANCH  20  21
ATOM     21  C   UNL     1       6.327   3.946  12.762  0.00  0.00    +0.000 C 
BRANCH  21  23
ATOM     22  C   UNL     1       4.326   3.272  11.394  0.00  0.00    +0.000 C 
ATOM     23  C   UNL     1       5.624   2.799  12.034  0.00  0.00    +0.000 C 
ENDBRANCH  21  23
ENDBRANCH  20  21
ENDBRANCH  19  20
ENDBRANCH  14  19
ENDBRANCH  13  18
ENDBRANCH   1  13
TORSDOF 8
ENDMDL
MODEL 4
REMARK VINA RESULT:      -7.2      1.146      1.235
REMARK  Name = 
REMARK  9 active torsions:
REMARK  status: ('A' for Active; 'I' for Inactive)
REMARK    1  A    between atoms: C_1  and  C_2
REMARK    2  A    between atoms: C_2  and  C_3
REMARK    3  A    between atoms: C_3  and  C_4
REMARK    4  A    between atoms: C_4  and  C_5
REMARK    5  A    between atoms: C_5  and  N_6
REMARK    6  A    between atoms: C_10  and  S_11
REMARK    7  A    between atoms: S_11  and  C_12
REMARK    8  A    between atoms: C_12  and  C_13
REMARK    9  A    between atoms: C_13  and  C_15
REMARK                            x       y       z     vdW  Elec       q    Type
REMARK                         _______ _______ _______ _____ _____    ______ ____
ROOT
ATOM      1  C   UNL     1       4.927   4.808  15.933  0.00  0.00    +0.000 C 
ENDROOT
BRANCH   1   2
ATOM      2  C   UNL     1       4.451   5.316  17.285  0.00  0.00    +0.000 C 
ATOM      3  O   UNL     1       4.805   6.390  17.767  0.00  0.00    +0.000 OA
BRANCH   2   4
ATOM      4  C   UNL     1       3.479   4.476  18.066  0.00  0.00    +0.000 A 
ATOM      5  C   UNL     1       2.528   3.629  17.453  0.00  0.00    +0.000 A 
ATOM      6  C   UNL     1       1.630   2.882  18.228  0.00  0.00    +0.000 A 
ATOM      7  C   UNL     1       1.703   2.999  19.600  0.00  0.00    +0.000 A 
ATOM      8  C   UNL     1       2.624   3.821  20.203  0.00  0.00    +0.000 A 
ATOM      9  C   UNL     1       3.522   4.567  19.469  0.00  0.00    +0.000 A 
ATOM     10  O   UNL     1       2.530   3.799  21.558  0.00  0.00    +0.000 OA
ATOM     11  C   UNL     1       1.431   2.884  21.741  0.00  0.00    +0.000 C 
ATOM     12  O   UNL     1       0.914   2.355  20.500  0.00  0.00    +0.000 OA
ENDBRANCH   2   4
ENDBRANCH   1   2
BRANCH   1  13
ATOM     13  S   UNL     1       6.683   4.316  15.953  0.00  0.00    +0.000 S 
BRANCH  13  18
ATOM     14  N   UNL     1       6.661   4.223  13.206  0.00  0.00    +0.000 N 
ATOM     15  C   UNL     1       7.330   4.848  12.191  0.00  0.00    +0.000 A 
ATOM     16  N   UNL     1       8.228   5.669  12.687  0.00  0.00    +0.000 NA
ATOM     17  N   UNL     1       8.126   5.615  14.059  0.00  0.00    +0.000 NA
ATOM     18  C   UNL     1       7.180   4.752  14.356  0.00  0.00    +0.000 A 
BRANCH  14  19
ATOM     19  C   UNL     1       5.558   3.303  13.027  0.00  0.00    +0.000 C 
BRANCH  19  20
ATOM     20  C   UNL     1       5.513   2.636  11.645  0.00  0.00    +0.000 C 
BRANCH  20  21
ATOM     21  C   UNL     1       4.099   2.703  11.060  0.00  0.00    +0.000 C 
BRANCH  21  23
ATOM     22  C   UNL     1       2.847   4.171   9.446  0.00  0.00    +0.000 C 
ATOM     23  C   UNL     1       3.682   4.134  10.718  0.00  0.00    +0.000 C 
ENDBRANCH  21  23
ENDBRANCH  20  21
ENDBRANCH  19  20
ENDBRANCH  14  19
ENDBRANCH  13  18
ENDBRANCH   1  13
TORSDOF 8
ENDMDL
MODEL 5
REMARK VINA RESULT:      -7.1      3.633      6.149
REMARK  Name = 
REMARK  9 active torsions:
REMARK  status: ('A' for Active; 'I' for Inactive)
REMARK    1  A    between atoms: C_1  and  C_2
REMARK    2  A    between atoms: C_2  and  C_3
REMARK    3  A    between atoms: C_3  and  C_4
REMARK    4  A    between atoms: C_4  and  C_5
REMARK    5  A    between atoms: C_5  and  N_6
REMARK    6  A    between atoms: C_10  and  S_11
REMARK    7  A    between atoms: S_11  and  C_12
REMARK    8  A    between atoms: C_12  and  C_13
REMARK    9  A    between atoms: C_13  and  C_15
REMARK                            x       y       z     vdW  Elec       q    Type
REMARK                         _______ _______ _______ _____ _____    ______ ____
ROOT
ATOM      1  C   UNL     1       4.997   4.745  16.174  0.00  0.00    +0.000 C 
ENDROOT
BRANCH   1   2
ATOM      2  C   UNL     1       4.092   5.487  17.146  0.00  0.00    +0.000 C 
ATOM      3  O   UNL     1       4.068   6.712  17.247  0.00  0.00    +0.000 OA
BRANCH   2   4
ATOM      4  C   UNL     1       3.160   4.686  18.013  0.00  0.00    +0.000 A 
ATOM      5  C   UNL     1       1.891   4.244  17.575  0.00  0.00    +0.000 A 
ATOM      6  C   UNL     1       1.052   3.517  18.432  0.00  0.00    +0.000 A 
ATOM      7  C   UNL     1       1.502   3.249  19.707  0.00  0.00    +0.000 A 
ATOM      8  C   UNL     1       2.734   3.676  20.139  0.00  0.00    +0.000 A 
ATOM      9  C   UNL     1       3.582   4.391  19.322  0.00  0.00    +0.000 A 
ATOM     10  O   UNL     1       2.986   3.316  21.425  0.00  0.00    +0.000 OA
ATOM     11  C   UNL     1       1.763   2.629  21.762  0.00  0.00    +0.000 C 
ATOM     12  O   UNL     1       0.824   2.565  20.666  0.00  0.00    +0.000 OA
ENDBRANCH   2   4
ENDBRANCH   1   2
BRANCH   1  13
ATOM     13  S   UNL     1       6.564   5.627  15.869  0.00  0.00    +0.000 S 
BRANCH  13  18
ATOM     14  N   UNL     1       7.786   6.757  18.058  0.00  0.00    +0.000 N 
ATOM     15  C   UNL     1       8.212   6.326  19.283  0.00  0.00    +0.000 A 
ATOM     16  N   UNL     1       8.002   5.034  19.400  0.00  0.00    +0.000 NA
ATOM     17  N   UNL     1       7.390   4.607  18.242  0.00  0.00    +0.000 NA
ATOM     18  C   UNL     1       7.259   5.648  17.452  0.00  0.00    +0.000 A 
BRANCH  14  19
ATOM     19  C   UNL     1       7.800   8.134  17.614  0.00  0.00    +0.000 C 
BRANCH  19  20
ATOM     20  C   UNL     1       8.601   9.078  18.519  0.00  0.00    +0.000 C 
BRANCH  20  21
ATOM     21  C   UNL     1       8.699  10.473  17.892  0.00  0.00    +0.000 C 
BRANCH  21  23
ATOM     22  C   UNL     1       9.712  11.056  20.119  0.00  0.00    +0.000 C 
ATOM     23  C   UNL     1       9.692  11.370  18.630  0.00  0.00    +0.000 C 
ENDBRANCH  21  23
ENDBRANCH  20  21
ENDBRANCH  19  20
ENDBRANCH  14  19
ENDBRANCH  13  18
ENDBRANCH   1  13
TORSDOF 8
ENDMDL
MODEL 6
REMARK VINA RESULT:      -7.1      3.907      4.920
REMARK  Name = 
REMARK  9 active torsions:
REMARK  status: ('A' for Active; 'I' for Inactive)
REMARK    1  A    between atoms: C_1  and  C_2
REMARK    2  A    between atoms: C_2  and  C_3
REMARK    3  A    between atoms: C_3  and  C_4
REMARK    4  A    between atoms: C_4  and  C_5
REMARK    5  A    between atoms: C_5  and  N_6
REMARK    6  A    between atoms: C_10  and  S_11
REMARK    7  A    between atoms: S_11  and  C_12
REMARK    8  A    between atoms: C_12  and  C_13
REMARK    9  A    between atoms: C_13  and  C_15
REMARK                            x       y       z     vdW  Elec       q    Type
REMARK                         _______ _______ _______ _____ _____    ______ ____
ROOT
ATOM      1  C   UNL     1       2.991   5.476  18.858  0.00  0.00    +0.000 C 
ENDROOT
BRANCH   1   2
ATOM      2  C   UNL     1       3.053   6.867  18.245  0.00  0.00    +0.000 C 
ATOM      3  O   UNL     1       3.793   7.162  17.310  0.00  0.00    +0.000 OA
BRANCH   2   4
ATOM      4  C   UNL     1       2.146   7.934  18.794  0.00  0.00    +0.000 A 
ATOM      5  C   UNL     1       1.629   8.985  18.003  0.00  0.00    +0.000 A 
ATOM      6  C   UNL     1       0.804   9.968  18.569  0.00  0.00    +0.000 A 
ATOM      7  C   UNL     1       0.514   9.875  19.914  0.00  0.00    +0.000 A 
ATOM      8  C   UNL     1       1.013   8.856  20.688  0.00  0.00    +0.000 A 
ATOM      9  C   UNL     1       1.826   7.875  20.162  0.00  0.00    +0.000 A 
ATOM     10  O   UNL     1       0.616   8.947  21.985  0.00  0.00    +0.000 OA
ATOM     11  C   UNL     1      -0.176  10.152  21.944  0.00  0.00    +0.000 C 
ATOM     12  O   UNL     1      -0.262  10.735  20.625  0.00  0.00    +0.000 OA
ENDBRANCH   2   4
ENDBRANCH   1   2
BRANCH   1  13
ATOM     13  S   UNL     1       3.561   4.182  17.707  0.00  0.00    +0.000 S 
BRANCH  13  18
ATOM     14  N   UNL     1       6.076   4.670  16.709  0.00  0.00    +0.000 N 
ATOM     15  C   UNL     1       7.342   4.749  17.219  0.00  0.00    +0.000 A 
ATOM     16  N   UNL     1       7.323   4.486  18.506  0.00  0.00    +0.000 NA
ATOM     17  N   UNL     1       6.012   4.265  18.865  0.00  0.00    +0.000 NA
ATOM     18  C   UNL     1       5.275   4.386  17.783  0.00  0.00    +0.000 A 
BRANCH  14  19
ATOM     19  C   UNL     1       5.715   4.965  15.340  0.00  0.00    +0.000 C 
BRANCH  19  20
ATOM     20  C   UNL     1       6.535   4.198  14.294  0.00  0.00    +0.000 C 
BRANCH  20  21
ATOM     21  C   UNL     1       5.641   3.741  13.137  0.00  0.00    +0.000 C 
BRANCH  21  23
ATOM     22  C   UNL     1       5.764   1.892  11.436  0.00  0.00    +0.000 C 
ATOM     23  C   UNL     1       6.447   3.135  11.988  0.00  0.00    +0.000 C 
ENDBRANCH  21  23
ENDBRANCH  20  21
ENDBRANCH  19  20
ENDBRANCH  14  19
ENDBRANCH  13  18
ENDBRANCH   1  13
TORSDOF 8
ENDMDL
MODEL 7
REMARK VINA RESULT:      -7.0      1.426      1.524
REMARK  Name = 
REMARK  9 active torsions:
REMARK  status: ('A' for Active; 'I' for Inactive)
REMARK    1  A    between atoms: C_1  and  C_2
REMARK    2  A    between atoms: C_2  and  C_3
REMARK    3  A    between atoms: C_3  and  C_4
REMARK    4  A    between atoms: C_4  and  C_5
REMARK    5  A    between atoms: C_5  and  N_6
REMARK    6  A    between atoms: C_10  and  S_11
REMARK    7  A    between atoms: S_11  and  C_12
REMARK    8  A    between atoms: C_12  and  C_13
REMARK    9  A    between atoms: C_13  and  C_15
REMARK                            x       y       z     vdW  Elec       q    Type
REMARK                         _______ _______ _______ _____ _____    ______ ____
ROOT
ATOM      1  C   UNL     1       5.991   5.809  17.285  0.00  0.00    +0.000 C 
ENDROOT
BRANCH   1   2
ATOM      2  C   UNL     1       4.603   6.369  17.552  0.00  0.00    +0.000 C 
ATOM      3  O   UNL     1       4.114   7.299  16.914  0.00  0.00    +0.000 OA
BRANCH   2   4
ATOM      4  C   UNL     1       3.772   5.741  18.637  0.00  0.00    +0.000 A 
ATOM      5  C   UNL     1       2.719   6.421  19.290  0.00  0.00    +0.000 A 
ATOM      6  C   UNL     1       1.988   5.796  20.311  0.00  0.00    +0.000 A 
ATOM      7  C   UNL     1       2.327   4.504  20.654  0.00  0.00    +0.000 A 
ATOM      8  C   UNL     1       3.349   3.837  20.023  0.00  0.00    +0.000 A 
ATOM      9  C   UNL     1       4.086   4.423  19.016  0.00  0.00    +0.000 A 
ATOM     10  O   UNL     1       3.527   2.581  20.509  0.00  0.00    +0.000 OA
ATOM     11  C   UNL     1       2.512   2.538  21.533  0.00  0.00    +0.000 C 
ATOM     12  O   UNL     1       1.732   3.750  21.615  0.00  0.00    +0.000 OA
ENDBRANCH   2   4
ENDBRANCH   1   2
BRANCH   1  13
ATOM     13  S   UNL     1       5.944   4.255  16.332  0.00  0.00    +0.000 S 
BRANCH  13  18
ATOM     14  N   UNL     1       6.378   4.291  13.618  0.00  0.00    +0.000 N 
ATOM     15  C   UNL     1       7.249   4.912  12.765  0.00  0.00    +0.000 A 
ATOM     16  N   UNL     1       8.103   5.639  13.449  0.00  0.00    +0.000 NA
ATOM     17  N   UNL     1       7.768   5.528  14.781  0.00  0.00    +0.000 NA
ATOM     18  C   UNL     1       6.730   4.727  14.867  0.00  0.00    +0.000 A 
BRANCH  14  19
ATOM     19  C   UNL     1       5.263   3.467  13.206  0.00  0.00    +0.000 C 
BRANCH  19  20
ATOM     20  C   UNL     1       5.516   2.660  11.926  0.00  0.00    +0.000 C 
BRANCH  20  21
ATOM     21  C   UNL     1       4.283   2.690  11.017  0.00  0.00    +0.000 C 
BRANCH  21  23
ATOM     22  C   UNL     1       2.815   4.130   9.568  0.00  0.00    +0.000 C 
ATOM     23  C   UNL     1       3.834   4.116  10.698  0.00  0.00    +0.000 C 
ENDBRANCH  21  23
ENDBRANCH  20  21
ENDBRANCH  19  20
ENDBRANCH  14  19
ENDBRANCH  13  18
ENDBRANCH   1  13
TORSDOF 8
ENDMDL
MODEL 8
REMARK VINA RESULT:      -7.0      4.550      6.354
REMARK  Name = 
REMARK  9 active torsions:
REMARK  status: ('A' for Active; 'I' for Inactive)
REMARK    1  A    between atoms: C_1  and  C_2
REMARK    2  A    between atoms: C_2  and  C_3
REMARK    3  A    between atoms: C_3  and  C_4
REMARK    4  A    between atoms: C_4  and  C_5
REMARK    5  A    between atoms: C_5  and  N_6
REMARK    6  A    between atoms: C_10  and  S_11
REMARK    7  A    between atoms: S_11  and  C_12
REMARK    8  A    between atoms: C_12  and  C_13
REMARK    9  A    between atoms: C_13  and  C_15
REMARK                            x       y       z     vdW  Elec       q    Type
REMARK                         _______ _______ _______ _____ _____    ______ ____
ROOT
ATOM      1  C   UNL     1       3.895   7.821  17.783  0.00  0.00    +0.000 C 
ENDROOT
BRANCH   1   2
ATOM      2  C   UNL     1       2.455   7.390  18.013  0.00  0.00    +0.000 C 
ATOM      3  O   UNL     1       1.486   8.106  17.770  0.00  0.00    +0.000 OA
BRANCH   2   4
ATOM      4  C   UNL     1       2.196   6.006  18.542  0.00  0.00    +0.000 A 
ATOM      5  C   UNL     1       1.672   4.963  17.745  0.00  0.00    +0.000 A 
ATOM      6  C   UNL     1       1.430   3.695  18.295  0.00  0.00    +0.000 A 
ATOM      7  C   UNL     1       1.718   3.501  19.629  0.00  0.00    +0.000 A 
ATOM      8  C   UNL     1       2.227   4.510  20.409  0.00  0.00    +0.000 A 
ATOM      9  C   UNL     1       2.477   5.766  19.899  0.00  0.00    +0.000 A 
ATOM     10  O   UNL     1       2.436   4.118  21.693  0.00  0.00    +0.000 OA
ATOM     11  C   UNL     1       1.982   2.750  21.639  0.00  0.00    +0.000 C 
ATOM     12  O   UNL     1       1.545   2.345  20.323  0.00  0.00    +0.000 OA
ENDBRANCH   2   4
ENDBRANCH   1   2
BRANCH   1  13
ATOM     13  S   UNL     1       4.828   6.623  16.774  0.00  0.00    +0.000 S 
BRANCH  13  18
ATOM     14  N   UNL     1       7.230   6.862  18.090  0.00  0.00    +0.000 N 
ATOM     15  C   UNL     1       7.921   6.139  19.023  0.00  0.00    +0.000 A 
ATOM     16  N   UNL     1       7.261   5.043  19.318  0.00  0.00    +0.000 NA
ATOM     17  N   UNL     1       6.090   5.056  18.594  0.00  0.00    +0.000 NA
ATOM     18  C   UNL     1       6.080   6.153  17.870  0.00  0.00    +0.000 A 
BRANCH  14  19
ATOM     19  C   UNL     1       7.628   8.158  17.585  0.00  0.00    +0.000 C 
BRANCH  19  20
ATOM     20  C   UNL     1       8.579   8.928  18.511  0.00  0.00    +0.000 C 
BRANCH  20  21
ATOM     21  C   UNL     1       8.705  10.388  18.061  0.00  0.00    +0.000 C 
BRANCH  21  23
ATOM     22  C   UNL     1      10.856  11.653  17.749  0.00  0.00    +0.000 C 
ATOM     23  C   UNL     1       9.856  11.111  18.761  0.00  0.00    +0.000 C 
ENDBRANCH  21  23
ENDBRANCH  20  21
ENDBRANCH  19  20
ENDBRANCH  14  19
ENDBRANCH  13  18
ENDBRANCH   1  13
TORSDOF 8
ENDMDL
MODEL 9
REMARK VINA RESULT:      -7.0      0.879      1.454
REMARK  Name = 
REMARK  9 active torsions:
REMARK  status: ('A' for Active; 'I' for Inactive)
REMARK    1  A    between atoms: C_1  and  C_2
REMARK    2  A    between atoms: C_2  and  C_3
REMARK    3  A    between atoms: C_3  and  C_4
REMARK    4  A    between atoms: C_4  and  C_5
REMARK    5  A    between atoms: C_5  and  N_6
REMARK    6  A    between atoms: C_10  and  S_11
REMARK    7  A    between atoms: S_11  and  C_12
REMARK    8  A    between atoms: C_12  and  C_13
REMARK    9  A    between atoms: C_13  and  C_15
REMARK                            x       y       z     vdW  Elec       q    Type
REMARK                         _______ _______ _______ _____ _____    ______ ____
ROOT
ATOM      1  C   UNL     1       6.901   4.461  16.856  0.00  0.00    +0.000 C 
ENDROOT
BRANCH   1   2
ATOM      2  C   UNL     1       6.140   5.205  17.943  0.00  0.00    +0.000 C 
ATOM      3  O   UNL     1       6.367   6.374  18.248  0.00  0.00    +0.000 OA
BRANCH   2   4
ATOM      4  C   UNL     1       5.037   4.486  18.669  0.00  0.00    +0.000 A 
ATOM      5  C   UNL     1       5.213   3.222  19.277  0.00  0.00    +0.000 A 
ATOM      6  C   UNL     1       4.144   2.585  19.924  0.00  0.00    +0.000 A 
ATOM      7  C   UNL     1       2.924   3.227  19.948  0.00  0.00    +0.000 A 
ATOM      8  C   UNL     1       2.746   4.455  19.358  0.00  0.00    +0.000 A 
ATOM      9  C   UNL     1       3.776   5.108  18.716  0.00  0.00    +0.000 A 
ATOM     10  O   UNL     1       1.473   4.912  19.487  0.00  0.00    +0.000 OA
ATOM     11  C   UNL     1       0.863   3.823  20.209  0.00  0.00    +0.000 C 
ATOM     12  O   UNL     1       1.785   2.758  20.524  0.00  0.00    +0.000 OA
ENDBRANCH   2   4
ENDBRANCH   1   2
BRANCH   1  13
ATOM     13  S   UNL     1       5.831   3.989  15.457  0.00  0.00    +0.000 S 
BRANCH  13  18
ATOM     14  N   UNL     1       6.614   4.107  12.824  0.00  0.00    +0.000 N 
ATOM     15  C   UNL     1       7.532   4.813  12.097  0.00  0.00    +0.000 A 
ATOM     16  N   UNL     1       8.221   5.601  12.892  0.00  0.00    +0.000 NA
ATOM     17  N   UNL     1       7.725   5.440  14.167  0.00  0.00    +0.000 NA
ATOM     18  C   UNL     1       6.759   4.550  14.111  0.00  0.00    +0.000 A 
BRANCH  14  19
ATOM     19  C   UNL     1       5.639   3.196  12.265  0.00  0.00    +0.000 C 
BRANCH  19  20
ATOM     20  C   UNL     1       4.348   3.872  11.788  0.00  0.00    +0.000 C 
BRANCH  20  21
ATOM     21  C   UNL     1       3.560   2.939  10.863  0.00  0.00    +0.000 C 
BRANCH  21  23
ATOM     22  C   UNL     1       2.416   4.700   9.478  0.00  0.00    +0.000 C 
ATOM     23  C   UNL     1       3.384   3.526   9.462  0.00  0.00    +0.000 C 
ENDBRANCH  21  23
ENDBRANCH  20  21
ENDBRANCH  19  20
ENDBRANCH  14  19
ENDBRANCH  13  18
ENDBRANCH   1  13
TORSDOF 8
ENDMDL
