MODEL 1
REMARK VINA RESULT:      -8.8      0.000      0.000
REMARK  Name = 
REMARK  4 active torsions:
REMARK  status: ('A' for Active; 'I' for Inactive)
REMARK    1  A    between atoms: N_3  and  N_4
REMARK    2  A    between atoms: C_5  and  C_7
REMARK    3  A    between atoms: C_16  and  O_17
REMARK    4  A    between atoms: N_18  and  C_19
REMARK                            x       y       z     vdW  Elec       q    Type
REMARK                         _______ _______ _______ _____ _____    ______ ____
ROOT
ATOM      1  N   UNL     1       7.422   6.988  17.971  0.00  0.00    +0.000 N 
ATOM      2  C   UNL     1       7.209   5.873  18.751  0.00  0.00    +0.000 C 
ATOM      3  O   UNL     1       7.848   5.665  19.785  0.00  0.00    +0.000 OA
ATOM      4  H   UNL     1       6.943   7.151  17.084  0.00  0.00    +0.000 HD
ENDROOT
BRANCH   2   5
ATOM      5  C   UNL     1       6.111   4.953  18.342  0.00  0.00    +0.000 A 
ATOM      6  C   UNL     1       5.198   4.571  19.338  0.00  0.00    +0.000 A 
ATOM      7  C   UNL     1       4.072   3.790  19.033  0.00  0.00    +0.000 A 
ATOM      8  C   UNL     1       3.125   3.462  20.016  0.00  0.00    +0.000 A 
ATOM      9  C   UNL     1       1.988   2.721  19.691  0.00  0.00    +0.000 A 
ATOM     10  C   UNL     1       1.791   2.289  18.384  0.00  0.00    +0.000 A 
ATOM     11  C   UNL     1       2.731   2.594  17.397  0.00  0.00    +0.000 A 
ATOM     12  C   UNL     1       3.876   3.350  17.704  0.00  0.00    +0.000 A 
ATOM     13  C   UNL     1       4.819   3.692  16.720  0.00  0.00    +0.000 A 
ATOM     14  C   UNL     1       5.921   4.493  17.036  0.00  0.00    +0.000 A 
BRANCH  14  15
ATOM     15  O   UNL     1       6.806   4.826  16.046  0.00  0.00    +0.000 OA
ATOM     16  H   UNL     1       7.516   5.379  16.418  0.00  0.00    +0.000 HD
ENDBRANCH  14  15
ENDBRANCH   2   5
BRANCH   1  19
ATOM     17  O   UNL     1       7.303   9.708  17.466  0.00  0.00    +0.000 OA
ATOM     18  C   UNL     1       8.225   9.245  18.129  0.00  0.00    +0.000 C 
ATOM     19  N   UNL     1       8.400   7.899  18.376  0.00  0.00    +0.000 N 
ATOM     20  N   UNL     1       9.235   9.983  18.695  0.00  0.00    +0.000 N 
ATOM     21  H   UNL     1       8.949   7.597  19.177  0.00  0.00    +0.000 HD
ATOM     22  H   UNL     1      10.052   9.446  18.948  0.00  0.00    +0.000 HD
BRANCH  20  23
ATOM     23  C   UNL     1       9.429  11.414  18.467  0.00  0.00    +0.000 C 
ATOM     24  C   UNL     1       9.352  12.238  19.758  0.00  0.00    +0.000 C 
ATOM     25  C   UNL     1      10.465  11.856  20.730  0.00  0.00    +0.000 C 
ATOM     26  C   UNL     1      11.842  12.029  20.094  0.00  0.00    +0.000 C 
ATOM     27  C   UNL     1      11.960  11.316  18.748  0.00  0.00    +0.000 C 
ATOM     28  C   UNL     1      10.798  11.647  17.805  0.00  0.00    +0.000 C 
ENDBRANCH  20  23
ENDBRANCH   1  19
TORSDOF 4
ENDMDL
MODEL 2
REMARK VINA RESULT:      -8.2      1.202      1.206
REMARK  Name = 
REMARK  4 active torsions:
REMARK  status: ('A' for Active; 'I' for Inactive)
REMARK    1  A    between atoms: N_3  and  N_4
REMARK    2  A    between atoms: C_5  and  C_7
REMARK    3  A    between atoms: C_16  and  O_17
REMARK    4  A    between atoms: N_18  and  C_19
REMARK                            x       y       z     vdW  Elec       q    Type
REMARK                         _______ _______ _______ _____ _____    ______ ____
ROOT
ATOM      1  N   UNL     1       7.489   7.138  18.559  0.00  0.00    +0.000 N 
ATOM      2  C   UNL     1       7.196   6.554  17.346  0.00  0.00    +0.000 C 
ATOM      3  O   UNL     1       7.868   6.772  16.334  0.00  0.00    +0.000 OA
ATOM      4  H   UNL     1       6.914   7.013  19.393  0.00  0.00    +0.000 HD
ENDROOT
BRANCH   2   5
ATOM      5  C   UNL     1       6.074   5.575  17.312  0.00  0.00    +0.000 A 
ATOM      6  C   UNL     1       5.041   5.757  18.246  0.00  0.00    +0.000 A 
ATOM      7  C   UNL     1       3.892   4.952  18.228  0.00  0.00    +0.000 A 
ATOM      8  C   UNL     1       2.832   5.175  19.120  0.00  0.00    +0.000 A 
ATOM      9  C   UNL     1       1.677   4.393  19.064  0.00  0.00    +0.000 A 
ATOM     10  C   UNL     1       1.574   3.372  18.126  0.00  0.00    +0.000 A 
ATOM     11  C   UNL     1       2.626   3.127  17.241  0.00  0.00    +0.000 A 
ATOM     12  C   UNL     1       3.792   3.912  17.275  0.00  0.00    +0.000 A 
ATOM     13  C   UNL     1       4.849   3.700  16.374  0.00  0.00    +0.000 A 
ATOM     14  C   UNL     1       5.976   4.530  16.388  0.00  0.00    +0.000 A 
BRANCH  14  15
ATOM     15  O   UNL     1       6.976   4.309  15.480  0.00  0.00    +0.000 OA
ATOM     16  H   UNL     1       6.650   4.504  14.584  0.00  0.00    +0.000 HD
ENDBRANCH  14  15
ENDBRANCH   2   5
BRANCH   1  19
ATOM     17  O   UNL     1       7.401   9.797  17.793  0.00  0.00    +0.000 OA
ATOM     18  C   UNL     1       8.426   9.329  18.276  0.00  0.00    +0.000 C 
ATOM     19  N   UNL     1       8.582   8.004  18.626  0.00  0.00    +0.000 N 
ATOM     20  N   UNL     1       9.580  10.037  18.511  0.00  0.00    +0.000 N 
ATOM     21  H   UNL     1       9.287   7.738  19.309  0.00  0.00    +0.000 HD
ATOM     22  H   UNL     1      10.403   9.464  18.629  0.00  0.00    +0.000 HD
BRANCH  20  23
ATOM     23  C   UNL     1       9.792  11.420  18.086  0.00  0.00    +0.000 C 
ATOM     24  C   UNL     1       9.290  12.441  19.114  0.00  0.00    +0.000 C 
ATOM     25  C   UNL     1      10.054  12.329  20.429  0.00  0.00    +0.000 C 
ATOM     26  C   UNL     1      11.556  12.511  20.217  0.00  0.00    +0.000 C 
ATOM     27  C   UNL     1      12.110  11.593  19.129  0.00  0.00    +0.000 C 
ATOM     28  C   UNL     1      11.291  11.655  17.836  0.00  0.00    +0.000 C 
ENDBRANCH  20  23
ENDBRANCH   1  19
TORSDOF 4
ENDMDL
MODEL 3
REMARK VINA RESULT:      -8.1      1.104      1.149
REMARK  Name = 
REMARK  4 active torsions:
REMARK  status: ('A' for Active; 'I' for Inactive)
REMARK    1  A    between atoms: N_3  and  N_4
REMARK    2  A    between atoms: C_5  and  C_7
REMARK    3  A    between atoms: C_16  and  O_17
REMARK    4  A    between atoms: N_18  and  C_19
REMARK                            x       y       z     vdW  Elec       q    Type
REMARK                         _______ _______ _______ _____ _____    ______ ____
ROOT
ATOM      1  N   UNL     1       7.541   6.997  18.552  0.00  0.00    +0.000 N 
ATOM      2  C   UNL     1       7.274   6.456  17.314  0.00  0.00    +0.000 C 
ATOM      3  O   UNL     1       7.935   6.748  16.314  0.00  0.00    +0.000 OA
ATOM      4  H   UNL     1       6.972   6.811  19.379  0.00  0.00    +0.000 HD
ENDROOT
BRANCH   2   5
ATOM      5  C   UNL     1       6.195   5.431  17.234  0.00  0.00    +0.000 A 
ATOM      6  C   UNL     1       5.868   4.758  18.422  0.00  0.00    +0.000 A 
ATOM      7  C   UNL     1       4.799   3.850  18.473  0.00  0.00    +0.000 A 
ATOM      8  C   UNL     1       4.431   3.225  19.675  0.00  0.00    +0.000 A 
ATOM      9  C   UNL     1       3.340   2.356  19.722  0.00  0.00    +0.000 A 
ATOM     10  C   UNL     1       2.612   2.092  18.566  0.00  0.00    +0.000 A 
ATOM     11  C   UNL     1       2.975   2.694  17.359  0.00  0.00    +0.000 A 
ATOM     12  C   UNL     1       4.063   3.581  17.296  0.00  0.00    +0.000 A 
ATOM     13  C   UNL     1       4.426   4.218  16.097  0.00  0.00    +0.000 A 
ATOM     14  C   UNL     1       5.477   5.141  16.070  0.00  0.00    +0.000 A 
BRANCH  14  15
ATOM     15  O   UNL     1       5.787   5.761  14.890  0.00  0.00    +0.000 OA
ATOM     16  H   UNL     1       6.026   6.689  15.063  0.00  0.00    +0.000 HD
ENDBRANCH  14  15
ENDBRANCH   2   5
BRANCH   1  19
ATOM     17  O   UNL     1       7.364   9.660  17.814  0.00  0.00    +0.000 OA
ATOM     18  C   UNL     1       8.394   9.228  18.320  0.00  0.00    +0.000 C 
ATOM     19  N   UNL     1       8.595   7.907  18.660  0.00  0.00    +0.000 N 
ATOM     20  N   UNL     1       9.511   9.980  18.595  0.00  0.00    +0.000 N 
ATOM     21  H   UNL     1       9.291   7.661  19.359  0.00  0.00    +0.000 HD
ATOM     22  H   UNL     1      10.354   9.440  18.731  0.00  0.00    +0.000 HD
BRANCH  20  23
ATOM     23  C   UNL     1       9.677  11.375  18.193  0.00  0.00    +0.000 C 
ATOM     24  C   UNL     1       9.263  12.365  19.289  0.00  0.00    +0.000 C 
ATOM     25  C   UNL     1      10.141  12.222  20.528  0.00  0.00    +0.000 C 
ATOM     26  C   UNL     1      11.617  12.422  20.190  0.00  0.00    +0.000 C 
ATOM     27  C   UNL     1      12.077  11.538  19.032  0.00  0.00    +0.000 C 
ATOM     28  C   UNL     1      11.147  11.630  17.818  0.00  0.00    +0.000 C 
ENDBRANCH  20  23
ENDBRANCH   1  19
TORSDOF 4
ENDMDL
MODEL 4
REMARK VINA RESULT:      -7.8      1.777      2.427
REMARK  Name = 
REMARK  4 active torsions:
REMARK  status: ('A' for Active; 'I' for Inactive)
REMARK    1  A    between atoms: N_3  and  N_4
REMARK    2  A    between atoms: C_5  and  C_7
REMARK    3  A    between atoms: C_16  and  O_17
REMARK    4  A    between atoms: N_18  and  C_19
REMARK                            x       y       z     vdW  Elec       q    Type
REMARK                         _______ _______ _______ _____ _____    ______ ____
ROOT
ATOM      1  N   UNL     1       7.149   8.425  17.974  0.00  0.00    +0.000 N 
ATOM      2  C   UNL     1       7.173   7.220  17.307  0.00  0.00    +0.000 C 
ATOM      3  O   UNL     1       7.990   6.981  16.415  0.00  0.00    +0.000 OA
ATOM      4  H   UNL     1       6.446   8.661  18.677  0.00  0.00    +0.000 HD
ENDROOT
BRANCH   2   5
ATOM      5  C   UNL     1       6.218   6.169  17.759  0.00  0.00    +0.000 A 
ATOM      6  C   UNL     1       4.849   6.469  17.662  0.00  0.00    +0.000 A 
ATOM      7  C   UNL     1       3.870   5.510  17.965  0.00  0.00    +0.000 A 
ATOM      8  C   UNL     1       2.504   5.788  17.806  0.00  0.00    +0.000 A 
ATOM      9  C   UNL     1       1.542   4.812  18.071  0.00  0.00    +0.000 A 
ATOM     10  C   UNL     1       1.934   3.552  18.508  0.00  0.00    +0.000 A 
ATOM     11  C   UNL     1       3.289   3.263  18.686  0.00  0.00    +0.000 A 
ATOM     12  C   UNL     1       4.272   4.230  18.412  0.00  0.00    +0.000 A 
ATOM     13  C   UNL     1       5.641   3.950  18.557  0.00  0.00    +0.000 A 
ATOM     14  C   UNL     1       6.604   4.909  18.225  0.00  0.00    +0.000 A 
BRANCH  14  15
ATOM     15  O   UNL     1       7.930   4.593  18.355  0.00  0.00    +0.000 OA
ATOM     16  H   UNL     1       8.031   3.882  19.012  0.00  0.00    +0.000 HD
ENDBRANCH  14  15
ENDBRANCH   2   5
BRANCH   1  19
ATOM     17  O   UNL     1       8.851   9.671  19.767  0.00  0.00    +0.000 OA
ATOM     18  C   UNL     1       8.929   9.920  18.569  0.00  0.00    +0.000 C 
ATOM     19  N   UNL     1       8.084   9.397  17.613  0.00  0.00    +0.000 N 
ATOM     20  N   UNL     1       9.841  10.776  18.001  0.00  0.00    +0.000 N 
ATOM     21  H   UNL     1       8.379   9.354  16.641  0.00  0.00    +0.000 HD
ATOM     22  H   UNL     1       9.594  11.093  17.074  0.00  0.00    +0.000 HD
BRANCH  20  23
ATOM     23  C   UNL     1      10.758  11.620  18.765  0.00  0.00    +0.000 C 
ATOM     24  C   UNL     1      11.880  12.212  17.904  0.00  0.00    +0.000 C 
ATOM     25  C   UNL     1      11.325  13.139  16.827  0.00  0.00    +0.000 C 
ATOM     26  C   UNL     1      10.497  14.268  17.437  0.00  0.00    +0.000 C 
ATOM     27  C   UNL     1       9.420  13.755  18.391  0.00  0.00    +0.000 C 
ATOM     28  C   UNL     1       9.972  12.767  19.423  0.00  0.00    +0.000 C 
ENDBRANCH  20  23
ENDBRANCH   1  19
TORSDOF 4
ENDMDL
MODEL 5
REMARK VINA RESULT:      -7.8      6.935      8.795
REMARK  Name = 
REMARK  4 active torsions:
REMARK  status: ('A' for Active; 'I' for Inactive)
REMARK    1  A    between atoms: N_3  and  N_4
REMARK    2  A    between atoms: C_5  and  C_7
REMARK    3  A    between atoms: C_16  and  O_17
REMARK    4  A    between atoms: N_18  and  C_19
REMARK                            x       y       z     vdW  Elec       q    Type
REMARK                         _______ _______ _______ _____ _____    ______ ____
ROOT
ATOM      1  N   UNL     1       1.807   8.793  17.811  0.00  0.00    +0.000 N 
ATOM      2  C   UNL     1       1.157   9.238  18.940  0.00  0.00    +0.000 C 
ATOM      3  O   UNL     1       1.620   9.071  20.072  0.00  0.00    +0.000 OA
ATOM      4  H   UNL     1       1.414   8.871  16.872  0.00  0.00    +0.000 HD
ENDROOT
BRANCH   2   5
ATOM      5  C   UNL     1      -0.103  10.007  18.746  0.00  0.00    +0.000 A 
ATOM      6  C   UNL     1      -0.793   9.805  17.540  0.00  0.00    +0.000 A 
ATOM      7  C   UNL     1      -2.040  10.404  17.304  0.00  0.00    +0.000 A 
ATOM      8  C   UNL     1      -2.760  10.151  16.125  0.00  0.00    +0.000 A 
ATOM      9  C   UNL     1      -4.017  10.720  15.922  0.00  0.00    +0.000 A 
ATOM     10  C   UNL     1      -4.565  11.558  16.887  0.00  0.00    +0.000 A 
ATOM     11  C   UNL     1      -3.856  11.833  18.058  0.00  0.00    +0.000 A 
ATOM     12  C   UNL     1      -2.593  11.259  18.286  0.00  0.00    +0.000 A 
ATOM     13  C   UNL     1      -1.876  11.499  19.470  0.00  0.00    +0.000 A 
ATOM     14  C   UNL     1      -0.647  10.872  19.701  0.00  0.00    +0.000 A 
BRANCH  14  15
ATOM     15  O   UNL     1       0.012  11.111  20.876  0.00  0.00    +0.000 OA
ATOM     16  H   UNL     1      -0.590  11.551  21.503  0.00  0.00    +0.000 HD
ENDBRANCH  14  15
ENDBRANCH   2   5
BRANCH   1  19
ATOM     17  O   UNL     1       2.061   6.039  17.953  0.00  0.00    +0.000 OA
ATOM     18  C   UNL     1       3.059   6.752  17.972  0.00  0.00    +0.000 C 
ATOM     19  N   UNL     1       3.026   8.130  17.969  0.00  0.00    +0.000 N 
ATOM     20  N   UNL     1       4.353   6.293  18.031  0.00  0.00    +0.000 N 
ATOM     21  H   UNL     1       3.834   8.658  17.651  0.00  0.00    +0.000 HD
ATOM     22  H   UNL     1       5.026   6.982  18.330  0.00  0.00    +0.000 HD
BRANCH  20  23
ATOM     23  C   UNL     1       4.715   4.889  18.221  0.00  0.00    +0.000 C 
ATOM     24  C   UNL     1       4.651   4.076  16.922  0.00  0.00    +0.000 C 
ATOM     25  C   UNL     1       5.656   4.590  15.895  0.00  0.00    +0.000 C 
ATOM     26  C   UNL     1       7.080   4.562  16.447  0.00  0.00    +0.000 C 
ATOM     27  C   UNL     1       7.198   5.267  17.797  0.00  0.00    +0.000 C 
ATOM     28  C   UNL     1       6.137   4.800  18.798  0.00  0.00    +0.000 C 
ENDBRANCH  20  23
ENDBRANCH   1  19
TORSDOF 4
ENDMDL
MODEL 6
REMARK VINA RESULT:      -7.6      6.440      8.657
REMARK  Name = 
REMARK  4 active torsions:
REMARK  status: ('A' for Active; 'I' for Inactive)
REMARK    1  A    between atoms: N_3  and  N_4
REMARK    2  A    between atoms: C_5  and  C_7
REMARK    3  A    between atoms: C_16  and  O_17
REMARK    4  A    between atoms: N_18  and  C_19
REMARK                            x       y       z     vdW  Elec       q    Type
REMARK                         _______ _______ _______ _____ _____    ______ ____
ROOT
ATOM      1  N   UNL     1       2.184   7.696  19.346  0.00  0.00    +0.000 N 
ATOM      2  C   UNL     1       1.643   8.935  19.082  0.00  0.00    +0.000 C 
ATOM      3  O   UNL     1       1.725   9.462  17.969  0.00  0.00    +0.000 OA
ATOM      4  H   UNL     1       2.175   7.269  20.273  0.00  0.00    +0.000 HD
ENDROOT
BRANCH   2   5
ATOM      5  C   UNL     1       0.876   9.594  20.175  0.00  0.00    +0.000 A 
ATOM      6  C   UNL     1      -0.033  10.596  19.801  0.00  0.00    +0.000 A 
ATOM      7  C   UNL     1      -0.876  11.205  20.744  0.00  0.00    +0.000 A 
ATOM      8  C   UNL     1      -1.829  12.161  20.359  0.00  0.00    +0.000 A 
ATOM      9  C   UNL     1      -2.689  12.728  21.300  0.00  0.00    +0.000 A 
ATOM     10  C   UNL     1      -2.598  12.356  22.638  0.00  0.00    +0.000 A 
ATOM     11  C   UNL     1      -1.645  11.418  23.039  0.00  0.00    +0.000 A 
ATOM     12  C   UNL     1      -0.778  10.828  22.103  0.00  0.00    +0.000 A 
ATOM     13  C   UNL     1       0.169   9.861  22.482  0.00  0.00    +0.000 A 
ATOM     14  C   UNL     1       0.982   9.245  21.525  0.00  0.00    +0.000 A 
BRANCH  14  15
ATOM     15  O   UNL     1       1.876   8.290  21.928  0.00  0.00    +0.000 OA
ATOM     16  H   UNL     1       1.533   7.837  22.718  0.00  0.00    +0.000 HD
ENDBRANCH  14  15
ENDBRANCH   2   5
BRANCH   1  19
ATOM     17  O   UNL     1       3.893   5.553  19.734  0.00  0.00    +0.000 OA
ATOM     18  C   UNL     1       3.634   5.936  18.598  0.00  0.00    +0.000 C 
ATOM     19  N   UNL     1       2.846   7.031  18.312  0.00  0.00    +0.000 N 
ATOM     20  N   UNL     1       4.109   5.360  17.445  0.00  0.00    +0.000 N 
ATOM     21  H   UNL     1       2.392   7.109  17.406  0.00  0.00    +0.000 HD
ATOM     22  H   UNL     1       4.049   5.950  16.628  0.00  0.00    +0.000 HD
BRANCH  20  23
ATOM     23  C   UNL     1       5.106   4.291  17.416  0.00  0.00    +0.000 C 
ATOM     24  C   UNL     1       5.161   3.564  16.066  0.00  0.00    +0.000 C 
ATOM     25  C   UNL     1       5.584   4.507  14.944  0.00  0.00    +0.000 C 
ATOM     26  C   UNL     1       6.940   5.146  15.236  0.00  0.00    +0.000 C 
ATOM     27  C   UNL     1       6.992   5.804  16.614  0.00  0.00    +0.000 C 
ATOM     28  C   UNL     1       6.494   4.876  17.726  0.00  0.00    +0.000 C 
ENDBRANCH  20  23
ENDBRANCH   1  19
TORSDOF 4
ENDMDL
MODEL 7
REMARK VINA RESULT:      -7.5      7.021      8.887
REMARK  Name = 
REMARK  4 active torsions:
REMARK  status: ('A' for Active; 'I' for Inactive)
REMARK    1  A    between atoms: N_3  and  N_4
REMARK    2  A    between atoms: C_5  and  C_7
REMARK    3  A    between atoms: C_16  and  O_17
REMARK    4  A    between atoms: N_18  and  C_19
REMARK                            x       y       z     vdW  Elec       q    Type
REMARK                         _______ _______ _______ _____ _____    ______ ____
ROOT
ATOM      1  N   UNL     1       1.500   8.703  18.223  0.00  0.00    +0.000 N 
ATOM      2  C   UNL     1       1.479  10.080  18.243  0.00  0.00    +0.000 C 
ATOM      3  O   UNL     1       2.474  10.755  17.965  0.00  0.00    +0.000 OA
ATOM      4  H   UNL     1       0.704   8.128  18.503  0.00  0.00    +0.000 HD
ENDROOT
BRANCH   2   5
ATOM      5  C   UNL     1       0.177  10.741  18.537  0.00  0.00    +0.000 A 
ATOM      6  C   UNL     1      -0.952  10.253  17.858  0.00  0.00    +0.000 A 
ATOM      7  C   UNL     1      -2.238  10.738  18.141  0.00  0.00    +0.000 A 
ATOM      8  C   UNL     1      -3.373  10.206  17.509  0.00  0.00    +0.000 A 
ATOM      9  C   UNL     1      -4.650  10.669  17.829  0.00  0.00    +0.000 A 
ATOM     10  C   UNL     1      -4.807  11.676  18.775  0.00  0.00    +0.000 A 
ATOM     11  C   UNL     1      -3.687  12.227  19.401  0.00  0.00    +0.000 A 
ATOM     12  C   UNL     1      -2.394  11.765  19.100  0.00  0.00    +0.000 A 
ATOM     13  C   UNL     1      -1.257  12.286  19.740  0.00  0.00    +0.000 A 
ATOM     14  C   UNL     1       0.015  11.772  19.467  0.00  0.00    +0.000 A 
BRANCH  14  15
ATOM     15  O   UNL     1       1.097  12.288  20.128  0.00  0.00    +0.000 OA
ATOM     16  H   UNL     1       1.915  11.988  19.694  0.00  0.00    +0.000 HD
ENDBRANCH  14  15
ENDBRANCH   2   5
BRANCH   1  19
ATOM     17  O   UNL     1       2.296   6.257  19.248  0.00  0.00    +0.000 OA
ATOM     18  C   UNL     1       2.978   6.821  18.400  0.00  0.00    +0.000 C 
ATOM     19  N   UNL     1       2.695   8.067  17.880  0.00  0.00    +0.000 N 
ATOM     20  N   UNL     1       4.139   6.320  17.863  0.00  0.00    +0.000 N 
ATOM     21  H   UNL     1       3.069   8.338  16.975  0.00  0.00    +0.000 HD
ATOM     22  H   UNL     1       4.723   7.010  17.413  0.00  0.00    +0.000 HD
BRANCH  20  23
ATOM     23  C   UNL     1       4.798   5.102  18.333  0.00  0.00    +0.000 C 
ATOM     24  C   UNL     1       4.767   3.971  17.299  0.00  0.00    +0.000 C 
ATOM     25  C   UNL     1       5.532   4.350  16.035  0.00  0.00    +0.000 C 
ATOM     26  C   UNL     1       6.981   4.715  16.351  0.00  0.00    +0.000 C 
ATOM     27  C   UNL     1       7.094   5.768  17.451  0.00  0.00    +0.000 C 
ATOM     28  C   UNL     1       6.262   5.416  18.688  0.00  0.00    +0.000 C 
ENDBRANCH  20  23
ENDBRANCH   1  19
TORSDOF 4
ENDMDL
MODEL 8
REMARK VINA RESULT:      -7.4      6.951      8.942
REMARK  Name = 
REMARK  4 active torsions:
REMARK  status: ('A' for Active; 'I' for Inactive)
REMARK    1  A    between atoms: N_3  and  N_4
REMARK    2  A    between atoms: C_5  and  C_7
REMARK    3  A    between atoms: C_16  and  O_17
REMARK    4  A    between atoms: N_18  and  C_19
REMARK                            x       y       z     vdW  Elec       q    Type
REMARK                         _______ _______ _______ _____ _____    ______ ____
ROOT
ATOM      1  N   UNL     1       1.698   8.380  18.918  0.00  0.00    +0.000 N 
ATOM      2  C   UNL     1       1.366   9.617  18.413  0.00  0.00    +0.000 C 
ATOM      3  O   UNL     1       1.948  10.107  17.442  0.00  0.00    +0.000 OA
ATOM      4  H   UNL     1       1.267   7.982  19.754  0.00  0.00    +0.000 HD
ENDROOT
BRANCH   2   5
ATOM      5  C   UNL     1       0.211  10.322  19.036  0.00  0.00    +0.000 A 
ATOM      6  C   UNL     1       0.329  10.663  20.393  0.00  0.00    +0.000 A 
ATOM      7  C   UNL     1      -0.659  11.417  21.045  0.00  0.00    +0.000 A 
ATOM      8  C   UNL     1      -0.510  11.812  22.384  0.00  0.00    +0.000 A 
ATOM      9  C   UNL     1      -1.481  12.597  23.007  0.00  0.00    +0.000 A 
ATOM     10  C   UNL     1      -2.616  12.986  22.304  0.00  0.00    +0.000 A 
ATOM     11  C   UNL     1      -2.786  12.589  20.976  0.00  0.00    +0.000 A 
ATOM     12  C   UNL     1      -1.814  11.808  20.329  0.00  0.00    +0.000 A 
ATOM     13  C   UNL     1      -1.953  11.422  18.984  0.00  0.00    +0.000 A 
ATOM     14  C   UNL     1      -0.946  10.694  18.343  0.00  0.00    +0.000 A 
BRANCH  14  15
ATOM     15  O   UNL     1      -1.104  10.356  17.026  0.00  0.00    +0.000 OA
ATOM     16  H   UNL     1      -0.575   9.563  16.828  0.00  0.00    +0.000 HD
ENDBRANCH  14  15
ENDBRANCH   2   5
BRANCH   1  19
ATOM     17  O   UNL     1       2.219   5.698  19.371  0.00  0.00    +0.000 OA
ATOM     18  C   UNL     1       2.878   6.324  18.547  0.00  0.00    +0.000 C 
ATOM     19  N   UNL     1       2.733   7.673  18.302  0.00  0.00    +0.000 N 
ATOM     20  N   UNL     1       3.878   5.790  17.771  0.00  0.00    +0.000 N 
ATOM     21  H   UNL     1       3.038   8.064  17.415  0.00  0.00    +0.000 HD
ATOM     22  H   UNL     1       4.505   6.472  17.371  0.00  0.00    +0.000 HD
BRANCH  20  23
ATOM     23  C   UNL     1       4.391   4.428  17.920  0.00  0.00    +0.000 C 
ATOM     24  C   UNL     1       4.907   3.839  16.602  0.00  0.00    +0.000 C 
ATOM     25  C   UNL     1       6.094   4.633  16.064  0.00  0.00    +0.000 C 
ATOM     26  C   UNL     1       7.232   4.688  17.081  0.00  0.00    +0.000 C 
ATOM     27  C   UNL     1       6.768   5.171  18.454  0.00  0.00    +0.000 C 
ATOM     28  C   UNL     1       5.530   4.420  18.953  0.00  0.00    +0.000 C 
ENDBRANCH  20  23
ENDBRANCH   1  19
TORSDOF 4
ENDMDL
MODEL 9
REMARK VINA RESULT:      -7.4      6.816      9.837
REMARK  Name = 
REMARK  4 active torsions:
REMARK  status: ('A' for Active; 'I' for Inactive)
REMARK    1  A    between atoms: N_3  and  N_4
REMARK    2  A    between atoms: C_5  and  C_7
REMARK    3  A    between atoms: C_16  and  O_17
REMARK    4  A    between atoms: N_18  and  C_19
REMARK                            x       y       z     vdW  Elec       q    Type
REMARK                         _______ _______ _______ _____ _____    ______ ____
ROOT
ATOM      1  N   UNL     1       1.685   7.670  20.655  0.00  0.00    +0.000 N 
ATOM      2  C   UNL     1       1.478   8.585  19.646  0.00  0.00    +0.000 C 
ATOM      3  O   UNL     1       2.052   8.501  18.557  0.00  0.00    +0.000 OA
ATOM      4  H   UNL     1       1.262   7.753  21.580  0.00  0.00    +0.000 HD
ENDROOT
BRANCH   2   5
ATOM      5  C   UNL     1       0.463   9.649  19.886  0.00  0.00    +0.000 A 
ATOM      6  C   UNL     1       0.129   9.921  21.222  0.00  0.00    +0.000 A 
ATOM      7  C   UNL     1      -0.738  10.972  21.557  0.00  0.00    +0.000 A 
ATOM      8  C   UNL     1      -1.021  11.285  22.896  0.00  0.00    +0.000 A 
ATOM      9  C   UNL     1      -1.852  12.359  23.217  0.00  0.00    +0.000 A 
ATOM     10  C   UNL     1      -2.418  13.125  22.204  0.00  0.00    +0.000 A 
ATOM     11  C   UNL     1      -2.159  12.818  20.867  0.00  0.00    +0.000 A 
ATOM     12  C   UNL     1      -1.315  11.747  20.526  0.00  0.00    +0.000 A 
ATOM     13  C   UNL     1      -1.018  11.440  19.187  0.00  0.00    +0.000 A 
ATOM     14  C   UNL     1      -0.131  10.406  18.871  0.00  0.00    +0.000 A 
BRANCH  14  15
ATOM     15  O   UNL     1       0.153  10.151  17.557  0.00  0.00    +0.000 OA
ATOM     16  H   UNL     1      -0.638   9.792  17.117  0.00  0.00    +0.000 HD
ENDBRANCH  14  15
ENDBRANCH   2   5
BRANCH   1  19
ATOM     17  O   UNL     1       1.023   4.991  20.887  0.00  0.00    +0.000 OA
ATOM     18  C   UNL     1       2.143   5.319  20.507  0.00  0.00    +0.000 C 
ATOM     19  N   UNL     1       2.580   6.624  20.422  0.00  0.00    +0.000 N 
ATOM     20  N   UNL     1       3.136   4.444  20.141  0.00  0.00    +0.000 N 
ATOM     21  H   UNL     1       3.353   6.862  19.806  0.00  0.00    +0.000 HD
ATOM     22  H   UNL     1       4.064   4.844  20.138  0.00  0.00    +0.000 HD
BRANCH  20  23
ATOM     23  C   UNL     1       3.043   2.992  20.288  0.00  0.00    +0.000 C 
ATOM     24  C   UNL     1       1.690   2.433  19.833  0.00  0.00    +0.000 C 
ATOM     25  C   UNL     1       1.459   2.677  18.345  0.00  0.00    +0.000 C 
ATOM     26  C   UNL     1       2.576   2.066  17.501  0.00  0.00    +0.000 C 
ATOM     27  C   UNL     1       3.965   2.500  17.965  0.00  0.00    +0.000 C 
ATOM     28  C   UNL     1       4.162   2.321  19.473  0.00  0.00    +0.000 C 
ENDBRANCH  20  23
ENDBRANCH   1  19
TORSDOF 4
ENDMDL
