MODEL 1
REMARK VINA RESULT:      -9.0      0.000      0.000
REMARK  Name = 
REMARK  4 active torsions:
REMARK  status: ('A' for Active; 'I' for Inactive)
REMARK    1  A    between atoms: C_1  and  N_2
REMARK    2  A    between atoms: C_6  and  C_8
REMARK    3  A    between atoms: C_11  and  C_12
REMARK    4  A    between atoms: C_15  and  C_16
REMARK                            x       y       z     vdW  Elec       q    Type
REMARK                         _______ _______ _______ _____ _____    ______ ____
ROOT
ATOM      1  C   UNL     1       0.788  10.452  19.061  0.00  0.00    +0.000 A 
ATOM      2  C   UNL     1       0.620   9.865  20.321  0.00  0.00    +0.000 A 
ATOM      3  C   UNL     1       1.150   8.603  20.587  0.00  0.00    +0.000 A 
ATOM      4  C   UNL     1       1.780   7.879  19.573  0.00  0.00    +0.000 A 
ATOM      5  C   UNL     1       1.881   8.430  18.287  0.00  0.00    +0.000 A 
ATOM      6  C   UNL     1       1.389   9.714  18.033  0.00  0.00    +0.000 A 
ENDROOT
BRANCH   1  12
ATOM      7  C   UNL     1       2.903  16.217  21.001  0.00  0.00    +0.000 C 
ATOM      8  N   UNL     1       2.472  15.287  19.961  0.00  0.00    +0.000 NA
ATOM      9  C   UNL     1       0.997  15.280  19.834  0.00  0.00    +0.000 C 
ATOM     10  C   UNL     1       0.485  14.261  18.791  0.00  0.00    +0.000 C 
ATOM     11  N   UNL     1       1.060  12.931  19.009  0.00  0.00    +0.000 N 
ATOM     12  C   UNL     1       0.269  11.813  18.762  0.00  0.00    +0.000 C 
ATOM     13  O   UNL     1      -0.879  11.896  18.322  0.00  0.00    +0.000 OA
ATOM     14  C   UNL     1       2.524  12.955  19.120  0.00  0.00    +0.000 C 
ATOM     15  C   UNL     1       2.956  13.920  20.238  0.00  0.00    +0.000 C 
ENDBRANCH   1  12
BRANCH   4  16
ATOM     16  C   UNL     1       2.220   6.504  19.830  0.00  0.00    +0.000 A 
ATOM     17  C   UNL     1       3.100   5.977  18.952  0.00  0.00    +0.000 A 
ATOM     18  N   UNL     1       3.580   4.699  19.173  0.00  0.00    +0.000 N 
ATOM     19  C   UNL     1       4.510   3.907  18.520  0.00  0.00    +0.000 A 
ATOM     20  C   UNL     1       4.468   2.713  19.235  0.00  0.00    +0.000 A 
ATOM     21  N   UNL     1       3.598   2.767  20.299  0.00  0.00    +0.000 NA
ATOM     22  C   UNL     1       3.099   3.978  20.237  0.00  0.00    +0.000 A 
ATOM     23  C   UNL     1       2.142   4.597  21.114  0.00  0.00    +0.000 A 
ATOM     24  N   UNL     1       1.723   5.822  20.929  0.00  0.00    +0.000 NA
BRANCH  19  25
ATOM     25  C   UNL     1       5.300   4.281  17.341  0.00  0.00    +0.000 A 
ATOM     26  C   UNL     1       4.808   4.117  16.038  0.00  0.00    +0.000 A 
ATOM     27  C   UNL     1       5.596   4.418  14.924  0.00  0.00    +0.000 A 
ATOM     28  C   UNL     1       6.874   4.937  15.098  0.00  0.00    +0.000 A 
ATOM     29  C   UNL     1       7.360   5.160  16.383  0.00  0.00    +0.000 A 
ATOM     30  C   UNL     1       6.580   4.830  17.497  0.00  0.00    +0.000 A 
ENDBRANCH  19  25
ENDBRANCH   4  16
TORSDOF 3
ENDMDL
MODEL 2
REMARK VINA RESULT:      -8.8      0.640      1.083
REMARK  Name = 
REMARK  4 active torsions:
REMARK  status: ('A' for Active; 'I' for Inactive)
REMARK    1  A    between atoms: C_1  and  N_2
REMARK    2  A    between atoms: C_6  and  C_8
REMARK    3  A    between atoms: C_11  and  C_12
REMARK    4  A    between atoms: C_15  and  C_16
REMARK                            x       y       z     vdW  Elec       q    Type
REMARK                         _______ _______ _______ _____ _____    ______ ____
ROOT
ATOM      1  C   UNL     1       0.848  10.537  19.204  0.00  0.00    +0.000 A 
ATOM      2  C   UNL     1       0.738   9.943  20.467  0.00  0.00    +0.000 A 
ATOM      3  C   UNL     1       1.245   8.663  20.690  0.00  0.00    +0.000 A 
ATOM      4  C   UNL     1       1.792   7.931  19.633  0.00  0.00    +0.000 A 
ATOM      5  C   UNL     1       1.832   8.492  18.349  0.00  0.00    +0.000 A 
ATOM      6  C   UNL     1       1.364   9.792  18.136  0.00  0.00    +0.000 A 
ENDROOT
BRANCH   1  12
ATOM      7  C   UNL     1       4.008  16.149  19.221  0.00  0.00    +0.000 C 
ATOM      8  N   UNL     1       3.108  15.180  18.602  0.00  0.00    +0.000 NA
ATOM      9  C   UNL     1       1.723  15.351  19.097  0.00  0.00    +0.000 C 
ATOM     10  C   UNL     1       0.742  14.305  18.522  0.00  0.00    +0.000 C 
ATOM     11  N   UNL     1       1.255  12.941  18.678  0.00  0.00    +0.000 N 
ATOM     12  C   UNL     1       0.353  11.916  18.947  0.00  0.00    +0.000 C 
ATOM     13  O   UNL     1      -0.862  12.101  19.014  0.00  0.00    +0.000 OA
ATOM     14  C   UNL     1       2.624  12.787  18.169  0.00  0.00    +0.000 C 
ATOM     15  C   UNL     1       3.561  13.798  18.853  0.00  0.00    +0.000 C 
ENDBRANCH   1  12
BRANCH   4  16
ATOM     16  C   UNL     1       2.205   6.541  19.852  0.00  0.00    +0.000 A 
ATOM     17  C   UNL     1       3.098   6.031  18.978  0.00  0.00    +0.000 A 
ATOM     18  N   UNL     1       3.553   4.739  19.164  0.00  0.00    +0.000 N 
ATOM     19  C   UNL     1       4.487   3.956  18.506  0.00  0.00    +0.000 A 
ATOM     20  C   UNL     1       4.410   2.739  19.178  0.00  0.00    +0.000 A 
ATOM     21  N   UNL     1       3.516   2.770  20.222  0.00  0.00    +0.000 NA
ATOM     22  C   UNL     1       3.036   3.989  20.190  0.00  0.00    +0.000 A 
ATOM     23  C   UNL     1       2.068   4.593  21.067  0.00  0.00    +0.000 A 
ATOM     24  N   UNL     1       1.672   5.830  20.914  0.00  0.00    +0.000 NA
BRANCH  19  25
ATOM     25  C   UNL     1       5.311   4.359  17.360  0.00  0.00    +0.000 A 
ATOM     26  C   UNL     1       6.512   5.065  17.524  0.00  0.00    +0.000 A 
ATOM     27  C   UNL     1       7.252   5.498  16.421  0.00  0.00    +0.000 A 
ATOM     28  C   UNL     1       6.826   5.188  15.134  0.00  0.00    +0.000 A 
ATOM     29  C   UNL     1       5.667   4.439  14.952  0.00  0.00    +0.000 A 
ATOM     30  C   UNL     1       4.912   4.032  16.057  0.00  0.00    +0.000 A 
ENDBRANCH  19  25
ENDBRANCH   4  16
TORSDOF 3
ENDMDL
MODEL 3
REMARK VINA RESULT:      -8.4      0.270      1.265
REMARK  Name = 
REMARK  4 active torsions:
REMARK  status: ('A' for Active; 'I' for Inactive)
REMARK    1  A    between atoms: C_1  and  N_2
REMARK    2  A    between atoms: C_6  and  C_8
REMARK    3  A    between atoms: C_11  and  C_12
REMARK    4  A    between atoms: C_15  and  C_16
REMARK                            x       y       z     vdW  Elec       q    Type
REMARK                         _______ _______ _______ _____ _____    ______ ____
ROOT
ATOM      1  C   UNL     1       0.803  10.586  18.986  0.00  0.00    +0.000 A 
ATOM      2  C   UNL     1       1.488   9.847  18.013  0.00  0.00    +0.000 A 
ATOM      3  C   UNL     1       1.853   8.525  18.260  0.00  0.00    +0.000 A 
ATOM      4  C   UNL     1       1.613   7.952  19.511  0.00  0.00    +0.000 A 
ATOM      5  C   UNL     1       0.999   8.714  20.516  0.00  0.00    +0.000 A 
ATOM      6  C   UNL     1       0.592  10.026  20.252  0.00  0.00    +0.000 A 
ENDROOT
BRANCH   1  12
ATOM      7  C   UNL     1       2.917  16.112  21.529  0.00  0.00    +0.000 C 
ATOM      8  N   UNL     1       2.560  15.273  20.389  0.00  0.00    +0.000 NA
ATOM      9  C   UNL     1       1.105  15.337  20.118  0.00  0.00    +0.000 C 
ATOM     10  C   UNL     1       0.665  14.414  18.960  0.00  0.00    +0.000 C 
ATOM     11  N   UNL     1       1.168  13.048  19.138  0.00  0.00    +0.000 N 
ATOM     12  C   UNL     1       0.365  11.985  18.735  0.00  0.00    +0.000 C 
ATOM     13  O   UNL     1      -0.729  12.146  18.193  0.00  0.00    +0.000 OA
ATOM     14  C   UNL     1       2.613  13.004  19.392  0.00  0.00    +0.000 C 
ATOM     15  C   UNL     1       2.965  13.871  20.613  0.00  0.00    +0.000 C 
ENDBRANCH   1  12
BRANCH   4  16
ATOM     16  C   UNL     1       2.114   6.605  19.800  0.00  0.00    +0.000 A 
ATOM     17  C   UNL     1       3.010   6.094  18.930  0.00  0.00    +0.000 A 
ATOM     18  N   UNL     1       3.547   4.845  19.179  0.00  0.00    +0.000 N 
ATOM     19  C   UNL     1       4.507   4.077  18.540  0.00  0.00    +0.000 A 
ATOM     20  C   UNL     1       4.522   2.902  19.286  0.00  0.00    +0.000 A 
ATOM     21  N   UNL     1       3.658   2.946  20.355  0.00  0.00    +0.000 NA
ATOM     22  C   UNL     1       3.106   4.131  20.265  0.00  0.00    +0.000 A 
ATOM     23  C   UNL     1       2.129   4.731  21.134  0.00  0.00    +0.000 A 
ATOM     24  N   UNL     1       1.655   5.931  20.920  0.00  0.00    +0.000 NA
BRANCH  19  25
ATOM     25  C   UNL     1       5.272   4.455  17.346  0.00  0.00    +0.000 A 
ATOM     26  C   UNL     1       6.423   5.253  17.426  0.00  0.00    +0.000 A 
ATOM     27  C   UNL     1       7.103   5.658  16.275  0.00  0.00    +0.000 A 
ATOM     28  C   UNL     1       6.670   5.229  15.025  0.00  0.00    +0.000 A 
ATOM     29  C   UNL     1       5.563   4.390  14.929  0.00  0.00    +0.000 A 
ATOM     30  C   UNL     1       4.866   4.010  16.080  0.00  0.00    +0.000 A 
ENDBRANCH  19  25
ENDBRANCH   4  16
TORSDOF 3
ENDMDL
MODEL 4
REMARK VINA RESULT:      -8.4      3.135      9.185
REMARK  Name = 
REMARK  4 active torsions:
REMARK  status: ('A' for Active; 'I' for Inactive)
REMARK    1  A    between atoms: C_1  and  N_2
REMARK    2  A    between atoms: C_6  and  C_8
REMARK    3  A    between atoms: C_11  and  C_12
REMARK    4  A    between atoms: C_15  and  C_16
REMARK                            x       y       z     vdW  Elec       q    Type
REMARK                         _______ _______ _______ _____ _____    ______ ____
ROOT
ATOM      1  C   UNL     1       2.632   6.106  19.100  0.00  0.00    +0.000 A 
ATOM      2  C   UNL     1       2.486   7.193  18.229  0.00  0.00    +0.000 A 
ATOM      3  C   UNL     1       1.911   8.382  18.677  0.00  0.00    +0.000 A 
ATOM      4  C   UNL     1       1.399   8.469  19.974  0.00  0.00    +0.000 A 
ATOM      5  C   UNL     1       1.470   7.356  20.823  0.00  0.00    +0.000 A 
ATOM      6  C   UNL     1       2.088   6.179  20.388  0.00  0.00    +0.000 A 
ENDROOT
BRANCH   1  12
ATOM      7  C   UNL     1       7.035   5.067  14.516  0.00  0.00    +0.000 C 
ATOM      8  N   UNL     1       6.538   4.918  15.881  0.00  0.00    +0.000 NA
ATOM      9  C   UNL     1       5.600   3.777  15.983  0.00  0.00    +0.000 C 
ATOM     10  C   UNL     1       4.993   3.617  17.394  0.00  0.00    +0.000 C 
ATOM     11  N   UNL     1       4.434   4.880  17.887  0.00  0.00    +0.000 N 
ATOM     12  C   UNL     1       3.278   4.840  18.662  0.00  0.00    +0.000 C 
ATOM     13  O   UNL     1       2.733   3.785  18.989  0.00  0.00    +0.000 OA
ATOM     14  C   UNL     1       5.382   5.997  17.791  0.00  0.00    +0.000 C 
ATOM     15  C   UNL     1       5.873   6.154  16.342  0.00  0.00    +0.000 C 
ENDBRANCH   1  12
BRANCH   4  16
ATOM     16  C   UNL     1       0.684   9.679  20.390  0.00  0.00    +0.000 A 
ATOM     17  C   UNL     1      -0.281  10.127  19.561  0.00  0.00    +0.000 A 
ATOM     18  N   UNL     1      -1.015  11.239  19.927  0.00  0.00    +0.000 N 
ATOM     19  C   UNL     1      -2.087  11.904  19.353  0.00  0.00    +0.000 A 
ATOM     20  C   UNL     1      -2.294  12.977  20.215  0.00  0.00    +0.000 A 
ATOM     21  N   UNL     1      -1.437  12.961  21.290  0.00  0.00    +0.000 NA
ATOM     22  C   UNL     1      -0.698  11.897  21.089  0.00  0.00    +0.000 A 
ATOM     23  C   UNL     1       0.362  11.376  21.910  0.00  0.00    +0.000 A 
ATOM     24  N   UNL     1       1.025  10.297  21.582  0.00  0.00    +0.000 NA
BRANCH  19  25
ATOM     25  C   UNL     1      -2.777  11.534  18.111  0.00  0.00    +0.000 A 
ATOM     26  C   UNL     1      -2.075  11.112  16.972  0.00  0.00    +0.000 A 
ATOM     27  C   UNL     1      -2.742  10.825  15.778  0.00  0.00    +0.000 A 
ATOM     28  C   UNL     1      -4.129  10.909  15.719  0.00  0.00    +0.000 A 
ATOM     29  C   UNL     1      -4.847  11.272  16.855  0.00  0.00    +0.000 A 
ATOM     30  C   UNL     1      -4.176  11.588  18.041  0.00  0.00    +0.000 A 
ENDBRANCH  19  25
ENDBRANCH   4  16
TORSDOF 3
ENDMDL
MODEL 5
REMARK VINA RESULT:      -8.3      1.809      2.285
REMARK  Name = 
REMARK  4 active torsions:
REMARK  status: ('A' for Active; 'I' for Inactive)
REMARK    1  A    between atoms: C_1  and  N_2
REMARK    2  A    between atoms: C_6  and  C_8
REMARK    3  A    between atoms: C_11  and  C_12
REMARK    4  A    between atoms: C_15  and  C_16
REMARK                            x       y       z     vdW  Elec       q    Type
REMARK                         _______ _______ _______ _____ _____    ______ ____
ROOT
ATOM      1  C   UNL     1       1.074  10.444  19.586  0.00  0.00    +0.000 A 
ATOM      2  C   UNL     1       0.889   9.760  20.794  0.00  0.00    +0.000 A 
ATOM      3  C   UNL     1       1.311   8.438  20.926  0.00  0.00    +0.000 A 
ATOM      4  C   UNL     1       1.846   7.759  19.829  0.00  0.00    +0.000 A 
ATOM      5  C   UNL     1       1.959   8.415  18.595  0.00  0.00    +0.000 A 
ATOM      6  C   UNL     1       1.577   9.755  18.475  0.00  0.00    +0.000 A 
ENDROOT
BRANCH   1  12
ATOM      7  C   UNL     1      -3.796  13.696  22.267  0.00  0.00    +0.000 C 
ATOM      8  N   UNL     1      -2.385  13.544  21.921  0.00  0.00    +0.000 NA
ATOM      9  C   UNL     1      -2.122  14.024  20.545  0.00  0.00    +0.000 C 
ATOM     10  C   UNL     1      -0.654  13.823  20.106  0.00  0.00    +0.000 C 
ATOM     11  N   UNL     1      -0.204  12.448  20.342  0.00  0.00    +0.000 N 
ATOM     12  C   UNL     1       0.671  11.867  19.429  0.00  0.00    +0.000 C 
ATOM     13  O   UNL     1       1.118  12.476  18.456  0.00  0.00    +0.000 OA
ATOM     14  C   UNL     1      -0.461  11.994  21.714  0.00  0.00    +0.000 C 
ATOM     15  C   UNL     1      -1.956  12.137  22.049  0.00  0.00    +0.000 C 
ENDBRANCH   1  12
BRANCH   4  16
ATOM     16  C   UNL     1       2.168   6.333  19.946  0.00  0.00    +0.000 A 
ATOM     17  C   UNL     1       3.054   5.839  19.056  0.00  0.00    +0.000 A 
ATOM     18  N   UNL     1       3.425   4.510  19.149  0.00  0.00    +0.000 N 
ATOM     19  C   UNL     1       4.330   3.724  18.455  0.00  0.00    +0.000 A 
ATOM     20  C   UNL     1       4.160   2.465  19.024  0.00  0.00    +0.000 A 
ATOM     21  N   UNL     1       3.237   2.470  20.044  0.00  0.00    +0.000 NA
ATOM     22  C   UNL     1       2.833   3.715  20.098  0.00  0.00    +0.000 A 
ATOM     23  C   UNL     1       1.876   4.307  20.995  0.00  0.00    +0.000 A 
ATOM     24  N   UNL     1       1.560   5.575  20.933  0.00  0.00    +0.000 NA
BRANCH  19  25
ATOM     25  C   UNL     1       5.212   4.164  17.367  0.00  0.00    +0.000 A 
ATOM     26  C   UNL     1       4.818   4.094  16.021  0.00  0.00    +0.000 A 
ATOM     27  C   UNL     1       5.691   4.456  14.993  0.00  0.00    +0.000 A 
ATOM     28  C   UNL     1       6.958   4.943  15.297  0.00  0.00    +0.000 A 
ATOM     29  C   UNL     1       7.347   5.073  16.627  0.00  0.00    +0.000 A 
ATOM     30  C   UNL     1       6.482   4.682  17.655  0.00  0.00    +0.000 A 
ENDBRANCH  19  25
ENDBRANCH   4  16
TORSDOF 3
ENDMDL
MODEL 6
REMARK VINA RESULT:      -8.3      0.802      1.214
REMARK  Name = 
REMARK  4 active torsions:
REMARK  status: ('A' for Active; 'I' for Inactive)
REMARK    1  A    between atoms: C_1  and  N_2
REMARK    2  A    between atoms: C_6  and  C_8
REMARK    3  A    between atoms: C_11  and  C_12
REMARK    4  A    between atoms: C_15  and  C_16
REMARK                            x       y       z     vdW  Elec       q    Type
REMARK                         _______ _______ _______ _____ _____    ______ ____
ROOT
ATOM      1  C   UNL     1       0.869  10.490  19.384  0.00  0.00    +0.000 A 
ATOM      2  C   UNL     1       1.471   9.769  18.346  0.00  0.00    +0.000 A 
ATOM      3  C   UNL     1       1.822   8.432  18.527  0.00  0.00    +0.000 A 
ATOM      4  C   UNL     1       1.652   7.825  19.773  0.00  0.00    +0.000 A 
ATOM      5  C   UNL     1       1.123   8.567  20.839  0.00  0.00    +0.000 A 
ATOM      6  C   UNL     1       0.729   9.894  20.644  0.00  0.00    +0.000 A 
ENDROOT
BRANCH   1  12
ATOM      7  C   UNL     1       4.415  15.834  18.799  0.00  0.00    +0.000 C 
ATOM      8  N   UNL     1       3.346  14.943  18.355  0.00  0.00    +0.000 NA
ATOM      9  C   UNL     1       2.087  15.220  19.084  0.00  0.00    +0.000 C 
ATOM     10  C   UNL     1       0.942  14.258  18.698  0.00  0.00    +0.000 C 
ATOM     11  N   UNL     1       1.365  12.857  18.774  0.00  0.00    +0.000 N 
ATOM     12  C   UNL     1       0.446  11.905  19.206  0.00  0.00    +0.000 C 
ATOM     13  O   UNL     1      -0.720  12.185  19.483  0.00  0.00    +0.000 OA
ATOM     14  C   UNL     1       2.607  12.598  18.035  0.00  0.00    +0.000 C 
ATOM     15  C   UNL     1       3.727  13.527  18.535  0.00  0.00    +0.000 C 
ENDBRANCH   1  12
BRANCH   4  16
ATOM     16  C   UNL     1       2.142   6.460  19.987  0.00  0.00    +0.000 A 
ATOM     17  C   UNL     1       3.040   5.993  19.094  0.00  0.00    +0.000 A 
ATOM     18  N   UNL     1       3.566   4.727  19.274  0.00  0.00    +0.000 N 
ATOM     19  C   UNL     1       4.525   3.990  18.598  0.00  0.00    +0.000 A 
ATOM     20  C   UNL     1       4.525   2.774  19.275  0.00  0.00    +0.000 A 
ATOM     21  N   UNL     1       3.654   2.762  20.338  0.00  0.00    +0.000 NA
ATOM     22  C   UNL     1       3.111   3.955  20.314  0.00  0.00    +0.000 A 
ATOM     23  C   UNL     1       2.132   4.511  21.210  0.00  0.00    +0.000 A 
ATOM     24  N   UNL     1       1.669   5.726  21.063  0.00  0.00    +0.000 NA
BRANCH  19  25
ATOM     25  C   UNL     1       5.301   4.431  17.433  0.00  0.00    +0.000 A 
ATOM     26  C   UNL     1       4.934   4.081  16.124  0.00  0.00    +0.000 A 
ATOM     27  C   UNL     1       5.718   4.454  15.030  0.00  0.00    +0.000 A 
ATOM     28  C   UNL     1       6.858   5.227  15.223  0.00  0.00    +0.000 A 
ATOM     29  C   UNL     1       7.207   5.632  16.509  0.00  0.00    +0.000 A 
ATOM     30  C   UNL     1       6.437   5.232  17.606  0.00  0.00    +0.000 A 
ENDBRANCH  19  25
ENDBRANCH   4  16
TORSDOF 3
ENDMDL
MODEL 7
REMARK VINA RESULT:      -8.0      2.281      9.123
REMARK  Name = 
REMARK  4 active torsions:
REMARK  status: ('A' for Active; 'I' for Inactive)
REMARK    1  A    between atoms: C_1  and  N_2
REMARK    2  A    between atoms: C_6  and  C_8
REMARK    3  A    between atoms: C_11  and  C_12
REMARK    4  A    between atoms: C_15  and  C_16
REMARK                            x       y       z     vdW  Elec       q    Type
REMARK                         _______ _______ _______ _____ _____    ______ ____
ROOT
ATOM      1  C   UNL     1       2.271   7.211  19.017  0.00  0.00    +0.000 A 
ATOM      2  C   UNL     1       1.821   7.838  20.184  0.00  0.00    +0.000 A 
ATOM      3  C   UNL     1       1.257   9.112  20.127  0.00  0.00    +0.000 A 
ATOM      4  C   UNL     1       1.214   9.807  18.916  0.00  0.00    +0.000 A 
ATOM      5  C   UNL     1       1.737   9.214  17.758  0.00  0.00    +0.000 A 
ATOM      6  C   UNL     1       2.261   7.918  17.808  0.00  0.00    +0.000 A 
ENDROOT
BRANCH   1  12
ATOM      7  C   UNL     1       6.157   4.252  14.818  0.00  0.00    +0.000 C 
ATOM      8  N   UNL     1       5.798   4.661  16.174  0.00  0.00    +0.000 NA
ATOM      9  C   UNL     1       4.849   3.701  16.783  0.00  0.00    +0.000 C 
ATOM     10  C   UNL     1       4.386   4.124  18.195  0.00  0.00    +0.000 C 
ATOM     11  N   UNL     1       3.910   5.510  18.215  0.00  0.00    +0.000 N 
ATOM     12  C   UNL     1       2.839   5.836  19.042  0.00  0.00    +0.000 C 
ATOM     13  O   UNL     1       2.306   5.018  19.792  0.00  0.00    +0.000 OA
ATOM     14  C   UNL     1       4.869   6.449  17.619  0.00  0.00    +0.000 C 
ATOM     15  C   UNL     1       5.213   6.016  16.183  0.00  0.00    +0.000 C 
ENDBRANCH   1  12
BRANCH   4  16
ATOM     16  C   UNL     1       0.736  11.193  18.892  0.00  0.00    +0.000 A 
ATOM     17  C   UNL     1       1.674  12.157  18.995  0.00  0.00    +0.000 A 
ATOM     18  N   UNL     1       1.281  13.481  18.934  0.00  0.00    +0.000 N 
ATOM     19  C   UNL     1       1.973  14.681  18.946  0.00  0.00    +0.000 A 
ATOM     20  C   UNL     1       0.959  15.634  18.915  0.00  0.00    +0.000 A 
ATOM     21  N   UNL     1      -0.292  15.068  18.843  0.00  0.00    +0.000 NA
ATOM     22  C   UNL     1      -0.056  13.779  18.840  0.00  0.00    +0.000 A 
ATOM     23  C   UNL     1      -1.000  12.696  18.761  0.00  0.00    +0.000 A 
ATOM     24  N   UNL     1      -0.622  11.445  18.775  0.00  0.00    +0.000 NA
BRANCH  19  25
ATOM     25  C   UNL     1       3.431  14.845  19.007  0.00  0.00    +0.000 A 
ATOM     26  C   UNL     1       4.232  14.777  17.857  0.00  0.00    +0.000 A 
ATOM     27  C   UNL     1       5.624  14.871  17.939  0.00  0.00    +0.000 A 
ATOM     28  C   UNL     1       6.234  15.084  19.170  0.00  0.00    +0.000 A 
ATOM     29  C   UNL     1       5.452  15.210  20.315  0.00  0.00    +0.000 A 
ATOM     30  C   UNL     1       4.061  15.086  20.235  0.00  0.00    +0.000 A 
ENDBRANCH  19  25
ENDBRANCH   4  16
TORSDOF 3
ENDMDL
MODEL 8
REMARK VINA RESULT:      -8.0      1.729      2.526
REMARK  Name = 
REMARK  4 active torsions:
REMARK  status: ('A' for Active; 'I' for Inactive)
REMARK    1  A    between atoms: C_1  and  N_2
REMARK    2  A    between atoms: C_6  and  C_8
REMARK    3  A    between atoms: C_11  and  C_12
REMARK    4  A    between atoms: C_15  and  C_16
REMARK                            x       y       z     vdW  Elec       q    Type
REMARK                         _______ _______ _______ _____ _____    ______ ____
ROOT
ATOM      1  C   UNL     1       1.149  10.409  19.471  0.00  0.00    +0.000 A 
ATOM      2  C   UNL     1       1.728   9.687  18.420  0.00  0.00    +0.000 A 
ATOM      3  C   UNL     1       1.990   8.325  18.561  0.00  0.00    +0.000 A 
ATOM      4  C   UNL     1       1.754   7.688  19.782  0.00  0.00    +0.000 A 
ATOM      5  C   UNL     1       1.249   8.425  20.863  0.00  0.00    +0.000 A 
ATOM      6  C   UNL     1       0.944   9.781  20.706  0.00  0.00    +0.000 A 
ENDROOT
BRANCH   1  12
ATOM      7  C   UNL     1      -3.622  13.845  22.099  0.00  0.00    +0.000 C 
ATOM      8  N   UNL     1      -2.212  13.629  21.786  0.00  0.00    +0.000 NA
ATOM      9  C   UNL     1      -1.889  14.125  20.428  0.00  0.00    +0.000 C 
ATOM     10  C   UNL     1      -0.422  13.859  20.021  0.00  0.00    +0.000 C 
ATOM     11  N   UNL     1      -0.047  12.459  20.238  0.00  0.00    +0.000 N 
ATOM     12  C   UNL     1       0.821  11.854  19.335  0.00  0.00    +0.000 C 
ATOM     13  O   UNL     1       1.323  12.460  18.388  0.00  0.00    +0.000 OA
ATOM     14  C   UNL     1      -0.363  11.990  21.593  0.00  0.00    +0.000 C 
ATOM     15  C   UNL     1      -1.857  12.200  21.894  0.00  0.00    +0.000 C 
ENDBRANCH   1  12
BRANCH   4  16
ATOM     16  C   UNL     1       2.151   6.288  19.957  0.00  0.00    +0.000 A 
ATOM     17  C   UNL     1       3.052   5.801  19.078  0.00  0.00    +0.000 A 
ATOM     18  N   UNL     1       3.493   4.499  19.225  0.00  0.00    +0.000 N 
ATOM     19  C   UNL     1       4.430   3.730  18.554  0.00  0.00    +0.000 A 
ATOM     20  C   UNL     1       4.332   2.491  19.180  0.00  0.00    +0.000 A 
ATOM     21  N   UNL     1       3.422   2.493  20.211  0.00  0.00    +0.000 NA
ATOM     22  C   UNL     1       2.954   3.717  20.216  0.00  0.00    +0.000 A 
ATOM     23  C   UNL     1       1.978   4.298  21.099  0.00  0.00    +0.000 A 
ATOM     24  N   UNL     1       1.595   5.544  20.985  0.00  0.00    +0.000 NA
BRANCH  19  25
ATOM     25  C   UNL     1       5.275   4.166  17.435  0.00  0.00    +0.000 A 
ATOM     26  C   UNL     1       6.565   4.679  17.638  0.00  0.00    +0.000 A 
ATOM     27  C   UNL     1       7.332   5.150  16.569  0.00  0.00    +0.000 A 
ATOM     28  C   UNL     1       6.838   5.069  15.272  0.00  0.00    +0.000 A 
ATOM     29  C   UNL     1       5.583   4.511  15.044  0.00  0.00    +0.000 A 
ATOM     30  C   UNL     1       4.805   4.068  16.118  0.00  0.00    +0.000 A 
ENDBRANCH  19  25
ENDBRANCH   4  16
TORSDOF 3
ENDMDL
MODEL 9
REMARK VINA RESULT:      -7.9      2.243      9.300
REMARK  Name = 
REMARK  4 active torsions:
REMARK  status: ('A' for Active; 'I' for Inactive)
REMARK    1  A    between atoms: C_1  and  N_2
REMARK    2  A    between atoms: C_6  and  C_8
REMARK    3  A    between atoms: C_11  and  C_12
REMARK    4  A    between atoms: C_15  and  C_16
REMARK                            x       y       z     vdW  Elec       q    Type
REMARK                         _______ _______ _______ _____ _____    ______ ____
ROOT
ATOM      1  C   UNL     1       2.233   7.239  19.000  0.00  0.00    +0.000 A 
ATOM      2  C   UNL     1       2.219   7.957  17.798  0.00  0.00    +0.000 A 
ATOM      3  C   UNL     1       1.826   9.295  17.781  0.00  0.00    +0.000 A 
ATOM      4  C   UNL     1       1.363   9.905  18.949  0.00  0.00    +0.000 A 
ATOM      5  C   UNL     1       1.299   9.166  20.139  0.00  0.00    +0.000 A 
ATOM      6  C   UNL     1       1.737   7.838  20.165  0.00  0.00    +0.000 A 
ENDROOT
BRANCH   1  12
ATOM      7  C   UNL     1       6.112   3.969  15.033  0.00  0.00    +0.000 C 
ATOM      8  N   UNL     1       5.707   4.408  16.365  0.00  0.00    +0.000 NA
ATOM      9  C   UNL     1       4.649   3.529  16.915  0.00  0.00    +0.000 C 
ATOM     10  C   UNL     1       4.138   3.991  18.298  0.00  0.00    +0.000 C 
ATOM     11  N   UNL     1       3.775   5.411  18.292  0.00  0.00    +0.000 N 
ATOM     12  C   UNL     1       2.687   5.824  19.055  0.00  0.00    +0.000 C 
ATOM     13  O   UNL     1       2.046   5.053  19.770  0.00  0.00    +0.000 OA
ATOM     14  C   UNL     1       4.841   6.268  17.757  0.00  0.00    +0.000 C 
ATOM     15  C   UNL     1       5.234   5.806  16.343  0.00  0.00    +0.000 C 
ENDBRANCH   1  12
BRANCH   4  16
ATOM     16  C   UNL     1       0.833  11.271  18.892  0.00  0.00    +0.000 A 
ATOM     17  C   UNL     1       1.729  12.272  19.014  0.00  0.00    +0.000 A 
ATOM     18  N   UNL     1       1.288  13.579  18.924  0.00  0.00    +0.000 N 
ATOM     19  C   UNL     1       1.934  14.805  18.942  0.00  0.00    +0.000 A 
ATOM     20  C   UNL     1       0.885  15.718  18.867  0.00  0.00    +0.000 A 
ATOM     21  N   UNL     1      -0.340  15.103  18.761  0.00  0.00    +0.000 NA
ATOM     22  C   UNL     1      -0.055  13.824  18.782  0.00  0.00    +0.000 A 
ATOM     23  C   UNL     1      -0.954  12.705  18.686  0.00  0.00    +0.000 A 
ATOM     24  N   UNL     1      -0.528  11.469  18.728  0.00  0.00    +0.000 NA
BRANCH  19  25
ATOM     25  C   UNL     1       3.381  15.026  19.049  0.00  0.00    +0.000 A 
ATOM     26  C   UNL     1       3.991  15.362  20.268  0.00  0.00    +0.000 A 
ATOM     27  C   UNL     1       5.360  15.632  20.341  0.00  0.00    +0.000 A 
ATOM     28  C   UNL     1       6.151  15.522  19.203  0.00  0.00    +0.000 A 
ATOM     29  C   UNL     1       5.574  15.135  17.996  0.00  0.00    +0.000 A 
ATOM     30  C   UNL     1       4.198  14.894  17.919  0.00  0.00    +0.000 A 
ENDBRANCH  19  25
ENDBRANCH   4  16
TORSDOF 3
ENDMDL
