MODEL 1
REMARK VINA RESULT:      -6.5      0.000      0.000
REMARK  Name = 
REMARK  10 active torsions:
REMARK  status: ('A' for Active; 'I' for Inactive)
REMARK    1  A    between atoms: C_1  and  O_2
REMARK    2  A    between atoms: O_2  and  C_3
REMARK    3  A    between atoms: C_3  and  C_4
REMARK    4  A    between atoms: C_4  and  N_5
REMARK    5  A    between atoms: C_7  and  C_8
REMARK    6  A    between atoms: C_8  and  N_9
REMARK    7  A    between atoms: N_9  and  C_10
REMARK    8  A    between atoms: C_15  and  N_16
REMARK    9  A    between atoms: N_16  and  C_17
REMARK   10  A    between atoms: N_16  and  C_18
REMARK                            x       y       z     vdW  Elec       q    Type
REMARK                         _______ _______ _______ _____ _____    ______ ____
ROOT
ATOM      1  C   UNL     1       3.287   6.493  17.567  0.00  0.00    +0.000 C 
ENDROOT
BRANCH   1   4
ATOM      2  N   UNL     1       1.577   4.111  19.770  0.00  0.00    +0.000 N 
ATOM      3  C   UNL     1       2.471   5.225  19.603  0.00  0.00    +0.000 C 
ATOM      4  C   UNL     1       2.136   5.730  18.212  0.00  0.00    +0.000 C 
ATOM      5  C   UNL     1       1.746   4.450  17.461  0.00  0.00    +0.000 C 
ATOM      6  C   UNL     1       1.203   3.562  18.553  0.00  0.00    +0.000 C 
ATOM      7  O   UNL     1       0.601   2.519  18.366  0.00  0.00    +0.000 OA
BRANCH   2   8
ATOM      8  C   UNL     1       1.365   3.437  21.045  0.00  0.00    +0.000 C 
BRANCH   8   9
ATOM      9  C   UNL     1       2.586   2.647  21.532  0.00  0.00    +0.000 C 
BRANCH   9  11
ATOM     10  C   UNL     1       4.554   2.187  20.315  0.00  0.00    +0.000 C 
ATOM     11  O   UNL     1       3.164   1.929  20.440  0.00  0.00    +0.000 OA
ENDBRANCH   9  11
ENDBRANCH   8   9
ENDBRANCH   2   8
ENDBRANCH   1   4
BRANCH   1  12
ATOM     12  N   UNL     1       4.543   5.901  17.999  0.00  0.00    +0.000 N 
ATOM     13  H   UNL     1       5.132   6.545  18.526  0.00  0.00    +0.000 HD
BRANCH  12  14
ATOM     14  C   UNL     1       5.379   5.428  16.958  0.00  0.00    +0.000 A 
ATOM     15  N   UNL     1       4.828   4.689  15.962  0.00  0.00    +0.000 NA
ATOM     16  C   UNL     1       5.652   4.351  14.952  0.00  0.00    +0.000 A 
ATOM     17  C   UNL     1       6.985   4.708  14.934  0.00  0.00    +0.000 A 
ATOM     18  N   UNL     1       7.566   5.420  15.925  0.00  0.00    +0.000 NA
ATOM     19  C   UNL     1       6.774   5.787  16.964  0.00  0.00    +0.000 A 
BRANCH  19  20
ATOM     20  N   UNL     1       7.310   6.619  17.960  0.00  0.00    +0.000 N 
ATOM     21  C   UNL     1       7.744   7.949  17.562  0.00  0.00    +0.000 C 
ATOM     22  C   UNL     1       8.064   5.994  19.047  0.00  0.00    +0.000 C 
ENDBRANCH  19  20
ENDBRANCH  12  14
ENDBRANCH   1  12
TORSDOF 7
ENDMDL
MODEL 2
REMARK VINA RESULT:      -6.2      2.771      6.365
REMARK  Name = 
REMARK  10 active torsions:
REMARK  status: ('A' for Active; 'I' for Inactive)
REMARK    1  A    between atoms: C_1  and  O_2
REMARK    2  A    between atoms: O_2  and  C_3
REMARK    3  A    between atoms: C_3  and  C_4
REMARK    4  A    between atoms: C_4  and  N_5
REMARK    5  A    between atoms: C_7  and  C_8
REMARK    6  A    between atoms: C_8  and  N_9
REMARK    7  A    between atoms: N_9  and  C_10
REMARK    8  A    between atoms: C_15  and  N_16
REMARK    9  A    between atoms: N_16  and  C_17
REMARK   10  A    between atoms: N_16  and  C_18
REMARK                            x       y       z     vdW  Elec       q    Type
REMARK                         _______ _______ _______ _____ _____    ______ ____
ROOT
ATOM      1  C   UNL     1       3.960   6.318  18.264  0.00  0.00    +0.000 C 
ENDROOT
BRANCH   1   4
ATOM      2  N   UNL     1       6.464   5.277  15.795  0.00  0.00    +0.000 N 
ATOM      3  C   UNL     1       5.160   5.806  16.093  0.00  0.00    +0.000 C 
ATOM      4  C   UNL     1       5.296   6.267  17.531  0.00  0.00    +0.000 C 
ATOM      5  C   UNL     1       6.289   5.262  18.128  0.00  0.00    +0.000 C 
ATOM      6  C   UNL     1       7.124   4.855  16.939  0.00  0.00    +0.000 C 
ATOM      7  O   UNL     1       8.159   4.215  17.003  0.00  0.00    +0.000 OA
BRANCH   2   8
ATOM      8  C   UNL     1       6.897   4.917  14.450  0.00  0.00    +0.000 C 
BRANCH   8   9
ATOM      9  C   UNL     1       6.218   3.657  13.904  0.00  0.00    +0.000 C 
BRANCH   9  11
ATOM     10  C   UNL     1       5.140   3.188  11.857  0.00  0.00    +0.000 C 
ATOM     11  O   UNL     1       6.340   3.620  12.480  0.00  0.00    +0.000 OA
ENDBRANCH   9  11
ENDBRANCH   8   9
ENDBRANCH   2   8
ENDBRANCH   1   4
BRANCH   1  12
ATOM     12  N   UNL     1       4.074   5.564  19.501  0.00  0.00    +0.000 N 
ATOM     13  H   UNL     1       4.832   4.882  19.489  0.00  0.00    +0.000 HD
BRANCH  12  14
ATOM     14  C   UNL     1       2.928   4.812  19.860  0.00  0.00    +0.000 A 
ATOM     15  N   UNL     1       1.831   5.470  20.313  0.00  0.00    +0.000 NA
ATOM     16  C   UNL     1       0.742   4.712  20.546  0.00  0.00    +0.000 A 
ATOM     17  C   UNL     1       0.740   3.344  20.362  0.00  0.00    +0.000 A 
ATOM     18  N   UNL     1       1.825   2.661  19.938  0.00  0.00    +0.000 NA
ATOM     19  C   UNL     1       2.947   3.382  19.687  0.00  0.00    +0.000 A 
BRANCH  19  20
ATOM     20  N   UNL     1       4.063   2.727  19.142  0.00  0.00    +0.000 N 
ATOM     21  C   UNL     1       4.019   2.389  17.728  0.00  0.00    +0.000 C 
ATOM     22  C   UNL     1       4.809   1.807  20.001  0.00  0.00    +0.000 C 
ENDBRANCH  19  20
ENDBRANCH  12  14
ENDBRANCH   1  12
TORSDOF 7
ENDMDL
MODEL 3
REMARK VINA RESULT:      -6.1      2.149      2.959
REMARK  Name = 
REMARK  10 active torsions:
REMARK  status: ('A' for Active; 'I' for Inactive)
REMARK    1  A    between atoms: C_1  and  O_2
REMARK    2  A    between atoms: O_2  and  C_3
REMARK    3  A    between atoms: C_3  and  C_4
REMARK    4  A    between atoms: C_4  and  N_5
REMARK    5  A    between atoms: C_7  and  C_8
REMARK    6  A    between atoms: C_8  and  N_9
REMARK    7  A    between atoms: N_9  and  C_10
REMARK    8  A    between atoms: C_15  and  N_16
REMARK    9  A    between atoms: N_16  and  C_17
REMARK   10  A    between atoms: N_16  and  C_18
REMARK                            x       y       z     vdW  Elec       q    Type
REMARK                         _______ _______ _______ _____ _____    ______ ____
ROOT
ATOM      1  C   UNL     1       4.365   2.927  17.789  0.00  0.00    +0.000 C 
ENDROOT
BRANCH   1   4
ATOM      2  N   UNL     1       2.069   4.725  20.013  0.00  0.00    +0.000 N 
ATOM      3  C   UNL     1       3.140   4.748  19.054  0.00  0.00    +0.000 C 
ATOM      4  C   UNL     1       3.043   3.385  18.397  0.00  0.00    +0.000 C 
ATOM      5  C   UNL     1       2.541   2.484  19.532  0.00  0.00    +0.000 C 
ATOM      6  C   UNL     1       1.748   3.432  20.398  0.00  0.00    +0.000 C 
ATOM      7  O   UNL     1       1.013   3.091  21.308  0.00  0.00    +0.000 OA
BRANCH   2   8
ATOM      8  C   UNL     1       1.614   5.905  20.738  0.00  0.00    +0.000 C 
BRANCH   8   9
ATOM      9  C   UNL     1       2.089   7.225  20.120  0.00  0.00    +0.000 C 
BRANCH   9  11
ATOM     10  C   UNL     1       1.364   8.796  21.726  0.00  0.00    +0.000 C 
ATOM     11  O   UNL     1       1.157   8.265  20.426  0.00  0.00    +0.000 OA
ENDBRANCH   9  11
ENDBRANCH   8   9
ENDBRANCH   2   8
ENDBRANCH   1   4
BRANCH   1  12
ATOM     12  N   UNL     1       5.316   4.025  17.852  0.00  0.00    +0.000 N 
ATOM     13  H   UNL     1       4.889   4.912  18.119  0.00  0.00    +0.000 HD
BRANCH  12  14
ATOM     14  C   UNL     1       5.995   4.309  16.642  0.00  0.00    +0.000 A 
ATOM     15  N   UNL     1       5.697   3.577  15.539  0.00  0.00    +0.000 NA
ATOM     16  C   UNL     1       6.303   3.956  14.397  0.00  0.00    +0.000 A 
ATOM     17  C   UNL     1       7.195   5.008  14.347  0.00  0.00    +0.000 A 
ATOM     18  N   UNL     1       7.530   5.736  15.435  0.00  0.00    +0.000 NA
ATOM     19  C   UNL     1       6.942   5.393  16.609  0.00  0.00    +0.000 A 
BRANCH  19  20
ATOM     20  N   UNL     1       7.179   6.191  17.740  0.00  0.00    +0.000 N 
ATOM     21  C   UNL     1       7.438   7.606  17.522  0.00  0.00    +0.000 C 
ATOM     22  C   UNL     1       7.859   5.581  18.883  0.00  0.00    +0.000 C 
ENDBRANCH  19  20
ENDBRANCH  12  14
ENDBRANCH   1  12
TORSDOF 7
ENDMDL
MODEL 4
REMARK VINA RESULT:      -5.9      2.998      3.725
REMARK  Name = 
REMARK  10 active torsions:
REMARK  status: ('A' for Active; 'I' for Inactive)
REMARK    1  A    between atoms: C_1  and  O_2
REMARK    2  A    between atoms: O_2  and  C_3
REMARK    3  A    between atoms: C_3  and  C_4
REMARK    4  A    between atoms: C_4  and  N_5
REMARK    5  A    between atoms: C_7  and  C_8
REMARK    6  A    between atoms: C_8  and  N_9
REMARK    7  A    between atoms: N_9  and  C_10
REMARK    8  A    between atoms: C_15  and  N_16
REMARK    9  A    between atoms: N_16  and  C_17
REMARK   10  A    between atoms: N_16  and  C_18
REMARK                            x       y       z     vdW  Elec       q    Type
REMARK                         _______ _______ _______ _____ _____    ______ ____
ROOT
ATOM      1  C   UNL     1       4.225   4.133  18.591  0.00  0.00    +0.000 C 
ENDROOT
BRANCH   1   4
ATOM      2  N   UNL     1       2.140   6.809  19.986  0.00  0.00    +0.000 N 
ATOM      3  C   UNL     1       2.650   5.466  20.061  0.00  0.00    +0.000 C 
ATOM      4  C   UNL     1       3.859   5.506  19.145  0.00  0.00    +0.000 C 
ATOM      5  C   UNL     1       3.448   6.518  18.068  0.00  0.00    +0.000 C 
ATOM      6  C   UNL     1       2.495   7.430  18.799  0.00  0.00    +0.000 C 
ATOM      7  O   UNL     1       2.081   8.492  18.367  0.00  0.00    +0.000 OA
BRANCH   2   8
ATOM      8  C   UNL     1       1.108   7.326  20.877  0.00  0.00    +0.000 C 
BRANCH   8   9
ATOM      9  C   UNL     1       1.570   8.514  21.728  0.00  0.00    +0.000 C 
BRANCH   9  11
ATOM     10  C   UNL     1      -0.002   9.555  23.146  0.00  0.00    +0.000 C 
ATOM     11  O   UNL     1       0.518   9.475  21.828  0.00  0.00    +0.000 OA
ENDBRANCH   9  11
ENDBRANCH   8   9
ENDBRANCH   2   8
ENDBRANCH   1   4
BRANCH   1  12
ATOM     12  N   UNL     1       5.670   4.054  18.451  0.00  0.00    +0.000 N 
ATOM     13  H   UNL     1       6.169   4.698  19.065  0.00  0.00    +0.000 HD
BRANCH  12  14
ATOM     14  C   UNL     1       6.170   4.338  17.157  0.00  0.00    +0.000 A 
ATOM     15  N   UNL     1       5.775   3.558  16.119  0.00  0.00    +0.000 NA
ATOM     16  C   UNL     1       6.206   3.936  14.900  0.00  0.00    +0.000 A 
ATOM     17  C   UNL     1       7.022   5.033  14.710  0.00  0.00    +0.000 A 
ATOM     18  N   UNL     1       7.452   5.810  15.728  0.00  0.00    +0.000 NA
ATOM     19  C   UNL     1       7.041   5.471  16.976  0.00  0.00    +0.000 A 
BRANCH  19  20
ATOM     20  N   UNL     1       7.375   6.313  18.049  0.00  0.00    +0.000 N 
ATOM     21  C   UNL     1       7.723   7.692  17.737  0.00  0.00    +0.000 C 
ATOM     22  C   UNL     1       8.054   5.723  19.203  0.00  0.00    +0.000 C 
ENDBRANCH  19  20
ENDBRANCH  12  14
ENDBRANCH   1  12
TORSDOF 7
ENDMDL
MODEL 5
REMARK VINA RESULT:      -5.9      2.999      4.322
REMARK  Name = 
REMARK  10 active torsions:
REMARK  status: ('A' for Active; 'I' for Inactive)
REMARK    1  A    between atoms: C_1  and  O_2
REMARK    2  A    between atoms: O_2  and  C_3
REMARK    3  A    between atoms: C_3  and  C_4
REMARK    4  A    between atoms: C_4  and  N_5
REMARK    5  A    between atoms: C_7  and  C_8
REMARK    6  A    between atoms: C_8  and  N_9
REMARK    7  A    between atoms: N_9  and  C_10
REMARK    8  A    between atoms: C_15  and  N_16
REMARK    9  A    between atoms: N_16  and  C_17
REMARK   10  A    between atoms: N_16  and  C_18
REMARK                            x       y       z     vdW  Elec       q    Type
REMARK                         _______ _______ _______ _____ _____    ______ ____
ROOT
ATOM      1  C   UNL     1       3.484   4.542  18.358  0.00  0.00    +0.000 C 
ENDROOT
BRANCH   1   4
ATOM      2  N   UNL     1       2.118   7.920  18.775  0.00  0.00    +0.000 N 
ATOM      3  C   UNL     1       2.807   6.951  17.965  0.00  0.00    +0.000 C 
ATOM      4  C   UNL     1       2.456   5.635  18.632  0.00  0.00    +0.000 C 
ATOM      5  C   UNL     1       2.338   6.013  20.113  0.00  0.00    +0.000 C 
ATOM      6  C   UNL     1       1.909   7.459  20.066  0.00  0.00    +0.000 C 
ATOM      7  O   UNL     1       1.511   8.097  21.025  0.00  0.00    +0.000 OA
BRANCH   2   8
ATOM      8  C   UNL     1       1.967   9.320  18.397  0.00  0.00    +0.000 C 
BRANCH   8   9
ATOM      9  C   UNL     1       0.539   9.693  17.984  0.00  0.00    +0.000 C 
BRANCH   9  11
ATOM     10  C   UNL     1       0.256  11.563  19.395  0.00  0.00    +0.000 C 
ATOM     11  O   UNL     1      -0.162  10.238  19.104  0.00  0.00    +0.000 OA
ENDBRANCH   9  11
ENDBRANCH   8   9
ENDBRANCH   2   8
ENDBRANCH   1   4
BRANCH   1  12
ATOM     12  N   UNL     1       4.811   5.137  18.354  0.00  0.00    +0.000 N 
ATOM     13  H   UNL     1       4.800   6.146  18.497  0.00  0.00    +0.000 HD
BRANCH  12  14
ATOM     14  C   UNL     1       5.553   4.956  17.161  0.00  0.00    +0.000 A 
ATOM     15  N   UNL     1       5.039   4.164  16.186  0.00  0.00    +0.000 NA
ATOM     16  C   UNL     1       5.742   4.109  15.038  0.00  0.00    +0.000 A 
ATOM     17  C   UNL     1       6.928   4.792  14.864  0.00  0.00    +0.000 A 
ATOM     18  N   UNL     1       7.477   5.565  15.827  0.00  0.00    +0.000 NA
ATOM     19  C   UNL     1       6.802   5.655  17.001  0.00  0.00    +0.000 A 
BRANCH  19  20
ATOM     20  N   UNL     1       7.280   6.532  17.988  0.00  0.00    +0.000 N 
ATOM     21  C   UNL     1       7.659   7.873  17.569  0.00  0.00    +0.000 C 
ATOM     22  C   UNL     1       8.042   5.966  19.102  0.00  0.00    +0.000 C 
ENDBRANCH  19  20
ENDBRANCH  12  14
ENDBRANCH   1  12
TORSDOF 7
ENDMDL
MODEL 6
REMARK VINA RESULT:      -5.9      3.317      6.940
REMARK  Name = 
REMARK  10 active torsions:
REMARK  status: ('A' for Active; 'I' for Inactive)
REMARK    1  A    between atoms: C_1  and  O_2
REMARK    2  A    between atoms: O_2  and  C_3
REMARK    3  A    between atoms: C_3  and  C_4
REMARK    4  A    between atoms: C_4  and  N_5
REMARK    5  A    between atoms: C_7  and  C_8
REMARK    6  A    between atoms: C_8  and  N_9
REMARK    7  A    between atoms: N_9  and  C_10
REMARK    8  A    between atoms: C_15  and  N_16
REMARK    9  A    between atoms: N_16  and  C_17
REMARK   10  A    between atoms: N_16  and  C_18
REMARK                            x       y       z     vdW  Elec       q    Type
REMARK                         _______ _______ _______ _____ _____    ______ ____
ROOT
ATOM      1  C   UNL     1       4.766   4.063  17.149  0.00  0.00    +0.000 C 
ENDROOT
BRANCH   1   4
ATOM      2  N   UNL     1       6.329   4.243  13.836  0.00  0.00    +0.000 N 
ATOM      3  C   UNL     1       5.362   3.652  14.721  0.00  0.00    +0.000 C 
ATOM      4  C   UNL     1       5.248   4.673  15.837  0.00  0.00    +0.000 C 
ATOM      5  C   UNL     1       6.661   5.266  15.914  0.00  0.00    +0.000 C 
ATOM      6  C   UNL     1       7.174   5.117  14.503  0.00  0.00    +0.000 C 
ATOM      7  O   UNL     1       8.189   5.638  14.074  0.00  0.00    +0.000 OA
BRANCH   2   8
ATOM      8  C   UNL     1       6.606   3.737  12.497  0.00  0.00    +0.000 C 
BRANCH   8   9
ATOM      9  C   UNL     1       5.393   3.085  11.825  0.00  0.00    +0.000 C 
BRANCH   9  11
ATOM     10  C   UNL     1       6.935   1.559  10.896  0.00  0.00    +0.000 C 
ATOM     11  O   UNL     1       5.679   1.715  11.537  0.00  0.00    +0.000 OA
ENDBRANCH   9  11
ENDBRANCH   8   9
ENDBRANCH   2   8
ENDBRANCH   1   4
BRANCH   1  12
ATOM     12  N   UNL     1       3.336   4.293  17.276  0.00  0.00    +0.000 N 
ATOM     13  H   UNL     1       2.901   4.609  16.409  0.00  0.00    +0.000 HD
BRANCH  12  14
ATOM     14  C   UNL     1       2.962   5.265  18.236  0.00  0.00    +0.000 A 
ATOM     15  N   UNL     1       3.104   6.578  17.925  0.00  0.00    +0.000 NA
ATOM     16  C   UNL     1       2.641   7.455  18.837  0.00  0.00    +0.000 A 
ATOM     17  C   UNL     1       2.078   7.051  20.031  0.00  0.00    +0.000 A 
ATOM     18  N   UNL     1       1.949   5.752  20.378  0.00  0.00    +0.000 NA
ATOM     19  C   UNL     1       2.398   4.831  19.488  0.00  0.00    +0.000 A 
BRANCH  19  20
ATOM     20  N   UNL     1       2.185   3.470  19.760  0.00  0.00    +0.000 N 
ATOM     21  C   UNL     1       0.811   3.029  19.949  0.00  0.00    +0.000 C 
ATOM     22  C   UNL     1       3.202   2.754  20.531  0.00  0.00    +0.000 C 
ENDBRANCH  19  20
ENDBRANCH  12  14
ENDBRANCH   1  12
TORSDOF 7
ENDMDL
MODEL 7
REMARK VINA RESULT:      -5.9      1.262      1.644
REMARK  Name = 
REMARK  10 active torsions:
REMARK  status: ('A' for Active; 'I' for Inactive)
REMARK    1  A    between atoms: C_1  and  O_2
REMARK    2  A    between atoms: O_2  and  C_3
REMARK    3  A    between atoms: C_3  and  C_4
REMARK    4  A    between atoms: C_4  and  N_5
REMARK    5  A    between atoms: C_7  and  C_8
REMARK    6  A    between atoms: C_8  and  N_9
REMARK    7  A    between atoms: N_9  and  C_10
REMARK    8  A    between atoms: C_15  and  N_16
REMARK    9  A    between atoms: N_16  and  C_17
REMARK   10  A    between atoms: N_16  and  C_18
REMARK                            x       y       z     vdW  Elec       q    Type
REMARK                         _______ _______ _______ _____ _____    ______ ____
ROOT
ATOM      1  C   UNL     1       3.492   7.247  17.415  0.00  0.00    +0.000 C 
ENDROOT
BRANCH   1   4
ATOM      2  N   UNL     1       1.962   4.267  18.909  0.00  0.00    +0.000 N 
ATOM      3  C   UNL     1       2.447   4.963  17.748  0.00  0.00    +0.000 C 
ATOM      4  C   UNL     1       3.331   6.044  18.339  0.00  0.00    +0.000 C 
ATOM      5  C   UNL     1       2.640   6.374  19.667  0.00  0.00    +0.000 C 
ATOM      6  C   UNL     1       1.962   5.077  20.034  0.00  0.00    +0.000 C 
ATOM      7  O   UNL     1       1.458   4.838  21.118  0.00  0.00    +0.000 OA
BRANCH   2   8
ATOM      8  C   UNL     1       1.249   2.996  18.844  0.00  0.00    +0.000 C 
BRANCH   8   9
ATOM      9  C   UNL     1       2.091   1.796  19.290  0.00  0.00    +0.000 C 
BRANCH   9  11
ATOM     10  C   UNL     1       4.312   2.155  20.005  0.00  0.00    +0.000 C 
ATOM     11  O   UNL     1       3.451   1.985  18.890  0.00  0.00    +0.000 OA
ENDBRANCH   9  11
ENDBRANCH   8   9
ENDBRANCH   2   8
ENDBRANCH   1   4
BRANCH   1  12
ATOM     12  N   UNL     1       4.909   7.484  17.196  0.00  0.00    +0.000 N 
ATOM     13  H   UNL     1       5.096   8.305  16.621  0.00  0.00    +0.000 HD
BRANCH  12  14
ATOM     14  C   UNL     1       5.607   6.434  16.550  0.00  0.00    +0.000 A 
ATOM     15  N   UNL     1       5.102   5.926  15.397  0.00  0.00    +0.000 NA
ATOM     16  C   UNL     1       5.858   4.999  14.779  0.00  0.00    +0.000 A 
ATOM     17  C   UNL     1       7.063   4.565  15.293  0.00  0.00    +0.000 A 
ATOM     18  N   UNL     1       7.577   5.033  16.451  0.00  0.00    +0.000 NA
ATOM     19  C   UNL     1       6.852   5.973  17.110  0.00  0.00    +0.000 A 
BRANCH  19  20
ATOM     20  N   UNL     1       7.399   6.564  18.259  0.00  0.00    +0.000 N 
ATOM     21  C   UNL     1       8.143   7.803  18.089  0.00  0.00    +0.000 C 
ATOM     22  C   UNL     1       7.852   5.684  19.338  0.00  0.00    +0.000 C 
ENDBRANCH  19  20
ENDBRANCH  12  14
ENDBRANCH   1  12
TORSDOF 7
ENDMDL
MODEL 8
REMARK VINA RESULT:      -5.9      2.992      6.639
REMARK  Name = 
REMARK  10 active torsions:
REMARK  status: ('A' for Active; 'I' for Inactive)
REMARK    1  A    between atoms: C_1  and  O_2
REMARK    2  A    between atoms: O_2  and  C_3
REMARK    3  A    between atoms: C_3  and  C_4
REMARK    4  A    between atoms: C_4  and  N_5
REMARK    5  A    between atoms: C_7  and  C_8
REMARK    6  A    between atoms: C_8  and  N_9
REMARK    7  A    between atoms: N_9  and  C_10
REMARK    8  A    between atoms: C_15  and  N_16
REMARK    9  A    between atoms: N_16  and  C_17
REMARK   10  A    between atoms: N_16  and  C_18
REMARK                            x       y       z     vdW  Elec       q    Type
REMARK                         _______ _______ _______ _____ _____    ______ ____
ROOT
ATOM      1  C   UNL     1       5.722   4.092  19.529  0.00  0.00    +0.000 C 
ENDROOT
BRANCH   1   4
ATOM      2  N   UNL     1       6.676   5.282  16.193  0.00  0.00    +0.000 N 
ATOM      3  C   UNL     1       6.129   4.251  17.033  0.00  0.00    +0.000 C 
ATOM      4  C   UNL     1       5.766   4.997  18.302  0.00  0.00    +0.000 C 
ATOM      5  C   UNL     1       6.836   6.093  18.382  0.00  0.00    +0.000 C 
ATOM      6  C   UNL     1       7.190   6.334  16.936  0.00  0.00    +0.000 C 
ATOM      7  O   UNL     1       7.864   7.266  16.531  0.00  0.00    +0.000 OA
BRANCH   2   8
ATOM      8  C   UNL     1       6.961   5.095  14.776  0.00  0.00    +0.000 C 
BRANCH   8   9
ATOM      9  C   UNL     1       6.189   3.933  14.142  0.00  0.00    +0.000 C 
BRANCH   9  11
ATOM     10  C   UNL     1       5.561   3.100  12.025  0.00  0.00    +0.000 C 
ATOM     11  O   UNL     1       6.542   3.813  12.762  0.00  0.00    +0.000 OA
ENDBRANCH   9  11
ENDBRANCH   8   9
ENDBRANCH   2   8
ENDBRANCH   1   4
BRANCH   1  12
ATOM     12  N   UNL     1       4.843   2.968  19.250  0.00  0.00    +0.000 N 
ATOM     13  H   UNL     1       4.587   2.890  18.266  0.00  0.00    +0.000 HD
BRANCH  12  14
ATOM     14  C   UNL     1       3.604   2.982  19.938  0.00  0.00    +0.000 A 
ATOM     15  N   UNL     1       3.537   2.428  21.174  0.00  0.00    +0.000 NA
ATOM     16  C   UNL     1       2.360   2.559  21.817  0.00  0.00    +0.000 A 
ATOM     17  C   UNL     1       1.274   3.194  21.249  0.00  0.00    +0.000 A 
ATOM     18  N   UNL     1       1.305   3.731  20.010  0.00  0.00    +0.000 NA
ATOM     19  C   UNL     1       2.471   3.627  19.324  0.00  0.00    +0.000 A 
BRANCH  19  20
ATOM     20  N   UNL     1       2.580   4.264  18.078  0.00  0.00    +0.000 N 
ATOM     21  C   UNL     1       2.034   5.607  17.960  0.00  0.00    +0.000 C 
ATOM     22  C   UNL     1       2.519   3.436  16.872  0.00  0.00    +0.000 C 
ENDBRANCH  19  20
ENDBRANCH  12  14
ENDBRANCH   1  12
TORSDOF 7
ENDMDL
MODEL 9
REMARK VINA RESULT:      -5.8      4.182      5.392
REMARK  Name = 
REMARK  10 active torsions:
REMARK  status: ('A' for Active; 'I' for Inactive)
REMARK    1  A    between atoms: C_1  and  O_2
REMARK    2  A    between atoms: O_2  and  C_3
REMARK    3  A    between atoms: C_3  and  C_4
REMARK    4  A    between atoms: C_4  and  N_5
REMARK    5  A    between atoms: C_7  and  C_8
REMARK    6  A    between atoms: C_8  and  N_9
REMARK    7  A    between atoms: N_9  and  C_10
REMARK    8  A    between atoms: C_15  and  N_16
REMARK    9  A    between atoms: N_16  and  C_17
REMARK   10  A    between atoms: N_16  and  C_18
REMARK                            x       y       z     vdW  Elec       q    Type
REMARK                         _______ _______ _______ _____ _____    ______ ____
ROOT
ATOM      1  C   UNL     1       2.409   6.704  18.102  0.00  0.00    +0.000 C 
ENDROOT
BRANCH   1   4
ATOM      2  N   UNL     1       1.075   9.505  20.059  0.00  0.00    +0.000 N 
ATOM      3  C   UNL     1       1.555   8.151  19.999  0.00  0.00    +0.000 C 
ATOM      4  C   UNL     1       2.308   8.111  18.683  0.00  0.00    +0.000 C 
ATOM      5  C   UNL     1       1.522   9.088  17.800  0.00  0.00    +0.000 C 
ATOM      6  C   UNL     1       0.944  10.063  18.796  0.00  0.00    +0.000 C 
ATOM      7  O   UNL     1       0.408  11.118  18.506  0.00  0.00    +0.000 OA
BRANCH   2   8
ATOM      8  C   UNL     1       0.482  10.094  21.254  0.00  0.00    +0.000 C 
BRANCH   8   9
ATOM      9  C   UNL     1       0.881   9.383  22.551  0.00  0.00    +0.000 C 
BRANCH   9  11
ATOM     10  C   UNL     1      -1.070  10.538  23.207  0.00  0.00    +0.000 C 
ATOM     11  O   UNL     1       0.126   9.911  23.644  0.00  0.00    +0.000 OA
ENDBRANCH   9  11
ENDBRANCH   8   9
ENDBRANCH   2   8
ENDBRANCH   1   4
BRANCH   1  12
ATOM     12  N   UNL     1       3.705   6.145  18.451  0.00  0.00    +0.000 N 
ATOM     13  H   UNL     1       4.367   6.843  18.789  0.00  0.00    +0.000 HD
BRANCH  12  14
ATOM     14  C   UNL     1       4.387   5.493  17.394  0.00  0.00    +0.000 A 
ATOM     15  N   UNL     1       5.109   6.241  16.523  0.00  0.00    +0.000 NA
ATOM     16  C   UNL     1       5.813   5.557  15.600  0.00  0.00    +0.000 A 
ATOM     17  C   UNL     1       5.787   4.180  15.521  0.00  0.00    +0.000 A 
ATOM     18  N   UNL     1       5.057   3.412  16.358  0.00  0.00    +0.000 NA
ATOM     19  C   UNL     1       4.332   4.056  17.308  0.00  0.00    +0.000 A 
BRANCH  19  20
ATOM     20  N   UNL     1       3.645   3.293  18.266  0.00  0.00    +0.000 N 
ATOM     21  C   UNL     1       4.418   2.750  19.373  0.00  0.00    +0.000 C 
ATOM     22  C   UNL     1       2.509   2.487  17.818  0.00  0.00    +0.000 C 
ENDBRANCH  19  20
ENDBRANCH  12  14
ENDBRANCH   1  12
TORSDOF 7
ENDMDL
