MODEL 1
REMARK VINA RESULT:      -7.7      0.000      0.000
REMARK  Name = 
REMARK  7 active torsions:
REMARK  status: ('A' for Active; 'I' for Inactive)
REMARK    1  A    between atoms: C_1  and  C_2
REMARK    2  A    between atoms: C_6  and  C_7
REMARK    3  A    between atoms: C_7  and  C_8
REMARK    4  A    between atoms: N_10  and  C_11
REMARK    5  A    between atoms: C_11  and  C_12
REMARK    6  A    between atoms: C_12  and  C_13
REMARK    7  A    between atoms: C_19  and  C_20
REMARK                            x       y       z     vdW  Elec       q    Type
REMARK                         _______ _______ _______ _____ _____    ______ ____
ROOT
ATOM      1  C   UNL     1       5.506   4.568  16.729  0.00  0.00    +0.000 C 
ATOM      2  O   UNL     1       5.944   4.454  17.874  0.00  0.00    +0.000 OA
ATOM      3  N   UNL     1       4.574   5.538  16.389  0.00  0.00    +0.000 N 
ATOM      4  H   UNL     1       4.120   5.506  15.484  0.00  0.00    +0.000 HD
ENDROOT
BRANCH   1   5
ATOM      5  C   UNL     1       6.034   3.698  15.613  0.00  0.00    +0.000 C 
BRANCH   5  11
ATOM      6  C   UNL     1       6.113   3.465  12.253  0.00  0.00    +0.000 C 
ATOM      7  C   UNL     1       6.848   4.343  13.189  0.00  0.00    +0.000 A 
ATOM      8  N   UNL     1       7.747   5.211  12.715  0.00  0.00    +0.000 NA
ATOM      9  O   UNL     1       8.258   5.859  13.829  0.00  0.00    +0.000 OA
ATOM     10  N   UNL     1       7.660   5.398  14.994  0.00  0.00    +0.000 NA
ATOM     11  C   UNL     1       6.800   4.454  14.598  0.00  0.00    +0.000 A 
ENDBRANCH   5  11
ENDBRANCH   1   5
BRANCH   3  12
ATOM     12  C   UNL     1       4.087   6.395  17.452  0.00  0.00    +0.000 C 
BRANCH  12  13
ATOM     13  C   UNL     1       2.640   6.187  17.917  0.00  0.00    +0.000 C 
BRANCH  13  14
ATOM     14  C   UNL     1       2.314   4.759  18.378  0.00  0.00    +0.000 A 
ATOM     15  C   UNL     1       2.255   3.696  17.452  0.00  0.00    +0.000 A 
ATOM     16  C   UNL     1       1.966   2.392  17.849  0.00  0.00    +0.000 A 
ATOM     17  C   UNL     1       1.726   2.118  19.187  0.00  0.00    +0.000 A 
ATOM     18  C   UNL     1       1.772   3.146  20.132  0.00  0.00    +0.000 A 
ATOM     19 BR   UNL     1       1.431   2.630  21.934  0.00  0.00    +0.000 Br
ATOM     20  C   UNL     1       2.064   4.477  19.751  0.00  0.00    +0.000 A 
ATOM     21  C   UNL     1       2.119   5.604  20.752  0.00  0.00    +0.000 C 
ENDBRANCH  13  14
ENDBRANCH  12  13
ENDBRANCH   3  12
TORSDOF 5
ENDMDL
MODEL 2
REMARK VINA RESULT:      -7.4      1.327      1.554
REMARK  Name = 
REMARK  7 active torsions:
REMARK  status: ('A' for Active; 'I' for Inactive)
REMARK    1  A    between atoms: C_1  and  C_2
REMARK    2  A    between atoms: C_6  and  C_7
REMARK    3  A    between atoms: C_7  and  C_8
REMARK    4  A    between atoms: N_10  and  C_11
REMARK    5  A    between atoms: C_11  and  C_12
REMARK    6  A    between atoms: C_12  and  C_13
REMARK    7  A    between atoms: C_19  and  C_20
REMARK                            x       y       z     vdW  Elec       q    Type
REMARK                         _______ _______ _______ _____ _____    ______ ____
ROOT
ATOM      1  C   UNL     1       5.495   5.564  18.509  0.00  0.00    +0.000 C 
ATOM      2  O   UNL     1       5.219   5.506  19.707  0.00  0.00    +0.000 OA
ATOM      3  N   UNL     1       4.725   6.285  17.609  0.00  0.00    +0.000 N 
ATOM      4  H   UNL     1       4.887   6.186  16.613  0.00  0.00    +0.000 HD
ENDROOT
BRANCH   1   5
ATOM      5  C   UNL     1       6.749   4.911  17.976  0.00  0.00    +0.000 C 
BRANCH   5  11
ATOM      6  C   UNL     1       5.391   2.954  15.593  0.00  0.00    +0.000 C 
ATOM      7  C   UNL     1       6.292   4.123  15.501  0.00  0.00    +0.000 A 
ATOM      8  N   UNL     1       6.722   4.535  14.304  0.00  0.00    +0.000 NA
ATOM      9  O   UNL     1       7.544   5.621  14.560  0.00  0.00    +0.000 OA
ATOM     10  N   UNL     1       7.608   5.890  15.921  0.00  0.00    +0.000 NA
ATOM     11  C   UNL     1       6.846   4.956  16.500  0.00  0.00    +0.000 A 
ENDBRANCH   5  11
ENDBRANCH   1   5
BRANCH   3  12
ATOM     12  C   UNL     1       3.537   6.938  18.123  0.00  0.00    +0.000 C 
BRANCH  12  13
ATOM     13  C   UNL     1       2.190   6.248  17.870  0.00  0.00    +0.000 C 
BRANCH  13  14
ATOM     14  C   UNL     1       2.126   4.782  18.322  0.00  0.00    +0.000 A 
ATOM     15  C   UNL     1       2.297   3.733  17.395  0.00  0.00    +0.000 A 
ATOM     16  C   UNL     1       2.248   2.395  17.783  0.00  0.00    +0.000 A 
ATOM     17  C   UNL     1       2.025   2.073  19.113  0.00  0.00    +0.000 A 
ATOM     18  C   UNL     1       1.847   3.086  20.059  0.00  0.00    +0.000 A 
ATOM     19 BR   UNL     1       1.556   2.504  21.849  0.00  0.00    +0.000 Br
ATOM     20  C   UNL     1       1.893   4.450  19.686  0.00  0.00    +0.000 A 
ATOM     21  C   UNL     1       1.704   5.562  20.688  0.00  0.00    +0.000 C 
ENDBRANCH  13  14
ENDBRANCH  12  13
ENDBRANCH   3  12
TORSDOF 5
ENDMDL
MODEL 3
REMARK VINA RESULT:      -7.3      2.507      3.789
REMARK  Name = 
REMARK  7 active torsions:
REMARK  status: ('A' for Active; 'I' for Inactive)
REMARK    1  A    between atoms: C_1  and  C_2
REMARK    2  A    between atoms: C_6  and  C_7
REMARK    3  A    between atoms: C_7  and  C_8
REMARK    4  A    between atoms: N_10  and  C_11
REMARK    5  A    between atoms: C_11  and  C_12
REMARK    6  A    between atoms: C_12  and  C_13
REMARK    7  A    between atoms: C_19  and  C_20
REMARK                            x       y       z     vdW  Elec       q    Type
REMARK                         _______ _______ _______ _____ _____    ______ ____
ROOT
ATOM      1  C   UNL     1       5.971   4.124  15.955  0.00  0.00    +0.000 C 
ATOM      2  O   UNL     1       5.671   3.587  14.889  0.00  0.00    +0.000 OA
ATOM      3  N   UNL     1       5.304   3.841  17.137  0.00  0.00    +0.000 N 
ATOM      4  H   UNL     1       5.470   4.410  17.959  0.00  0.00    +0.000 HD
ENDROOT
BRANCH   1   5
ATOM      5  C   UNL     1       7.149   5.067  16.036  0.00  0.00    +0.000 C 
BRANCH   5  11
ATOM      6  C   UNL     1       7.501   8.035  17.591  0.00  0.00    +0.000 C 
ATOM      7  C   UNL     1       7.697   6.650  18.073  0.00  0.00    +0.000 A 
ATOM      8  N   UNL     1       8.115   6.437  19.324  0.00  0.00    +0.000 NA
ATOM      9  O   UNL     1       8.209   5.060  19.453  0.00  0.00    +0.000 OA
ATOM     10  N   UNL     1       7.834   4.421  18.279  0.00  0.00    +0.000 NA
ATOM     11  C   UNL     1       7.530   5.404  17.425  0.00  0.00    +0.000 A 
ENDBRANCH   5  11
ENDBRANCH   1   5
BRANCH   3  12
ATOM     12  C   UNL     1       4.192   2.914  17.069  0.00  0.00    +0.000 C 
BRANCH  12  13
ATOM     13  C   UNL     1       2.778   3.510  17.056  0.00  0.00    +0.000 C 
BRANCH  13  14
ATOM     14  C   UNL     1       2.268   3.977  18.427  0.00  0.00    +0.000 A 
ATOM     15  C   UNL     1       1.763   3.051  19.363  0.00  0.00    +0.000 A 
ATOM     16  C   UNL     1       1.298   3.452  20.615  0.00  0.00    +0.000 A 
ATOM     17  C   UNL     1       1.327   4.794  20.961  0.00  0.00    +0.000 A 
ATOM     18  C   UNL     1       1.817   5.741  20.057  0.00  0.00    +0.000 A 
ATOM     19 BR   UNL     1       1.806   7.546  20.663  0.00  0.00    +0.000 Br
ATOM     20  C   UNL     1       2.293   5.356  18.782  0.00  0.00    +0.000 A 
ATOM     21  C   UNL     1       2.826   6.358  17.789  0.00  0.00    +0.000 C 
ENDBRANCH  13  14
ENDBRANCH  12  13
ENDBRANCH   3  12
TORSDOF 5
ENDMDL
MODEL 4
REMARK VINA RESULT:      -7.0      2.114      2.721
REMARK  Name = 
REMARK  7 active torsions:
REMARK  status: ('A' for Active; 'I' for Inactive)
REMARK    1  A    between atoms: C_1  and  C_2
REMARK    2  A    between atoms: C_6  and  C_7
REMARK    3  A    between atoms: C_7  and  C_8
REMARK    4  A    between atoms: N_10  and  C_11
REMARK    5  A    between atoms: C_11  and  C_12
REMARK    6  A    between atoms: C_12  and  C_13
REMARK    7  A    between atoms: C_19  and  C_20
REMARK                            x       y       z     vdW  Elec       q    Type
REMARK                         _______ _______ _______ _____ _____    ______ ____
ROOT
ATOM      1  C   UNL     1       5.756   4.713  16.432  0.00  0.00    +0.000 C 
ATOM      2  O   UNL     1       6.177   4.487  17.567  0.00  0.00    +0.000 OA
ATOM      3  N   UNL     1       5.134   5.908  16.101  0.00  0.00    +0.000 N 
ATOM      4  H   UNL     1       4.663   6.001  15.208  0.00  0.00    +0.000 HD
ENDROOT
BRANCH   1   5
ATOM      5  C   UNL     1       5.976   3.718  15.317  0.00  0.00    +0.000 C 
BRANCH   5  11
ATOM      6  C   UNL     1       5.796   2.959  12.040  0.00  0.00    +0.000 C 
ATOM      7  C   UNL     1       6.592   3.972  12.766  0.00  0.00    +0.000 A 
ATOM      8  N   UNL     1       7.440   4.755  12.092  0.00  0.00    +0.000 NA
ATOM      9  O   UNL     1       8.029   5.569  13.046  0.00  0.00    +0.000 OA
ATOM     10  N   UNL     1       7.530   5.298  14.313  0.00  0.00    +0.000 NA
ATOM     11  C   UNL     1       6.653   4.304  14.139  0.00  0.00    +0.000 A 
ENDBRANCH   5  11
ENDBRANCH   1   5
BRANCH   3  12
ATOM     12  C   UNL     1       4.947   6.878  17.162  0.00  0.00    +0.000 C 
BRANCH  12  13
ATOM     13  C   UNL     1       3.546   7.481  17.325  0.00  0.00    +0.000 C 
BRANCH  13  14
ATOM     14  C   UNL     1       2.823   7.081  18.619  0.00  0.00    +0.000 A 
ATOM     15  C   UNL     1       2.995   5.795  19.174  0.00  0.00    +0.000 A 
ATOM     16  C   UNL     1       2.352   5.412  20.350  0.00  0.00    +0.000 A 
ATOM     17  C   UNL     1       1.518   6.308  21.002  0.00  0.00    +0.000 A 
ATOM     18  C   UNL     1       1.322   7.589  20.479  0.00  0.00    +0.000 A 
ATOM     19 BR   UNL     1       0.158   8.720  21.477  0.00  0.00    +0.000 Br
ATOM     20  C   UNL     1       1.963   7.998  19.287  0.00  0.00    +0.000 A 
ATOM     21  C   UNL     1       1.767   9.375  18.702  0.00  0.00    +0.000 C 
ENDBRANCH  13  14
ENDBRANCH  12  13
ENDBRANCH   3  12
TORSDOF 5
ENDMDL
MODEL 5
REMARK VINA RESULT:      -7.0      4.100      5.465
REMARK  Name = 
REMARK  7 active torsions:
REMARK  status: ('A' for Active; 'I' for Inactive)
REMARK    1  A    between atoms: C_1  and  C_2
REMARK    2  A    between atoms: C_6  and  C_7
REMARK    3  A    between atoms: C_7  and  C_8
REMARK    4  A    between atoms: N_10  and  C_11
REMARK    5  A    between atoms: C_11  and  C_12
REMARK    6  A    between atoms: C_12  and  C_13
REMARK    7  A    between atoms: C_19  and  C_20
REMARK                            x       y       z     vdW  Elec       q    Type
REMARK                         _______ _______ _______ _____ _____    ______ ____
ROOT
ATOM      1  C   UNL     1       3.840   6.113  17.784  0.00  0.00    +0.000 C 
ATOM      2  O   UNL     1       4.291   7.012  17.074  0.00  0.00    +0.000 OA
ATOM      3  N   UNL     1       2.817   6.334  18.695  0.00  0.00    +0.000 N 
ATOM      4  H   UNL     1       2.577   5.617  19.369  0.00  0.00    +0.000 HD
ENDROOT
BRANCH   1   5
ATOM      5  C   UNL     1       4.332   4.692  17.632  0.00  0.00    +0.000 C 
BRANCH   5  11
ATOM      6  C   UNL     1       6.438   4.462  15.013  0.00  0.00    +0.000 C 
ATOM      7  C   UNL     1       6.689   4.474  16.470  0.00  0.00    +0.000 A 
ATOM      8  N   UNL     1       7.939   4.348  16.929  0.00  0.00    +0.000 NA
ATOM      9  O   UNL     1       7.831   4.384  18.310  0.00  0.00    +0.000 OA
ATOM     10  N   UNL     1       6.511   4.548  18.705  0.00  0.00    +0.000 NA
ATOM     11  C   UNL     1       5.807   4.591  17.569  0.00  0.00    +0.000 A 
ENDBRANCH   5  11
ENDBRANCH   1   5
BRANCH   3  12
ATOM     12  C   UNL     1       2.321   7.691  18.822  0.00  0.00    +0.000 C 
BRANCH  12  13
ATOM     13  C   UNL     1       1.772   8.114  20.190  0.00  0.00    +0.000 C 
BRANCH  13  14
ATOM     14  C   UNL     1       0.821   9.319  20.154  0.00  0.00    +0.000 A 
ATOM     15  C   UNL     1       0.461   9.918  18.928  0.00  0.00    +0.000 A 
ATOM     16  C   UNL     1      -0.403  11.010  18.872  0.00  0.00    +0.000 A 
ATOM     17  C   UNL     1      -0.930  11.532  20.044  0.00  0.00    +0.000 A 
ATOM     18  C   UNL     1      -0.592  10.966  21.276  0.00  0.00    +0.000 A 
ATOM     19 BR   UNL     1      -1.391  11.776  22.804  0.00  0.00    +0.000 Br
ATOM     20  C   UNL     1       0.283   9.858  21.357  0.00  0.00    +0.000 A 
ATOM     21  C   UNL     1       0.663   9.231  22.675  0.00  0.00    +0.000 C 
ENDBRANCH  13  14
ENDBRANCH  12  13
ENDBRANCH   3  12
TORSDOF 5
ENDMDL
MODEL 6
REMARK VINA RESULT:      -7.0      7.071      9.108
REMARK  Name = 
REMARK  7 active torsions:
REMARK  status: ('A' for Active; 'I' for Inactive)
REMARK    1  A    between atoms: C_1  and  C_2
REMARK    2  A    between atoms: C_6  and  C_7
REMARK    3  A    between atoms: C_7  and  C_8
REMARK    4  A    between atoms: N_10  and  C_11
REMARK    5  A    between atoms: C_11  and  C_12
REMARK    6  A    between atoms: C_12  and  C_13
REMARK    7  A    between atoms: C_19  and  C_20
REMARK                            x       y       z     vdW  Elec       q    Type
REMARK                         _______ _______ _______ _____ _____    ______ ____
ROOT
ATOM      1  C   UNL     1       7.678   7.184  17.895  0.00  0.00    +0.000 C 
ATOM      2  O   UNL     1       7.038   7.737  17.000  0.00  0.00    +0.000 OA
ATOM      3  N   UNL     1       8.493   7.892  18.765  0.00  0.00    +0.000 N 
ATOM      4  H   UNL     1       9.123   7.395  19.385  0.00  0.00    +0.000 HD
ENDROOT
BRANCH   1   5
ATOM      5  C   UNL     1       7.536   5.699  18.137  0.00  0.00    +0.000 C 
BRANCH   5  11
ATOM      6  C   UNL     1       5.168   4.610  16.002  0.00  0.00    +0.000 C 
ATOM      7  C   UNL     1       5.136   4.839  17.463  0.00  0.00    +0.000 A 
ATOM      8  N   UNL     1       4.003   4.632  18.141  0.00  0.00    +0.000 NA
ATOM      9  O   UNL     1       4.298   4.944  19.459  0.00  0.00    +0.000 OA
ATOM     10  N   UNL     1       5.624   5.331  19.596  0.00  0.00    +0.000 NA
ATOM     11  C   UNL     1       6.136   5.278  18.362  0.00  0.00    +0.000 A 
ENDBRANCH   5  11
ENDBRANCH   1   5
BRANCH   3  12
ATOM     12  C   UNL     1       8.609   9.322  18.554  0.00  0.00    +0.000 C 
BRANCH  12  13
ATOM     13  C   UNL     1       9.383  10.128  19.604  0.00  0.00    +0.000 C 
BRANCH  13  14
ATOM     14  C   UNL     1       9.997  11.436  19.084  0.00  0.00    +0.000 A 
ATOM     15  C   UNL     1      10.438  11.546  17.748  0.00  0.00    +0.000 A 
ATOM     16  C   UNL     1      10.994  12.724  17.254  0.00  0.00    +0.000 A 
ATOM     17  C   UNL     1      11.124  13.825  18.087  0.00  0.00    +0.000 A 
ATOM     18  C   UNL     1      10.702  13.752  19.417  0.00  0.00    +0.000 A 
ATOM     19 BR   UNL     1      10.933  15.338  20.446  0.00  0.00    +0.000 Br
ATOM     20  C   UNL     1      10.135  12.566  19.939  0.00  0.00    +0.000 A 
ATOM     21  C   UNL     1       9.672  12.461  21.371  0.00  0.00    +0.000 C 
ENDBRANCH  13  14
ENDBRANCH  12  13
ENDBRANCH   3  12
TORSDOF 5
ENDMDL
MODEL 7
REMARK VINA RESULT:      -7.0      7.285      9.240
REMARK  Name = 
REMARK  7 active torsions:
REMARK  status: ('A' for Active; 'I' for Inactive)
REMARK    1  A    between atoms: C_1  and  C_2
REMARK    2  A    between atoms: C_6  and  C_7
REMARK    3  A    between atoms: C_7  and  C_8
REMARK    4  A    between atoms: N_10  and  C_11
REMARK    5  A    between atoms: C_11  and  C_12
REMARK    6  A    between atoms: C_12  and  C_13
REMARK    7  A    between atoms: C_19  and  C_20
REMARK                            x       y       z     vdW  Elec       q    Type
REMARK                         _______ _______ _______ _____ _____    ______ ____
ROOT
ATOM      1  C   UNL     1       7.932   7.638  18.053  0.00  0.00    +0.000 C 
ATOM      2  O   UNL     1       7.385   8.048  17.029  0.00  0.00    +0.000 OA
ATOM      3  N   UNL     1       8.658   8.475  18.887  0.00  0.00    +0.000 N 
ATOM      4  H   UNL     1       9.223   8.081  19.631  0.00  0.00    +0.000 HD
ENDROOT
BRANCH   1   5
ATOM      5  C   UNL     1       7.764   6.202  18.493  0.00  0.00    +0.000 C 
BRANCH   5  11
ATOM      6  C   UNL     1       4.463   5.797  17.955  0.00  0.00    +0.000 C 
ATOM      7  C   UNL     1       5.642   5.189  17.300  0.00  0.00    +0.000 A 
ATOM      8  N   UNL     1       5.468   4.287  16.330  0.00  0.00    +0.000 NA
ATOM      9  O   UNL     1       6.745   3.910  15.942  0.00  0.00    +0.000 OA
ATOM     10  N   UNL     1       7.710   4.596  16.667  0.00  0.00    +0.000 NA
ATOM     11  C   UNL     1       7.028   5.375  17.513  0.00  0.00    +0.000 A 
ENDBRANCH   5  11
ENDBRANCH   1   5
BRANCH   3  12
ATOM     12  C   UNL     1       8.797   9.860  18.483  0.00  0.00    +0.000 C 
BRANCH  12  13
ATOM     13  C   UNL     1       9.764  10.736  19.291  0.00  0.00    +0.000 C 
BRANCH  13  14
ATOM     14  C   UNL     1      10.215  12.018  18.578  0.00  0.00    +0.000 A 
ATOM     15  C   UNL     1      11.118  11.963  17.495  0.00  0.00    +0.000 A 
ATOM     16  C   UNL     1      11.538  13.114  16.831  0.00  0.00    +0.000 A 
ATOM     17  C   UNL     1      11.064  14.353  17.235  0.00  0.00    +0.000 A 
ATOM     18  C   UNL     1      10.171  14.446  18.305  0.00  0.00    +0.000 A 
ATOM     19 BR   UNL     1       9.595  16.206  18.750  0.00  0.00    +0.000 Br
ATOM     20  C   UNL     1       9.732  13.291  18.994  0.00  0.00    +0.000 A 
ATOM     21  C   UNL     1       8.770  13.366  20.153  0.00  0.00    +0.000 C 
ENDBRANCH  13  14
ENDBRANCH  12  13
ENDBRANCH   3  12
TORSDOF 5
ENDMDL
MODEL 8
REMARK VINA RESULT:      -7.0      2.309      3.410
REMARK  Name = 
REMARK  7 active torsions:
REMARK  status: ('A' for Active; 'I' for Inactive)
REMARK    1  A    between atoms: C_1  and  C_2
REMARK    2  A    between atoms: C_6  and  C_7
REMARK    3  A    between atoms: C_7  and  C_8
REMARK    4  A    between atoms: N_10  and  C_11
REMARK    5  A    between atoms: C_11  and  C_12
REMARK    6  A    between atoms: C_12  and  C_13
REMARK    7  A    between atoms: C_19  and  C_20
REMARK                            x       y       z     vdW  Elec       q    Type
REMARK                         _______ _______ _______ _____ _____    ______ ____
ROOT
ATOM      1  C   UNL     1       5.020   4.705  16.137  0.00  0.00    +0.000 C 
ATOM      2  O   UNL     1       4.886   5.870  15.764  0.00  0.00    +0.000 OA
ATOM      3  N   UNL     1       4.127   4.102  17.010  0.00  0.00    +0.000 N 
ATOM      4  H   UNL     1       4.349   3.200  17.417  0.00  0.00    +0.000 HD
ENDROOT
BRANCH   1   5
ATOM      5  C   UNL     1       6.133   3.844  15.585  0.00  0.00    +0.000 C 
BRANCH   5  11
ATOM      6  C   UNL     1       5.950   3.309  12.264  0.00  0.00    +0.000 C 
ATOM      7  C   UNL     1       6.786   4.234  13.060  0.00  0.00    +0.000 A 
ATOM      8  N   UNL     1       7.677   5.017  12.445  0.00  0.00    +0.000 NA
ATOM      9  O   UNL     1       8.294   5.739  13.455  0.00  0.00    +0.000 OA
ATOM     10  N   UNL     1       7.770   5.409  14.697  0.00  0.00    +0.000 NA
ATOM     11  C   UNL     1       6.848   4.472  14.453  0.00  0.00    +0.000 A 
ENDBRANCH   5  11
ENDBRANCH   1   5
BRANCH   3  12
ATOM     12  C   UNL     1       3.041   4.916  17.519  0.00  0.00    +0.000 C 
BRANCH  12  13
ATOM     13  C   UNL     1       3.303   5.718  18.800  0.00  0.00    +0.000 C 
BRANCH  13  14
ATOM     14  C   UNL     1       2.606   7.085  18.854  0.00  0.00    +0.000 A 
ATOM     15  C   UNL     1       2.730   8.001  17.788  0.00  0.00    +0.000 A 
ATOM     16  C   UNL     1       2.103   9.245  17.814  0.00  0.00    +0.000 A 
ATOM     17  C   UNL     1       1.335   9.606  18.912  0.00  0.00    +0.000 A 
ATOM     18  C   UNL     1       1.194   8.725  19.988  0.00  0.00    +0.000 A 
ATOM     19 BR   UNL     1       0.108   9.344  21.425  0.00  0.00    +0.000 Br
ATOM     20  C   UNL     1       1.822   7.458  19.982  0.00  0.00    +0.000 A 
ATOM     21  C   UNL     1       1.685   6.490  21.131  0.00  0.00    +0.000 C 
ENDBRANCH  13  14
ENDBRANCH  12  13
ENDBRANCH   3  12
TORSDOF 5
ENDMDL
MODEL 9
REMARK VINA RESULT:      -7.0      7.097      9.069
REMARK  Name = 
REMARK  7 active torsions:
REMARK  status: ('A' for Active; 'I' for Inactive)
REMARK    1  A    between atoms: C_1  and  C_2
REMARK    2  A    between atoms: C_6  and  C_7
REMARK    3  A    between atoms: C_7  and  C_8
REMARK    4  A    between atoms: N_10  and  C_11
REMARK    5  A    between atoms: C_11  and  C_12
REMARK    6  A    between atoms: C_12  and  C_13
REMARK    7  A    between atoms: C_19  and  C_20
REMARK                            x       y       z     vdW  Elec       q    Type
REMARK                         _______ _______ _______ _____ _____    ______ ____
ROOT
ATOM      1  C   UNL     1       7.771   7.170  17.945  0.00  0.00    +0.000 C 
ATOM      2  O   UNL     1       7.142   7.667  17.011  0.00  0.00    +0.000 OA
ATOM      3  N   UNL     1       8.566   7.933  18.787  0.00  0.00    +0.000 N 
ATOM      4  H   UNL     1       9.190   7.477  19.444  0.00  0.00    +0.000 HD
ENDROOT
BRANCH   1   5
ATOM      5  C   UNL     1       7.637   5.700  18.268  0.00  0.00    +0.000 C 
BRANCH   5  11
ATOM      6  C   UNL     1       4.336   5.526  18.917  0.00  0.00    +0.000 C 
ATOM      7  C   UNL     1       5.148   4.952  17.822  0.00  0.00    +0.000 A 
ATOM      8  N   UNL     1       4.563   4.192  16.892  0.00  0.00    +0.000 NA
ATOM      9  O   UNL     1       5.582   3.808  16.034  0.00  0.00    +0.000 OA
ATOM     10  N   UNL     1       6.798   4.347  16.429  0.00  0.00    +0.000 NA
ATOM     11  C   UNL     1       6.531   5.042  17.539  0.00  0.00    +0.000 A 
ENDBRANCH   5  11
ENDBRANCH   1   5
BRANCH   3  12
ATOM     12  C   UNL     1       8.674   9.350  18.498  0.00  0.00    +0.000 C 
BRANCH  12  13
ATOM     13  C   UNL     1       9.298  10.243  19.578  0.00  0.00    +0.000 C 
BRANCH  13  14
ATOM     14  C   UNL     1       9.997  11.502  19.043  0.00  0.00    +0.000 A 
ATOM     15  C   UNL     1      10.410  11.581  17.696  0.00  0.00    +0.000 A 
ATOM     16  C   UNL     1      11.041  12.716  17.188  0.00  0.00    +0.000 A 
ATOM     17  C   UNL     1      11.277  13.801  18.019  0.00  0.00    +0.000 A 
ATOM     18  C   UNL     1      10.885  13.756  19.359  0.00  0.00    +0.000 A 
ATOM     19 BR   UNL     1      11.263  15.316  20.384  0.00  0.00    +0.000 Br
ATOM     20  C   UNL     1      10.243  12.615  19.895  0.00  0.00    +0.000 A 
ATOM     21  C   UNL     1       9.811  12.542  21.339  0.00  0.00    +0.000 C 
ENDBRANCH  13  14
ENDBRANCH  12  13
ENDBRANCH   3  12
TORSDOF 5
ENDMDL
