MODEL 1
REMARK VINA RESULT:      -8.1      0.000      0.000
REMARK  Name = 
REMARK  5 active torsions:
REMARK  status: ('A' for Active; 'I' for Inactive)
REMARK    1  A    between atoms: C_5  and  C_6
REMARK    2  A    between atoms: N_8  and  C_9
REMARK    3  A    between atoms: C_9  and  C_10
REMARK    4  A    between atoms: C_9  and  C_18
REMARK    5  A    between atoms: C_10  and  C_11
REMARK                            x       y       z     vdW  Elec       q    Type
REMARK                         _______ _______ _______ _____ _____    ______ ____
ROOT
ATOM      1  C   UNL     1       2.556   6.655  18.241  0.00  0.00    +0.000 C 
ENDROOT
BRANCH   1   2
ATOM      2  C   UNL     1       2.038   5.322  18.792  0.00  0.00    +0.000 A 
ATOM      3  C   UNL     1       1.859   5.160  20.182  0.00  0.00    +0.000 A 
ATOM      4  C   UNL     1       1.345   3.981  20.725  0.00  0.00    +0.000 A 
ATOM      5  C   UNL     1       0.973   2.936  19.889  0.00  0.00    +0.000 A 
ATOM      6  C   UNL     1       1.105   3.080  18.512  0.00  0.00    +0.000 A 
ATOM      7  C   UNL     1       1.621   4.265  17.969  0.00  0.00    +0.000 A 
ENDBRANCH   1   2
BRANCH   1  10
ATOM      8  C   UNL     1       1.710   9.017  18.532  0.00  0.00    +0.000 C 
ATOM      9  O   UNL     1       1.870   9.342  17.359  0.00  0.00    +0.000 OA
ATOM     10  N   UNL     1       2.018   7.771  19.027  0.00  0.00    +0.000 N 
ATOM     11  H   UNL     1       1.862   7.587  20.011  0.00  0.00    +0.000 HD
BRANCH   8  16
ATOM     12  O   UNL     1      -2.130  10.763  18.726  0.00  0.00    +0.000 OA
ATOM     13  C   UNL     1      -0.944  10.782  18.982  0.00  0.00    +0.000 C 
ATOM     14  C   UNL     1       0.058  11.815  18.520  0.00  0.00    +0.000 C 
ATOM     15  C   UNL     1       1.314  11.454  19.311  0.00  0.00    +0.000 C 
ATOM     16  C   UNL     1       1.152   9.972  19.615  0.00  0.00    +0.000 C 
ATOM     17  N   UNL     1      -0.279   9.821  19.712  0.00  0.00    +0.000 N 
ATOM     18  H   UNL     1      -0.769   8.971  19.964  0.00  0.00    +0.000 HD
ENDBRANCH   8  16
ENDBRANCH   1  10
BRANCH   1  19
ATOM     19  C   UNL     1       4.107   6.806  18.045  0.00  0.00    +0.000 C 
BRANCH  19  20
ATOM     20  C   UNL     1       4.815   5.850  17.092  0.00  0.00    +0.000 A 
ATOM     21  C   UNL     1       5.147   6.313  15.802  0.00  0.00    +0.000 A 
ATOM     22  C   UNL     1       5.668   5.455  14.830  0.00  0.00    +0.000 A 
ATOM     23  C   UNL     1       5.870   4.113  15.124  0.00  0.00    +0.000 A 
ATOM     24  C   UNL     1       5.648   3.658  16.418  0.00  0.00    +0.000 A 
ATOM     25  C   UNL     1       5.180   4.531  17.406  0.00  0.00    +0.000 A 
ATOM     26 CL   UNL     1       5.204   3.917  19.017  0.00  0.00    +0.000 Cl
ENDBRANCH  19  20
ENDBRANCH   1  19
TORSDOF 5
ENDMDL
MODEL 2
REMARK VINA RESULT:      -8.1      3.145      6.471
REMARK  Name = 
REMARK  5 active torsions:
REMARK  status: ('A' for Active; 'I' for Inactive)
REMARK    1  A    between atoms: C_5  and  C_6
REMARK    2  A    between atoms: N_8  and  C_9
REMARK    3  A    between atoms: C_9  and  C_10
REMARK    4  A    between atoms: C_9  and  C_18
REMARK    5  A    between atoms: C_10  and  C_11
REMARK                            x       y       z     vdW  Elec       q    Type
REMARK                         _______ _______ _______ _____ _____    ______ ____
ROOT
ATOM      1  C   UNL     1       3.253   5.915  19.498  0.00  0.00    +0.000 C 
ENDROOT
BRANCH   1   2
ATOM      2  C   UNL     1       2.383   4.655  19.541  0.00  0.00    +0.000 A 
ATOM      3  C   UNL     1       2.000   4.110  20.785  0.00  0.00    +0.000 A 
ATOM      4  C   UNL     1       1.168   2.991  20.872  0.00  0.00    +0.000 A 
ATOM      5  C   UNL     1       0.676   2.400  19.717  0.00  0.00    +0.000 A 
ATOM      6  C   UNL     1       1.009   2.936  18.477  0.00  0.00    +0.000 A 
ATOM      7  C   UNL     1       1.843   4.059  18.391  0.00  0.00    +0.000 A 
ENDBRANCH   1   2
BRANCH   1  10
ATOM      8  C   UNL     1       4.983   5.772  17.664  0.00  0.00    +0.000 C 
ATOM      9  O   UNL     1       4.251   6.212  16.781  0.00  0.00    +0.000 OA
ATOM     10  N   UNL     1       4.583   5.595  18.967  0.00  0.00    +0.000 N 
ATOM     11  H   UNL     1       5.248   5.219  19.633  0.00  0.00    +0.000 HD
BRANCH   8  16
ATOM     12  O   UNL     1       8.071   5.363  20.515  0.00  0.00    +0.000 OA
ATOM     13  C   UNL     1       7.699   5.584  19.381  0.00  0.00    +0.000 C 
ATOM     14  C   UNL     1       7.894   6.867  18.606  0.00  0.00    +0.000 C 
ATOM     15  C   UNL     1       7.426   6.493  17.200  0.00  0.00    +0.000 C 
ATOM     16  C   UNL     1       6.452   5.346  17.423  0.00  0.00    +0.000 C 
ATOM     17  N   UNL     1       6.976   4.706  18.603  0.00  0.00    +0.000 N 
ATOM     18  H   UNL     1       6.619   3.857  19.025  0.00  0.00    +0.000 HD
ENDBRANCH   8  16
ENDBRANCH   1  10
BRANCH   1  19
ATOM     19  C   UNL     1       2.659   7.184  18.788  0.00  0.00    +0.000 C 
BRANCH  19  20
ATOM     20  C   UNL     1       1.790   8.133  19.605  0.00  0.00    +0.000 A 
ATOM     21  C   UNL     1       1.429   7.753  20.914  0.00  0.00    +0.000 A 
ATOM     22  C   UNL     1       0.523   8.504  21.669  0.00  0.00    +0.000 A 
ATOM     23  C   UNL     1      -0.043   9.653  21.133  0.00  0.00    +0.000 A 
ATOM     24  C   UNL     1       0.376  10.102  19.887  0.00  0.00    +0.000 A 
ATOM     25  C   UNL     1       1.326   9.380  19.155  0.00  0.00    +0.000 A 
ATOM     26 CL   UNL     1       1.958  10.175  17.762  0.00  0.00    +0.000 Cl
ENDBRANCH  19  20
ENDBRANCH   1  19
TORSDOF 5
ENDMDL
MODEL 3
REMARK VINA RESULT:      -8.1      1.092      1.585
REMARK  Name = 
REMARK  5 active torsions:
REMARK  status: ('A' for Active; 'I' for Inactive)
REMARK    1  A    between atoms: C_5  and  C_6
REMARK    2  A    between atoms: N_8  and  C_9
REMARK    3  A    between atoms: C_9  and  C_10
REMARK    4  A    between atoms: C_9  and  C_18
REMARK    5  A    between atoms: C_10  and  C_11
REMARK                            x       y       z     vdW  Elec       q    Type
REMARK                         _______ _______ _______ _____ _____    ______ ____
ROOT
ATOM      1  C   UNL     1       2.685   6.672  18.278  0.00  0.00    +0.000 C 
ENDROOT
BRANCH   1   2
ATOM      2  C   UNL     1       2.046   5.389  18.819  0.00  0.00    +0.000 A 
ATOM      3  C   UNL     1       1.670   4.363  17.926  0.00  0.00    +0.000 A 
ATOM      4  C   UNL     1       1.128   3.157  18.378  0.00  0.00    +0.000 A 
ATOM      5  C   UNL     1       0.969   2.935  19.739  0.00  0.00    +0.000 A 
ATOM      6  C   UNL     1       1.363   3.914  20.645  0.00  0.00    +0.000 A 
ATOM      7  C   UNL     1       1.906   5.123  20.189  0.00  0.00    +0.000 A 
ENDBRANCH   1   2
BRANCH   1  10
ATOM      8  C   UNL     1       1.773   9.014  18.529  0.00  0.00    +0.000 C 
ATOM      9  O   UNL     1       1.704   9.240  17.324  0.00  0.00    +0.000 OA
ATOM     10  N   UNL     1       2.234   7.830  19.057  0.00  0.00    +0.000 N 
ATOM     11  H   UNL     1       2.266   7.728  20.064  0.00  0.00    +0.000 HD
BRANCH   8  16
ATOM     12  O   UNL     1      -0.758   8.401  21.854  0.00  0.00    +0.000 OA
ATOM     13  C   UNL     1      -0.269   9.129  21.013  0.00  0.00    +0.000 C 
ATOM     14  C   UNL     1      -1.015   9.894  19.944  0.00  0.00    +0.000 C 
ATOM     15  C   UNL     1       0.068  10.785  19.339  0.00  0.00    +0.000 C 
ATOM     16  C   UNL     1       1.364  10.037  19.615  0.00  0.00    +0.000 C 
ATOM     17  N   UNL     1       1.081   9.353  20.852  0.00  0.00    +0.000 N 
ATOM     18  H   UNL     1       1.737   8.793  21.383  0.00  0.00    +0.000 HD
ENDBRANCH   8  16
ENDBRANCH   1  10
BRANCH   1  19
ATOM     19  C   UNL     1       4.247   6.688  18.106  0.00  0.00    +0.000 C 
BRANCH  19  20
ATOM     20  C   UNL     1       4.876   5.737  17.094  0.00  0.00    +0.000 A 
ATOM     21  C   UNL     1       5.222   6.244  15.824  0.00  0.00    +0.000 A 
ATOM     22  C   UNL     1       5.672   5.404  14.801  0.00  0.00    +0.000 A 
ATOM     23  C   UNL     1       5.785   4.038  15.022  0.00  0.00    +0.000 A 
ATOM     24  C   UNL     1       5.548   3.532  16.295  0.00  0.00    +0.000 A 
ATOM     25  C   UNL     1       5.153   4.382  17.334  0.00  0.00    +0.000 A 
ATOM     26 CL   UNL     1       5.155   3.685  18.911  0.00  0.00    +0.000 Cl
ENDBRANCH  19  20
ENDBRANCH   1  19
TORSDOF 5
ENDMDL
MODEL 4
REMARK VINA RESULT:      -8.0      3.155      6.584
REMARK  Name = 
REMARK  5 active torsions:
REMARK  status: ('A' for Active; 'I' for Inactive)
REMARK    1  A    between atoms: C_5  and  C_6
REMARK    2  A    between atoms: N_8  and  C_9
REMARK    3  A    between atoms: C_9  and  C_10
REMARK    4  A    between atoms: C_9  and  C_18
REMARK    5  A    between atoms: C_10  and  C_11
REMARK                            x       y       z     vdW  Elec       q    Type
REMARK                         _______ _______ _______ _____ _____    ______ ____
ROOT
ATOM      1  C   UNL     1       3.257   5.887  19.662  0.00  0.00    +0.000 C 
ENDROOT
BRANCH   1   2
ATOM      2  C   UNL     1       2.344   4.664  19.791  0.00  0.00    +0.000 A 
ATOM      3  C   UNL     1       1.758   4.101  18.637  0.00  0.00    +0.000 A 
ATOM      4  C   UNL     1       0.959   2.958  18.701  0.00  0.00    +0.000 A 
ATOM      5  C   UNL     1       0.740   2.331  19.921  0.00  0.00    +0.000 A 
ATOM      6  C   UNL     1       1.333   2.843  21.071  0.00  0.00    +0.000 A 
ATOM      7  C   UNL     1       2.136   3.990  21.004  0.00  0.00    +0.000 A 
ENDBRANCH   1   2
BRANCH   1  10
ATOM      8  C   UNL     1       4.895   5.475  17.783  0.00  0.00    +0.000 C 
ATOM      9  O   UNL     1       4.117   5.780  16.884  0.00  0.00    +0.000 OA
ATOM     10  N   UNL     1       4.561   5.491  19.118  0.00  0.00    +0.000 N 
ATOM     11  H   UNL     1       5.261   5.217  19.797  0.00  0.00    +0.000 HD
BRANCH   8  16
ATOM     12  O   UNL     1       8.078   5.317  20.554  0.00  0.00    +0.000 OA
ATOM     13  C   UNL     1       7.668   5.431  19.417  0.00  0.00    +0.000 C 
ATOM     14  C   UNL     1       7.841   6.632  18.516  0.00  0.00    +0.000 C 
ATOM     15  C   UNL     1       7.323   6.130  17.170  0.00  0.00    +0.000 C 
ATOM     16  C   UNL     1       6.352   5.017  17.534  0.00  0.00    +0.000 C 
ATOM     17  N   UNL     1       6.915   4.488  18.752  0.00  0.00    +0.000 N 
ATOM     18  H   UNL     1       6.569   3.686  19.265  0.00  0.00    +0.000 HD
ENDBRANCH   8  16
ENDBRANCH   1  10
BRANCH   1  19
ATOM     19  C   UNL     1       2.690   7.139  18.900  0.00  0.00    +0.000 C 
BRANCH  19  20
ATOM     20  C   UNL     1       1.782   8.100  19.658  0.00  0.00    +0.000 A 
ATOM     21  C   UNL     1       1.406   7.768  20.976  0.00  0.00    +0.000 A 
ATOM     22  C   UNL     1       0.467   8.528  21.680  0.00  0.00    +0.000 A 
ATOM     23  C   UNL     1      -0.119   9.636  21.083  0.00  0.00    +0.000 A 
ATOM     24  C   UNL     1       0.311  10.040  19.825  0.00  0.00    +0.000 A 
ATOM     25  C   UNL     1       1.293   9.312  19.144  0.00  0.00    +0.000 A 
ATOM     26 CL   UNL     1       1.930  10.060  17.727  0.00  0.00    +0.000 Cl
ENDBRANCH  19  20
ENDBRANCH   1  19
TORSDOF 5
ENDMDL
MODEL 5
REMARK VINA RESULT:      -8.0      2.609      6.393
REMARK  Name = 
REMARK  5 active torsions:
REMARK  status: ('A' for Active; 'I' for Inactive)
REMARK    1  A    between atoms: C_5  and  C_6
REMARK    2  A    between atoms: N_8  and  C_9
REMARK    3  A    between atoms: C_9  and  C_10
REMARK    4  A    between atoms: C_9  and  C_18
REMARK    5  A    between atoms: C_10  and  C_11
REMARK                            x       y       z     vdW  Elec       q    Type
REMARK                         _______ _______ _______ _____ _____    ______ ____
ROOT
ATOM      1  C   UNL     1       2.467   6.198  17.765  0.00  0.00    +0.000 C 
ENDROOT
BRANCH   1   2
ATOM      2  C   UNL     1       2.043   7.383  18.638  0.00  0.00    +0.000 A 
ATOM      3  C   UNL     1       1.647   8.594  18.032  0.00  0.00    +0.000 A 
ATOM      4  C   UNL     1       1.208   9.685  18.786  0.00  0.00    +0.000 A 
ATOM      5  C   UNL     1       1.131   9.587  20.169  0.00  0.00    +0.000 A 
ATOM      6  C   UNL     1       1.482   8.393  20.792  0.00  0.00    +0.000 A 
ATOM      7  C   UNL     1       1.922   7.300  20.034  0.00  0.00    +0.000 A 
ENDBRANCH   1   2
BRANCH   1  10
ATOM      8  C   UNL     1       4.874   6.576  17.103  0.00  0.00    +0.000 C 
ATOM      9  O   UNL     1       4.622   7.370  16.201  0.00  0.00    +0.000 OA
ATOM     10  N   UNL     1       3.912   5.974  17.880  0.00  0.00    +0.000 N 
ATOM     11  H   UNL     1       4.205   5.325  18.599  0.00  0.00    +0.000 HD
BRANCH   8  16
ATOM     12  O   UNL     1       7.957   5.288  14.519  0.00  0.00    +0.000 OA
ATOM     13  C   UNL     1       7.416   5.289  15.607  0.00  0.00    +0.000 C 
ATOM     14  C   UNL     1       6.816   4.094  16.312  0.00  0.00    +0.000 C 
ATOM     15  C   UNL     1       6.490   4.643  17.700  0.00  0.00    +0.000 C 
ATOM     16  C   UNL     1       6.310   6.137  17.478  0.00  0.00    +0.000 C 
ATOM     17  N   UNL     1       7.208   6.408  16.383  0.00  0.00    +0.000 N 
ATOM     18  H   UNL     1       7.405   7.321  15.990  0.00  0.00    +0.000 HD
ENDBRANCH   8  16
ENDBRANCH   1  10
BRANCH   1  19
ATOM     19  C   UNL     1       1.677   4.851  17.939  0.00  0.00    +0.000 C 
BRANCH  19  20
ATOM     20  C   UNL     1       2.016   3.958  19.127  0.00  0.00    +0.000 A 
ATOM     21  C   UNL     1       1.252   4.093  20.306  0.00  0.00    +0.000 A 
ATOM     22  C   UNL     1       1.593   3.410  21.478  0.00  0.00    +0.000 A 
ATOM     23  C   UNL     1       2.704   2.579  21.500  0.00  0.00    +0.000 A 
ATOM     24  C   UNL     1       3.409   2.352  20.324  0.00  0.00    +0.000 A 
ATOM     25  C   UNL     1       3.034   2.991  19.138  0.00  0.00    +0.000 A 
ATOM     26 CL   UNL     1       3.809   2.423  17.705  0.00  0.00    +0.000 Cl
ENDBRANCH  19  20
ENDBRANCH   1  19
TORSDOF 5
ENDMDL
MODEL 6
REMARK VINA RESULT:      -7.9      2.941      6.643
REMARK  Name = 
REMARK  5 active torsions:
REMARK  status: ('A' for Active; 'I' for Inactive)
REMARK    1  A    between atoms: C_5  and  C_6
REMARK    2  A    between atoms: N_8  and  C_9
REMARK    3  A    between atoms: C_9  and  C_10
REMARK    4  A    between atoms: C_9  and  C_18
REMARK    5  A    between atoms: C_10  and  C_11
REMARK                            x       y       z     vdW  Elec       q    Type
REMARK                         _______ _______ _______ _____ _____    ______ ____
ROOT
ATOM      1  C   UNL     1       3.850   5.389  17.285  0.00  0.00    +0.000 C 
ENDROOT
BRANCH   1   2
ATOM      2  C   UNL     1       5.022   5.115  16.337  0.00  0.00    +0.000 A 
ATOM      3  C   UNL     1       4.802   4.410  15.135  0.00  0.00    +0.000 A 
ATOM      4  C   UNL     1       5.830   4.180  14.218  0.00  0.00    +0.000 A 
ATOM      5  C   UNL     1       7.105   4.668  14.468  0.00  0.00    +0.000 A 
ATOM      6  C   UNL     1       7.345   5.397  15.629  0.00  0.00    +0.000 A 
ATOM      7  C   UNL     1       6.311   5.628  16.547  0.00  0.00    +0.000 A 
ENDBRANCH   1   2
BRANCH   1  10
ATOM      8  C   UNL     1       2.091   3.694  17.925  0.00  0.00    +0.000 C 
ATOM      9  O   UNL     1       1.150   4.316  17.441  0.00  0.00    +0.000 OA
ATOM     10  N   UNL     1       3.392   4.138  17.899  0.00  0.00    +0.000 N 
ATOM     11  H   UNL     1       4.109   3.566  18.329  0.00  0.00    +0.000 HD
BRANCH   8  16
ATOM     12  O   UNL     1       1.865   2.950  22.076  0.00  0.00    +0.000 OA
ATOM     13  C   UNL     1       2.150   2.596  20.950  0.00  0.00    +0.000 C 
ATOM     14  C   UNL     1       3.525   2.227  20.445  0.00  0.00    +0.000 C 
ATOM     15  C   UNL     1       3.242   1.667  19.052  0.00  0.00    +0.000 C 
ATOM     16  C   UNL     1       1.936   2.330  18.641  0.00  0.00    +0.000 C 
ATOM     17  N   UNL     1       1.259   2.513  19.901  0.00  0.00    +0.000 N 
ATOM     18  H   UNL     1       0.322   2.878  20.024  0.00  0.00    +0.000 HD
ENDBRANCH   8  16
ENDBRANCH   1  10
BRANCH   1  19
ATOM     19  C   UNL     1       4.042   6.508  18.371  0.00  0.00    +0.000 C 
BRANCH  19  20
ATOM     20  C   UNL     1       2.909   7.502  18.597  0.00  0.00    +0.000 A 
ATOM     21  C   UNL     1       2.711   8.521  17.642  0.00  0.00    +0.000 A 
ATOM     22  C   UNL     1       1.786   9.548  17.852  0.00  0.00    +0.000 A 
ATOM     23  C   UNL     1       1.037   9.581  19.020  0.00  0.00    +0.000 A 
ATOM     24  C   UNL     1       1.141   8.533  19.926  0.00  0.00    +0.000 A 
ATOM     25  C   UNL     1       2.026   7.475  19.688  0.00  0.00    +0.000 A 
ATOM     26 CL   UNL     1       1.866   6.116  20.738  0.00  0.00    +0.000 Cl
ENDBRANCH  19  20
ENDBRANCH   1  19
TORSDOF 5
ENDMDL
MODEL 7
REMARK VINA RESULT:      -7.9      2.904      6.564
REMARK  Name = 
REMARK  5 active torsions:
REMARK  status: ('A' for Active; 'I' for Inactive)
REMARK    1  A    between atoms: C_5  and  C_6
REMARK    2  A    between atoms: N_8  and  C_9
REMARK    3  A    between atoms: C_9  and  C_10
REMARK    4  A    between atoms: C_9  and  C_18
REMARK    5  A    between atoms: C_10  and  C_11
REMARK                            x       y       z     vdW  Elec       q    Type
REMARK                         _______ _______ _______ _____ _____    ______ ____
ROOT
ATOM      1  C   UNL     1       3.696   5.512  17.446  0.00  0.00    +0.000 C 
ENDROOT
BRANCH   1   2
ATOM      2  C   UNL     1       4.870   5.240  16.500  0.00  0.00    +0.000 A 
ATOM      3  C   UNL     1       6.052   6.002  16.612  0.00  0.00    +0.000 A 
ATOM      4  C   UNL     1       7.164   5.757  15.803  0.00  0.00    +0.000 A 
ATOM      5  C   UNL     1       7.133   4.727  14.874  0.00  0.00    +0.000 A 
ATOM      6  C   UNL     1       5.993   3.936  14.764  0.00  0.00    +0.000 A 
ATOM      7  C   UNL     1       4.878   4.184  15.577  0.00  0.00    +0.000 A 
ENDBRANCH   1   2
BRANCH   1  10
ATOM      8  C   UNL     1       1.997   3.734  18.018  0.00  0.00    +0.000 C 
ATOM      9  O   UNL     1       1.068   4.262  17.413  0.00  0.00    +0.000 OA
ATOM     10  N   UNL     1       3.263   4.267  18.087  0.00  0.00    +0.000 N 
ATOM     11  H   UNL     1       3.970   3.769  18.615  0.00  0.00    +0.000 HD
BRANCH   8  16
ATOM     12  O   UNL     1       2.052   3.149  22.200  0.00  0.00    +0.000 OA
ATOM     13  C   UNL     1       2.246   2.747  21.072  0.00  0.00    +0.000 C 
ATOM     14  C   UNL     1       3.574   2.325  20.485  0.00  0.00    +0.000 C 
ATOM     15  C   UNL     1       3.178   1.721  19.139  0.00  0.00    +0.000 C 
ATOM     16  C   UNL     1       1.862   2.402  18.796  0.00  0.00    +0.000 C 
ATOM     17  N   UNL     1       1.282   2.648  20.092  0.00  0.00    +0.000 N 
ATOM     18  H   UNL     1       0.364   3.042  20.266  0.00  0.00    +0.000 HD
ENDBRANCH   8  16
ENDBRANCH   1  10
BRANCH   1  19
ATOM     19  C   UNL     1       3.870   6.657  18.508  0.00  0.00    +0.000 C 
BRANCH  19  20
ATOM     20  C   UNL     1       2.730   7.649  18.701  0.00  0.00    +0.000 A 
ATOM     21  C   UNL     1       2.517   8.628  17.707  0.00  0.00    +0.000 A 
ATOM     22  C   UNL     1       1.584   9.654  17.881  0.00  0.00    +0.000 A 
ATOM     23  C   UNL     1       0.841   9.726  19.052  0.00  0.00    +0.000 A 
ATOM     24  C   UNL     1       0.959   8.716  19.998  0.00  0.00    +0.000 A 
ATOM     25  C   UNL     1       1.853   7.658  19.798  0.00  0.00    +0.000 A 
ATOM     26 CL   UNL     1       1.711   6.340  20.901  0.00  0.00    +0.000 Cl
ENDBRANCH  19  20
ENDBRANCH   1  19
TORSDOF 5
ENDMDL
MODEL 8
REMARK VINA RESULT:      -7.9      3.299      6.578
REMARK  Name = 
REMARK  5 active torsions:
REMARK  status: ('A' for Active; 'I' for Inactive)
REMARK    1  A    between atoms: C_5  and  C_6
REMARK    2  A    between atoms: N_8  and  C_9
REMARK    3  A    between atoms: C_9  and  C_10
REMARK    4  A    between atoms: C_9  and  C_18
REMARK    5  A    between atoms: C_10  and  C_11
REMARK                            x       y       z     vdW  Elec       q    Type
REMARK                         _______ _______ _______ _____ _____    ______ ____
ROOT
ATOM      1  C   UNL     1       3.118   6.361  18.863  0.00  0.00    +0.000 C 
ENDROOT
BRANCH   1   2
ATOM      2  C   UNL     1       2.477   4.970  18.872  0.00  0.00    +0.000 A 
ATOM      3  C   UNL     1       1.674   4.575  19.963  0.00  0.00    +0.000 A 
ATOM      4  C   UNL     1       1.031   3.336  19.992  0.00  0.00    +0.000 A 
ATOM      5  C   UNL     1       1.153   2.465  18.918  0.00  0.00    +0.000 A 
ATOM      6  C   UNL     1       1.910   2.841  17.813  0.00  0.00    +0.000 A 
ATOM      7  C   UNL     1       2.555   4.085  17.786  0.00  0.00    +0.000 A 
ENDBRANCH   1   2
BRANCH   1  10
ATOM      8  C   UNL     1       5.568   5.819  18.574  0.00  0.00    +0.000 C 
ATOM      9  O   UNL     1       5.711   5.333  19.693  0.00  0.00    +0.000 OA
ATOM     10  N   UNL     1       4.378   6.333  18.113  0.00  0.00    +0.000 N 
ATOM     11  H   UNL     1       4.348   6.723  17.179  0.00  0.00    +0.000 HD
BRANCH   8  16
ATOM     12  O   UNL     1       5.369   5.183  14.404  0.00  0.00    +0.000 OA
ATOM     13  C   UNL     1       5.991   5.187  15.447  0.00  0.00    +0.000 C 
ATOM     14  C   UNL     1       6.643   3.996  16.109  0.00  0.00    +0.000 C 
ATOM     15  C   UNL     1       7.445   4.629  17.245  0.00  0.00    +0.000 C 
ATOM     16  C   UNL     1       6.713   5.931  17.538  0.00  0.00    +0.000 C 
ATOM     17  N   UNL     1       6.175   6.292  16.250  0.00  0.00    +0.000 N 
ATOM     18  H   UNL     1       5.668   7.143  16.037  0.00  0.00    +0.000 HD
ENDBRANCH   8  16
ENDBRANCH   1  10
BRANCH   1  19
ATOM     19  C   UNL     1       2.224   7.570  18.409  0.00  0.00    +0.000 C 
BRANCH  19  20
ATOM     20  C   UNL     1       1.673   8.508  19.476  0.00  0.00    +0.000 A 
ATOM     21  C   UNL     1       1.435   7.989  20.766  0.00  0.00    +0.000 A 
ATOM     22  C   UNL     1       0.802   8.751  21.753  0.00  0.00    +0.000 A 
ATOM     23  C   UNL     1       0.393  10.048  21.475  0.00  0.00    +0.000 A 
ATOM     24  C   UNL     1       0.709  10.613  20.246  0.00  0.00    +0.000 A 
ATOM     25  C   UNL     1       1.393   9.870  19.278  0.00  0.00    +0.000 A 
ATOM     26 CL   UNL     1       1.962  10.760  17.915  0.00  0.00    +0.000 Cl
ENDBRANCH  19  20
ENDBRANCH   1  19
TORSDOF 5
ENDMDL
MODEL 9
REMARK VINA RESULT:      -7.8      2.759      6.235
REMARK  Name = 
REMARK  5 active torsions:
REMARK  status: ('A' for Active; 'I' for Inactive)
REMARK    1  A    between atoms: C_5  and  C_6
REMARK    2  A    between atoms: N_8  and  C_9
REMARK    3  A    between atoms: C_9  and  C_10
REMARK    4  A    between atoms: C_9  and  C_18
REMARK    5  A    between atoms: C_10  and  C_11
REMARK                            x       y       z     vdW  Elec       q    Type
REMARK                         _______ _______ _______ _____ _____    ______ ____
ROOT
ATOM      1  C   UNL     1       2.689   6.845  18.520  0.00  0.00    +0.000 C 
ENDROOT
BRANCH   1   2
ATOM      2  C   UNL     1       2.051   8.213  18.781  0.00  0.00    +0.000 A 
ATOM      3  C   UNL     1       1.422   8.469  20.018  0.00  0.00    +0.000 A 
ATOM      4  C   UNL     1       0.870   9.716  20.318  0.00  0.00    +0.000 A 
ATOM      5  C   UNL     1       0.950  10.751  19.397  0.00  0.00    +0.000 A 
ATOM      6  C   UNL     1       1.595  10.539  18.182  0.00  0.00    +0.000 A 
ATOM      7  C   UNL     1       2.149   9.286  17.883  0.00  0.00    +0.000 A 
ENDBRANCH   1   2
BRANCH   1  10
ATOM      8  C   UNL     1       4.564   6.161  16.972  0.00  0.00    +0.000 C 
ATOM      9  O   UNL     1       4.013   5.141  16.567  0.00  0.00    +0.000 OA
ATOM     10  N   UNL     1       4.007   7.012  17.899  0.00  0.00    +0.000 N 
ATOM     11  H   UNL     1       4.533   7.829  18.184  0.00  0.00    +0.000 HD
BRANCH   8  16
ATOM     12  O   UNL     1       8.245   4.140  17.418  0.00  0.00    +0.000 OA
ATOM     13  C   UNL     1       7.607   5.166  17.300  0.00  0.00    +0.000 C 
ATOM     14  C   UNL     1       7.524   6.293  18.305  0.00  0.00    +0.000 C 
ATOM     15  C   UNL     1       6.776   7.382  17.539  0.00  0.00    +0.000 C 
ATOM     16  C   UNL     1       5.965   6.620  16.501  0.00  0.00    +0.000 C 
ATOM     17  N   UNL     1       6.792   5.470  16.231  0.00  0.00    +0.000 N 
ATOM     18  H   UNL     1       6.605   4.754  15.539  0.00  0.00    +0.000 HD
ENDBRANCH   8  16
ENDBRANCH   1  10
BRANCH   1  19
ATOM     19  C   UNL     1       2.761   5.836  19.722  0.00  0.00    +0.000 C 
BRANCH  19  20
ATOM     20  C   UNL     1       2.473   4.364  19.452  0.00  0.00    +0.000 A 
ATOM     21  C   UNL     1       1.144   3.980  19.175  0.00  0.00    +0.000 A 
ATOM     22  C   UNL     1       0.783   2.635  19.057  0.00  0.00    +0.000 A 
ATOM     23  C   UNL     1       1.740   1.642  19.213  0.00  0.00    +0.000 A 
ATOM     24  C   UNL     1       3.072   1.999  19.384  0.00  0.00    +0.000 A 
ATOM     25  C   UNL     1       3.442   3.347  19.446  0.00  0.00    +0.000 A 
ATOM     26 CL   UNL     1       5.137   3.660  19.387  0.00  0.00    +0.000 Cl
ENDBRANCH  19  20
ENDBRANCH   1  19
TORSDOF 5
ENDMDL
