MODEL 1
REMARK VINA RESULT:      -8.0      0.000      0.000
REMARK  Name = 
REMARK  3 active torsions:
REMARK  status: ('A' for Active; 'I' for Inactive)
REMARK    1  A    between atoms: N_2  and  C_4
REMARK    2  A    between atoms: C_7  and  C_8
REMARK    3  A    between atoms: C_12  and  C_13
REMARK                            x       y       z     vdW  Elec       q    Type
REMARK                         _______ _______ _______ _____ _____    ______ ____
ROOT
ATOM      1  C   UNL     1       2.650   7.682  18.245  0.00  0.00    +0.000 A 
ATOM      2  C   UNL     1       2.191   7.580  19.552  0.00  0.00    +0.000 A 
ATOM      3  N   UNL     1       1.510   8.739  19.761  0.00  0.00    +0.000 N 
ATOM      4  N   UNL     1       0.947   9.244  20.865  0.00  0.00    +0.000 NA
ATOM      5  C   UNL     1       0.505  10.434  20.539  0.00  0.00    +0.000 A 
ATOM      6  S   UNL     1       0.717  10.957  18.866  0.00  0.00    +0.000 S 
ATOM      7  C   UNL     1       1.517   9.448  18.610  0.00  0.00    +0.000 A 
ATOM      8  N   UNL     1       2.193   8.868  17.653  0.00  0.00    +0.000 NA
ENDROOT
BRANCH   5   9
ATOM      9  C   UNL     1      -0.188  11.209  21.558  0.00  0.00    +0.000 A 
ATOM     10  C   UNL     1      -0.808  10.519  22.596  0.00  0.00    +0.000 A 
ATOM     11  N   UNL     1      -1.663  11.367  23.216  0.00  0.00    +0.000 N 
ATOM     12  C   UNL     1      -1.225  12.646  23.012  0.00  0.00    +0.000 A 
ATOM     13  C   UNL     1      -1.547  13.799  23.734  0.00  0.00    +0.000 A 
ATOM     14  C   UNL     1      -0.966  14.992  23.322  0.00  0.00    +0.000 A 
ATOM     15  C   UNL     1      -0.180  15.032  22.172  0.00  0.00    +0.000 A 
ATOM     16  C   UNL     1       0.100  13.863  21.432  0.00  0.00    +0.000 A 
ATOM     17  C   UNL     1      -0.373  12.610  21.893  0.00  0.00    +0.000 A 
ATOM     18  H   UNL     1      -2.410  11.095  23.839  0.00  0.00    +0.000 HD
ENDBRANCH   5   9
BRANCH   1  22
ATOM     19  C   UNL     1       5.571   5.095  16.477  0.00  0.00    +0.000 A 
ATOM     20  C   UNL     1       4.451   4.529  17.099  0.00  0.00    +0.000 A 
ATOM     21  C   UNL     1       3.467   5.367  17.651  0.00  0.00    +0.000 A 
ATOM     22  C   UNL     1       3.591   6.768  17.593  0.00  0.00    +0.000 A 
ATOM     23  C   UNL     1       4.710   7.305  16.938  0.00  0.00    +0.000 A 
ATOM     24  C   UNL     1       5.698   6.483  16.385  0.00  0.00    +0.000 A 
BRANCH  19  26
ATOM     25  O   UNL     1       7.775   4.373  16.393  0.00  0.00    +0.000 OA
ATOM     26  N   UNL     1       6.629   4.231  15.933  0.00  0.00    +0.000 N 
ATOM     27  O   UNL     1       6.322   3.432  15.040  0.00  0.00    +0.000 OA
ENDBRANCH  19  26
ENDBRANCH   1  22
TORSDOF 3
ENDMDL
MODEL 2
REMARK VINA RESULT:      -8.0      4.636     10.024
REMARK  Name = 
REMARK  3 active torsions:
REMARK  status: ('A' for Active; 'I' for Inactive)
REMARK    1  A    between atoms: N_2  and  C_4
REMARK    2  A    between atoms: C_7  and  C_8
REMARK    3  A    between atoms: C_12  and  C_13
REMARK                            x       y       z     vdW  Elec       q    Type
REMARK                         _______ _______ _______ _____ _____    ______ ____
ROOT
ATOM      1  C   UNL     1       0.755   9.236  20.664  0.00  0.00    +0.000 A 
ATOM      2  C   UNL     1       1.359   9.145  19.417  0.00  0.00    +0.000 A 
ATOM      3  N   UNL     1       1.865   7.883  19.379  0.00  0.00    +0.000 N 
ATOM      4  N   UNL     1       2.640   7.269  18.477  0.00  0.00    +0.000 NA
ATOM      5  C   UNL     1       2.915   6.089  18.973  0.00  0.00    +0.000 A 
ATOM      6  S   UNL     1       2.200   5.667  20.531  0.00  0.00    +0.000 S 
ATOM      7  C   UNL     1       1.513   7.251  20.521  0.00  0.00    +0.000 A 
ATOM      8  N   UNL     1       0.843   8.015  21.345  0.00  0.00    +0.000 NA
ENDROOT
BRANCH   5   9
ATOM      9  C   UNL     1       3.732   5.185  18.176  0.00  0.00    +0.000 A 
ATOM     10  C   UNL     1       3.645   3.820  18.438  0.00  0.00    +0.000 A 
ATOM     11  N   UNL     1       4.704   3.210  17.855  0.00  0.00    +0.000 N 
ATOM     12  C   UNL     1       5.126   3.983  16.809  0.00  0.00    +0.000 A 
ATOM     13  C   UNL     1       5.916   3.610  15.718  0.00  0.00    +0.000 A 
ATOM     14  C   UNL     1       6.212   4.592  14.780  0.00  0.00    +0.000 A 
ATOM     15  C   UNL     1       5.813   5.910  14.991  0.00  0.00    +0.000 A 
ATOM     16  C   UNL     1       5.050   6.276  16.121  0.00  0.00    +0.000 A 
ATOM     17  C   UNL     1       4.624   5.279  17.034  0.00  0.00    +0.000 A 
ATOM     18  H   UNL     1       5.033   2.278  18.066  0.00  0.00    +0.000 HD
ENDBRANCH   5   9
BRANCH   1  22
ATOM     19  C   UNL     1      -0.726  12.741  22.632  0.00  0.00    +0.000 A 
ATOM     20  C   UNL     1       0.133  12.890  21.538  0.00  0.00    +0.000 A 
ATOM     21  C   UNL     1       0.598  11.749  20.860  0.00  0.00    +0.000 A 
ATOM     22  C   UNL     1       0.216  10.458  21.268  0.00  0.00    +0.000 A 
ATOM     23  C   UNL     1      -0.669  10.342  22.350  0.00  0.00    +0.000 A 
ATOM     24  C   UNL     1      -1.140  11.468  23.035  0.00  0.00    +0.000 A 
BRANCH  19  26
ATOM     25  O   UNL     1      -0.366  14.838  23.558  0.00  0.00    +0.000 OA
ATOM     26  N   UNL     1      -1.187  13.922  23.377  0.00  0.00    +0.000 N 
ATOM     27  O   UNL     1      -2.351  13.927  23.794  0.00  0.00    +0.000 OA
ENDBRANCH  19  26
ENDBRANCH   1  22
TORSDOF 3
ENDMDL
MODEL 3
REMARK VINA RESULT:      -8.0      5.108     10.173
REMARK  Name = 
REMARK  3 active torsions:
REMARK  status: ('A' for Active; 'I' for Inactive)
REMARK    1  A    between atoms: N_2  and  C_4
REMARK    2  A    between atoms: C_7  and  C_8
REMARK    3  A    between atoms: C_12  and  C_13
REMARK                            x       y       z     vdW  Elec       q    Type
REMARK                         _______ _______ _______ _____ _____    ______ ____
ROOT
ATOM      1  C   UNL     1       0.011  10.440  20.802  0.00  0.00    +0.000 A 
ATOM      2  C   UNL     1       0.524   9.241  21.281  0.00  0.00    +0.000 A 
ATOM      3  N   UNL     1       1.204   8.719  20.224  0.00  0.00    +0.000 N 
ATOM      4  N   UNL     1       1.810   7.537  20.062  0.00  0.00    +0.000 NA
ATOM      5  C   UNL     1       2.228   7.508  18.821  0.00  0.00    +0.000 A 
ATOM      6  S   UNL     1       1.943   8.938  17.825  0.00  0.00    +0.000 S 
ATOM      7  C   UNL     1       1.144   9.604  19.204  0.00  0.00    +0.000 A 
ATOM      8  N   UNL     1       0.434  10.665  19.485  0.00  0.00    +0.000 NA
ENDROOT
BRANCH   5   9
ATOM      9  C   UNL     1       2.957   6.331  18.372  0.00  0.00    +0.000 A 
ATOM     10  C   UNL     1       4.317   6.465  18.106  0.00  0.00    +0.000 A 
ATOM     11  N   UNL     1       4.716   5.387  17.390  0.00  0.00    +0.000 N 
ATOM     12  C   UNL     1       3.868   4.350  17.663  0.00  0.00    +0.000 A 
ATOM     13  C   UNL     1       4.078   2.982  17.465  0.00  0.00    +0.000 A 
ATOM     14  C   UNL     1       3.048   2.121  17.825  0.00  0.00    +0.000 A 
ATOM     15  C   UNL     1       1.829   2.627  18.269  0.00  0.00    +0.000 A 
ATOM     16  C   UNL     1       1.622   4.015  18.424  0.00  0.00    +0.000 A 
ATOM     17  C   UNL     1       2.689   4.916  18.184  0.00  0.00    +0.000 A 
ATOM     18  H   UNL     1       5.573   5.319  16.859  0.00  0.00    +0.000 HD
ENDBRANCH   5   9
BRANCH   1  22
ATOM     19  C   UNL     1      -2.963  12.879  22.688  0.00  0.00    +0.000 A 
ATOM     20  C   UNL     1      -2.294  11.914  23.450  0.00  0.00    +0.000 A 
ATOM     21  C   UNL     1      -1.290  11.131  22.853  0.00  0.00    +0.000 A 
ATOM     22  C   UNL     1      -0.950  11.299  21.498  0.00  0.00    +0.000 A 
ATOM     23  C   UNL     1      -1.617  12.294  20.767  0.00  0.00    +0.000 A 
ATOM     24  C   UNL     1      -2.619  13.081  21.349  0.00  0.00    +0.000 A 
BRANCH  19  26
ATOM     25  O   UNL     1      -4.652  13.179  24.250  0.00  0.00    +0.000 OA
ATOM     26  N   UNL     1      -4.043  13.676  23.288  0.00  0.00    +0.000 N 
ATOM     27  O   UNL     1      -4.295  14.780  22.789  0.00  0.00    +0.000 OA
ENDBRANCH  19  26
ENDBRANCH   1  22
TORSDOF 3
ENDMDL
MODEL 4
REMARK VINA RESULT:      -8.0      4.692      9.997
REMARK  Name = 
REMARK  3 active torsions:
REMARK  status: ('A' for Active; 'I' for Inactive)
REMARK    1  A    between atoms: N_2  and  C_4
REMARK    2  A    between atoms: C_7  and  C_8
REMARK    3  A    between atoms: C_12  and  C_13
REMARK                            x       y       z     vdW  Elec       q    Type
REMARK                         _______ _______ _______ _____ _____    ______ ____
ROOT
ATOM      1  C   UNL     1       0.841   9.123  20.777  0.00  0.00    +0.000 A 
ATOM      2  C   UNL     1       1.410   9.053  19.512  0.00  0.00    +0.000 A 
ATOM      3  N   UNL     1       1.894   7.784  19.430  0.00  0.00    +0.000 N 
ATOM      4  N   UNL     1       2.634   7.181  18.492  0.00  0.00    +0.000 NA
ATOM      5  C   UNL     1       2.902   5.984  18.952  0.00  0.00    +0.000 A 
ATOM      6  S   UNL     1       2.221   5.535  20.518  0.00  0.00    +0.000 S 
ATOM      7  C   UNL     1       1.561   7.130  20.565  0.00  0.00    +0.000 A 
ATOM      8  N   UNL     1       0.927   7.884  21.425  0.00  0.00    +0.000 NA
ENDROOT
BRANCH   5   9
ATOM      9  C   UNL     1       3.682   5.087  18.111  0.00  0.00    +0.000 A 
ATOM     10  C   UNL     1       3.518   3.716  18.288  0.00  0.00    +0.000 A 
ATOM     11  N   UNL     1       4.553   3.086  17.682  0.00  0.00    +0.000 N 
ATOM     12  C   UNL     1       5.030   3.897  16.691  0.00  0.00    +0.000 A 
ATOM     13  C   UNL     1       5.816   3.547  15.588  0.00  0.00    +0.000 A 
ATOM     14  C   UNL     1       6.178   4.566  14.715  0.00  0.00    +0.000 A 
ATOM     15  C   UNL     1       5.845   5.889  15.000  0.00  0.00    +0.000 A 
ATOM     16  C   UNL     1       5.086   6.227  16.142  0.00  0.00    +0.000 A 
ATOM     17  C   UNL     1       4.595   5.201  16.987  0.00  0.00    +0.000 A 
ATOM     18  H   UNL     1       4.829   2.127  17.840  0.00  0.00    +0.000 HD
ENDBRANCH   5   9
BRANCH   1  22
ATOM     19  C   UNL     1      -0.721  12.737  22.467  0.00  0.00    +0.000 A 
ATOM     20  C   UNL     1      -1.103  11.509  23.019  0.00  0.00    +0.000 A 
ATOM     21  C   UNL     1      -0.570  10.317  22.498  0.00  0.00    +0.000 A 
ATOM     22  C   UNL     1       0.339  10.338  21.425  0.00  0.00    +0.000 A 
ATOM     23  C   UNL     1       0.726  11.585  20.911  0.00  0.00    +0.000 A 
ATOM     24  C   UNL     1       0.203  12.780  21.419  0.00  0.00    +0.000 A 
BRANCH  19  26
ATOM     25  O   UNL     1      -2.176  14.535  22.278  0.00  0.00    +0.000 OA
ATOM     26  N   UNL     1      -1.302  13.988  22.974  0.00  0.00    +0.000 N 
ATOM     27  O   UNL     1      -0.877  14.432  24.047  0.00  0.00    +0.000 OA
ENDBRANCH  19  26
ENDBRANCH   1  22
TORSDOF 3
ENDMDL
MODEL 5
REMARK VINA RESULT:      -8.0      5.023     10.132
REMARK  Name = 
REMARK  3 active torsions:
REMARK  status: ('A' for Active; 'I' for Inactive)
REMARK    1  A    between atoms: N_2  and  C_4
REMARK    2  A    between atoms: C_7  and  C_8
REMARK    3  A    between atoms: C_12  and  C_13
REMARK                            x       y       z     vdW  Elec       q    Type
REMARK                         _______ _______ _______ _____ _____    ______ ____
ROOT
ATOM      1  C   UNL     1       0.458  10.615  21.109  0.00  0.00    +0.000 A 
ATOM      2  C   UNL     1       0.925   9.371  21.513  0.00  0.00    +0.000 A 
ATOM      3  N   UNL     1       1.449   8.824  20.383  0.00  0.00    +0.000 N 
ATOM      4  N   UNL     1       1.942   7.604  20.139  0.00  0.00    +0.000 NA
ATOM      5  C   UNL     1       2.226   7.572  18.861  0.00  0.00    +0.000 A 
ATOM      6  S   UNL     1       1.948   9.042  17.923  0.00  0.00    +0.000 S 
ATOM      7  C   UNL     1       1.352   9.734  19.388  0.00  0.00    +0.000 A 
ATOM      8  N   UNL     1       0.758  10.838  19.759  0.00  0.00    +0.000 NA
ENDROOT
BRANCH   5   9
ATOM      9  C   UNL     1       2.812   6.354  18.320  0.00  0.00    +0.000 A 
ATOM     10  C   UNL     1       4.102   6.423  17.801  0.00  0.00    +0.000 A 
ATOM     11  N   UNL     1       4.317   5.312  17.056  0.00  0.00    +0.000 N 
ATOM     12  C   UNL     1       3.495   4.320  17.514  0.00  0.00    +0.000 A 
ATOM     13  C   UNL     1       3.611   2.941  17.322  0.00  0.00    +0.000 A 
ATOM     14  C   UNL     1       2.635   2.133  17.894  0.00  0.00    +0.000 A 
ATOM     15  C   UNL     1       1.541   2.702  18.542  0.00  0.00    +0.000 A 
ATOM     16  C   UNL     1       1.421   4.101  18.690  0.00  0.00    +0.000 A 
ATOM     17  C   UNL     1       2.458   4.948  18.228  0.00  0.00    +0.000 A 
ATOM     18  H   UNL     1       5.056   5.196  16.377  0.00  0.00    +0.000 HD
ENDBRANCH   5   9
BRANCH   1  22
ATOM     19  C   UNL     1      -2.007  13.374  23.269  0.00  0.00    +0.000 A 
ATOM     20  C   UNL     1      -2.176  12.001  23.483  0.00  0.00    +0.000 A 
ATOM     21  C   UNL     1      -1.350  11.085  22.809  0.00  0.00    +0.000 A 
ATOM     22  C   UNL     1      -0.356  11.528  21.916  0.00  0.00    +0.000 A 
ATOM     23  C   UNL     1      -0.190  12.910  21.743  0.00  0.00    +0.000 A 
ATOM     24  C   UNL     1      -1.007  13.833  22.408  0.00  0.00    +0.000 A 
BRANCH  19  26
ATOM     25  O   UNL     1      -3.131  15.402  23.335  0.00  0.00    +0.000 OA
ATOM     26  N   UNL     1      -2.891  14.340  23.935  0.00  0.00    +0.000 N 
ATOM     27  O   UNL     1      -3.326  14.051  25.057  0.00  0.00    +0.000 OA
ENDBRANCH  19  26
ENDBRANCH   1  22
TORSDOF 3
ENDMDL
MODEL 6
REMARK VINA RESULT:      -8.0      1.794      2.265
REMARK  Name = 
REMARK  3 active torsions:
REMARK  status: ('A' for Active; 'I' for Inactive)
REMARK    1  A    between atoms: N_2  and  C_4
REMARK    2  A    between atoms: C_7  and  C_8
REMARK    3  A    between atoms: C_12  and  C_13
REMARK                            x       y       z     vdW  Elec       q    Type
REMARK                         _______ _______ _______ _____ _____    ______ ____
ROOT
ATOM      1  C   UNL     1       2.721   7.778  18.506  0.00  0.00    +0.000 A 
ATOM      2  C   UNL     1       2.200   8.933  17.938  0.00  0.00    +0.000 A 
ATOM      3  N   UNL     1       1.302   9.385  18.856  0.00  0.00    +0.000 N 
ATOM      4  N   UNL     1       0.424  10.393  18.809  0.00  0.00    +0.000 NA
ATOM      5  C   UNL     1      -0.262  10.333  19.923  0.00  0.00    +0.000 A 
ATOM      6  S   UNL     1       0.171   9.078  21.086  0.00  0.00    +0.000 S 
ATOM      7  C   UNL     1       1.350   8.568  19.932  0.00  0.00    +0.000 A 
ATOM      8  N   UNL     1       2.185   7.572  19.785  0.00  0.00    +0.000 NA
ENDROOT
BRANCH   5   9
ATOM      9  C   UNL     1      -1.284  11.345  20.152  0.00  0.00    +0.000 A 
ATOM     10  C   UNL     1      -1.957  11.858  19.047  0.00  0.00    +0.000 A 
ATOM     11  N   UNL     1      -2.588  12.994  19.427  0.00  0.00    +0.000 N 
ATOM     12  C   UNL     1      -2.818  12.930  20.773  0.00  0.00    +0.000 A 
ATOM     13  C   UNL     1      -3.735  13.664  21.532  0.00  0.00    +0.000 A 
ATOM     14  C   UNL     1      -3.776  13.414  22.898  0.00  0.00    +0.000 A 
ATOM     15  C   UNL     1      -2.863  12.538  23.481  0.00  0.00    +0.000 A 
ATOM     16  C   UNL     1      -1.916  11.836  22.703  0.00  0.00    +0.000 A 
ATOM     17  C   UNL     1      -1.927  11.973  21.293  0.00  0.00    +0.000 A 
ATOM     18  H   UNL     1      -2.952  13.700  18.802  0.00  0.00    +0.000 HD
ENDBRANCH   5   9
BRANCH   1  22
ATOM     19  C   UNL     1       5.474   5.086  16.630  0.00  0.00    +0.000 A 
ATOM     20  C   UNL     1       4.569   4.583  17.571  0.00  0.00    +0.000 A 
ATOM     21  C   UNL     1       3.636   5.448  18.168  0.00  0.00    +0.000 A 
ATOM     22  C   UNL     1       3.600   6.815  17.837  0.00  0.00    +0.000 A 
ATOM     23  C   UNL     1       4.501   7.285  16.868  0.00  0.00    +0.000 A 
ATOM     24  C   UNL     1       5.436   6.435  16.266  0.00  0.00    +0.000 A 
BRANCH  19  26
ATOM     25  O   UNL     1       6.088   3.365  15.198  0.00  0.00    +0.000 OA
ATOM     26  N   UNL     1       6.483   4.201  16.029  0.00  0.00    +0.000 N 
ATOM     27  O   UNL     1       7.657   4.326  16.397  0.00  0.00    +0.000 OA
ENDBRANCH  19  26
ENDBRANCH   1  22
TORSDOF 3
ENDMDL
MODEL 7
REMARK VINA RESULT:      -8.0      5.126     10.093
REMARK  Name = 
REMARK  3 active torsions:
REMARK  status: ('A' for Active; 'I' for Inactive)
REMARK    1  A    between atoms: N_2  and  C_4
REMARK    2  A    between atoms: C_7  and  C_8
REMARK    3  A    between atoms: C_12  and  C_13
REMARK                            x       y       z     vdW  Elec       q    Type
REMARK                         _______ _______ _______ _____ _____    ______ ____
ROOT
ATOM      1  C   UNL     1      -0.016  10.469  20.807  0.00  0.00    +0.000 A 
ATOM      2  C   UNL     1       0.553   9.321  21.342  0.00  0.00    +0.000 A 
ATOM      3  N   UNL     1       1.256   8.780  20.310  0.00  0.00    +0.000 N 
ATOM      4  N   UNL     1       1.915   7.620  20.203  0.00  0.00    +0.000 NA
ATOM      5  C   UNL     1       2.334   7.550  18.964  0.00  0.00    +0.000 A 
ATOM      6  S   UNL     1       1.981   8.915  17.900  0.00  0.00    +0.000 S 
ATOM      7  C   UNL     1       1.154   9.610  19.248  0.00  0.00    +0.000 A 
ATOM      8  N   UNL     1       0.395  10.649  19.479  0.00  0.00    +0.000 NA
ENDROOT
BRANCH   5   9
ATOM      9  C   UNL     1       3.117   6.388  18.571  0.00  0.00    +0.000 A 
ATOM     10  C   UNL     1       2.882   5.186  19.234  0.00  0.00    +0.000 A 
ATOM     11  N   UNL     1       3.919   4.352  18.977  0.00  0.00    +0.000 N 
ATOM     12  C   UNL     1       4.485   4.723  17.789  0.00  0.00    +0.000 A 
ATOM     13  C   UNL     1       5.313   3.971  16.951  0.00  0.00    +0.000 A 
ATOM     14  C   UNL     1       5.767   4.581  15.788  0.00  0.00    +0.000 A 
ATOM     15  C   UNL     1       5.480   5.921  15.539  0.00  0.00    +0.000 A 
ATOM     16  C   UNL     1       4.676   6.678  16.419  0.00  0.00    +0.000 A 
ATOM     17  C   UNL     1       4.094   6.053  17.550  0.00  0.00    +0.000 A 
ATOM     18  H   UNL     1       4.142   3.516  19.498  0.00  0.00    +0.000 HD
ENDBRANCH   5   9
BRANCH   1  22
ATOM     19  C   UNL     1      -3.098  12.857  22.581  0.00  0.00    +0.000 A 
ATOM     20  C   UNL     1      -2.385  11.962  23.387  0.00  0.00    +0.000 A 
ATOM     21  C   UNL     1      -1.346  11.198  22.825  0.00  0.00    +0.000 A 
ATOM     22  C   UNL     1      -1.015  11.316  21.463  0.00  0.00    +0.000 A 
ATOM     23  C   UNL     1      -1.729  12.243  20.687  0.00  0.00    +0.000 A 
ATOM     24  C   UNL     1      -2.765  13.009  21.232  0.00  0.00    +0.000 A 
BRANCH  19  26
ATOM     25  O   UNL     1      -4.347  14.805  22.758  0.00  0.00    +0.000 OA
ATOM     26  N   UNL     1      -4.214  13.631  23.144  0.00  0.00    +0.000 N 
ATOM     27  O   UNL     1      -4.939  13.078  23.980  0.00  0.00    +0.000 OA
ENDBRANCH  19  26
ENDBRANCH   1  22
TORSDOF 3
ENDMDL
MODEL 8
REMARK VINA RESULT:      -7.9      4.862     10.095
REMARK  Name = 
REMARK  3 active torsions:
REMARK  status: ('A' for Active; 'I' for Inactive)
REMARK    1  A    between atoms: N_2  and  C_4
REMARK    2  A    between atoms: C_7  and  C_8
REMARK    3  A    between atoms: C_12  and  C_13
REMARK                            x       y       z     vdW  Elec       q    Type
REMARK                         _______ _______ _______ _____ _____    ______ ____
ROOT
ATOM      1  C   UNL     1       0.535   9.726  20.529  0.00  0.00    +0.000 A 
ATOM      2  C   UNL     1       1.023   8.500  20.961  0.00  0.00    +0.000 A 
ATOM      3  N   UNL     1       1.751   8.037  19.909  0.00  0.00    +0.000 N 
ATOM      4  N   UNL     1       2.361   6.863  19.707  0.00  0.00    +0.000 NA
ATOM      5  C   UNL     1       2.838   6.903  18.488  0.00  0.00    +0.000 A 
ATOM      6  S   UNL     1       2.602   8.390  17.564  0.00  0.00    +0.000 S 
ATOM      7  C   UNL     1       1.741   8.979  18.940  0.00  0.00    +0.000 A 
ATOM      8  N   UNL     1       1.020  10.025  19.248  0.00  0.00    +0.000 NA
ENDROOT
BRANCH   5   9
ATOM      9  C   UNL     1       3.585   5.750  18.006  0.00  0.00    +0.000 A 
ATOM     10  C   UNL     1       3.324   4.512  18.588  0.00  0.00    +0.000 A 
ATOM     11  N   UNL     1       4.335   3.672  18.261  0.00  0.00    +0.000 N 
ATOM     12  C   UNL     1       4.899   4.109  17.096  0.00  0.00    +0.000 A 
ATOM     13  C   UNL     1       5.698   3.394  16.198  0.00  0.00    +0.000 A 
ATOM     14  C   UNL     1       6.157   4.071  15.075  0.00  0.00    +0.000 A 
ATOM     15  C   UNL     1       5.904   5.433  14.921  0.00  0.00    +0.000 A 
ATOM     16  C   UNL     1       5.130   6.148  15.861  0.00  0.00    +0.000 A 
ATOM     17  C   UNL     1       4.542   5.462  16.953  0.00  0.00    +0.000 A 
ATOM     18  H   UNL     1       4.541   2.796  18.721  0.00  0.00    +0.000 HD
ENDBRANCH   5   9
BRANCH   1  22
ATOM     19  C   UNL     1      -2.191  12.205  22.714  0.00  0.00    +0.000 A 
ATOM     20  C   UNL     1      -2.031  12.419  21.340  0.00  0.00    +0.000 A 
ATOM     21  C   UNL     1      -1.167  11.590  20.604  0.00  0.00    +0.000 A 
ATOM     22  C   UNL     1      -0.455  10.549  21.228  0.00  0.00    +0.000 A 
ATOM     23  C   UNL     1      -0.658  10.340  22.601  0.00  0.00    +0.000 A 
ATOM     24  C   UNL     1      -1.514  11.158  23.347  0.00  0.00    +0.000 A 
BRANCH  19  26
ATOM     25  O   UNL     1      -2.512  14.018  24.126  0.00  0.00    +0.000 OA
ATOM     26  N   UNL     1      -3.058  13.090  23.505  0.00  0.00    +0.000 N 
ATOM     27  O   UNL     1      -4.271  12.849  23.522  0.00  0.00    +0.000 OA
ENDBRANCH  19  26
ENDBRANCH   1  22
TORSDOF 3
ENDMDL
MODEL 9
REMARK VINA RESULT:      -7.9      5.003     10.146
REMARK  Name = 
REMARK  3 active torsions:
REMARK  status: ('A' for Active; 'I' for Inactive)
REMARK    1  A    between atoms: N_2  and  C_4
REMARK    2  A    between atoms: C_7  and  C_8
REMARK    3  A    between atoms: C_12  and  C_13
REMARK                            x       y       z     vdW  Elec       q    Type
REMARK                         _______ _______ _______ _____ _____    ______ ____
ROOT
ATOM      1  C   UNL     1       0.410  10.700  20.928  0.00  0.00    +0.000 A 
ATOM      2  C   UNL     1       0.862   9.463  21.370  0.00  0.00    +0.000 A 
ATOM      3  N   UNL     1       1.407   8.889  20.263  0.00  0.00    +0.000 N 
ATOM      4  N   UNL     1       1.899   7.661  20.058  0.00  0.00    +0.000 NA
ATOM      5  C   UNL     1       2.210   7.600  18.787  0.00  0.00    +0.000 A 
ATOM      6  S   UNL     1       1.960   9.049  17.810  0.00  0.00    +0.000 S 
ATOM      7  C   UNL     1       1.336   9.776  19.247  0.00  0.00    +0.000 A 
ATOM      8  N   UNL     1       0.739  10.892  19.579  0.00  0.00    +0.000 NA
ENDROOT
BRANCH   5   9
ATOM      9  C   UNL     1       2.801   6.367  18.286  0.00  0.00    +0.000 A 
ATOM     10  C   UNL     1       4.096   6.422  17.779  0.00  0.00    +0.000 A 
ATOM     11  N   UNL     1       4.319   5.291  17.067  0.00  0.00    +0.000 N 
ATOM     12  C   UNL     1       3.492   4.312  17.544  0.00  0.00    +0.000 A 
ATOM     13  C   UNL     1       3.610   2.927  17.391  0.00  0.00    +0.000 A 
ATOM     14  C   UNL     1       2.628   2.136  17.974  0.00  0.00    +0.000 A 
ATOM     15  C   UNL     1       1.527   2.723  18.595  0.00  0.00    +0.000 A 
ATOM     16  C   UNL     1       1.406   4.125  18.704  0.00  0.00    +0.000 A 
ATOM     17  C   UNL     1       2.448   4.959  18.229  0.00  0.00    +0.000 A 
ATOM     18  H   UNL     1       5.065   5.155  16.399  0.00  0.00    +0.000 HD
ENDBRANCH   5   9
BRANCH   1  22
ATOM     19  C   UNL     1      -1.916  13.342  23.370  0.00  0.00    +0.000 A 
ATOM     20  C   UNL     1      -1.032  13.887  22.431  0.00  0.00    +0.000 A 
ATOM     21  C   UNL     1      -0.289  13.032  21.598  0.00  0.00    +0.000 A 
ATOM     22  C   UNL     1      -0.417  11.634  21.697  0.00  0.00    +0.000 A 
ATOM     23  C   UNL     1      -1.331  11.117  22.627  0.00  0.00    +0.000 A 
ATOM     24  C   UNL     1      -2.077  11.957  23.463  0.00  0.00    +0.000 A 
BRANCH  19  26
ATOM     25  O   UNL     1      -2.016  14.867  25.116  0.00  0.00    +0.000 OA
ATOM     26  N   UNL     1      -2.667  14.222  24.276  0.00  0.00    +0.000 N 
ATOM     27  O   UNL     1      -3.899  14.254  24.164  0.00  0.00    +0.000 OA
ENDBRANCH  19  26
ENDBRANCH   1  22
TORSDOF 3
ENDMDL
