MODEL 1
REMARK VINA RESULT:      -8.0      0.000      0.000
REMARK  Name = 
REMARK  7 active torsions:
REMARK  status: ('A' for Active; 'I' for Inactive)
REMARK    1  A    between atoms: C_1  and  C_2
REMARK    2  A    between atoms: C_2  and  O_3
REMARK    3  A    between atoms: C_2  and  C_25
REMARK    4  A    between atoms: O_3  and  C_4
REMARK    5  A    between atoms: C_9  and  C_10
REMARK    6  A    between atoms: N_12  and  C_13
REMARK    7  A    between atoms: N_16  and  C_17
REMARK                            x       y       z     vdW  Elec       q    Type
REMARK                         _______ _______ _______ _____ _____    ______ ____
ROOT
ATOM      1  C   UNL     1       0.495  11.904  20.093  0.00  0.00    +0.000 A 
ATOM      2  C   UNL     1      -0.144  11.562  21.217  0.00  0.00    +0.000 A 
ATOM      3  N   UNL     1      -0.196  10.244  21.617  0.00  0.00    +0.000 N 
ATOM      4  C   UNL     1       0.382   9.203  20.913  0.00  0.00    +0.000 A 
ATOM      5  O   UNL     1       0.302   8.041  21.309  0.00  0.00    +0.000 OA
ATOM      6  C   UNL     1       1.099   9.572  19.667  0.00  0.00    +0.000 A 
ATOM      7  C   UNL     1       1.144  10.872  19.317  0.00  0.00    +0.000 A 
ATOM      8  H   UNL     1      -0.678   9.986  22.465  0.00  0.00    +0.000 HD
ENDROOT
BRANCH   6   9
ATOM      9  C   UNL     1       1.773   8.597  18.765  0.00  0.00    +0.000 C 
ATOM     10  O   UNL     1       1.914   8.853  17.574  0.00  0.00    +0.000 OA
ATOM     11  N   UNL     1       2.203   7.436  19.376  0.00  0.00    +0.000 N 
ATOM     12  H   UNL     1       2.014   7.291  20.367  0.00  0.00    +0.000 HD
BRANCH  11  13
ATOM     13  C   UNL     1       2.835   6.416  18.694  0.00  0.00    +0.000 A 
ATOM     14  C   UNL     1       2.305   5.345  17.945  0.00  0.00    +0.000 A 
ATOM     15  N   UNL     1       3.259   4.550  17.462  0.00  0.00    +0.000 NA
ATOM     16  N   UNL     1       4.400   5.096  17.907  0.00  0.00    +0.000 N 
ATOM     17  C   UNL     1       4.198   6.247  18.623  0.00  0.00    +0.000 A 
BRANCH  16  18
ATOM     18  C   UNL     1       5.680   4.437  17.657  0.00  0.00    +0.000 C 
ATOM     19  C   UNL     1       6.887   5.267  18.110  0.00  0.00    +0.000 C 
ATOM     20  C   UNL     1       7.218   6.397  17.135  0.00  0.00    +0.000 C 
ATOM     21  N   UNL     1       7.394   5.913  15.764  0.00  0.00    +0.000 NA
ATOM     22  C   UNL     1       6.214   5.187  15.284  0.00  0.00    +0.000 C 
ATOM     23  C   UNL     1       5.839   4.015  16.191  0.00  0.00    +0.000 C 
ATOM     24  H   UNL     1       8.214   5.319  15.708  0.00  0.00    +0.000 HD
ENDBRANCH  16  18
ENDBRANCH  11  13
ENDBRANCH   6   9
BRANCH   1  25
ATOM     25  O   UNL     1       0.616  13.146  19.528  0.00  0.00    +0.000 OA
BRANCH  25  27
ATOM     26  C   UNL     1       2.001  14.397  21.118  0.00  0.00    +0.000 C 
ATOM     27  C   UNL     1       1.809  13.920  19.671  0.00  0.00    +0.000 C 
BRANCH  27  28
ATOM     28  C   UNL     1       1.785  15.161  18.771  0.00  0.00    +0.000 A 
ATOM     29  C   UNL     1       2.952  15.518  18.049  0.00  0.00    +0.000 A 
ATOM     30 CL   UNL     1       4.364  14.513  18.007  0.00  0.00    +0.000 Cl
ATOM     31  C   UNL     1       3.046  16.731  17.352  0.00  0.00    +0.000 A 
ATOM     32  C   UNL     1       1.974  17.611  17.335  0.00  0.00    +0.000 A 
ATOM     33  C   UNL     1       0.807  17.269  18.003  0.00  0.00    +0.000 A 
ATOM     34  F   UNL     1      -0.215  18.138  17.967  0.00  0.00    +0.000 F 
ATOM     35  C   UNL     1       0.702  16.069  18.725  0.00  0.00    +0.000 A 
ATOM     36 CL   UNL     1      -0.786  15.822  19.577  0.00  0.00    +0.000 Cl
ENDBRANCH  27  28
ENDBRANCH  25  27
ENDBRANCH   1  25
TORSDOF 6
ENDMDL
MODEL 2
REMARK VINA RESULT:      -7.9      3.995      5.806
REMARK  Name = 
REMARK  7 active torsions:
REMARK  status: ('A' for Active; 'I' for Inactive)
REMARK    1  A    between atoms: C_1  and  C_2
REMARK    2  A    between atoms: C_2  and  O_3
REMARK    3  A    between atoms: C_2  and  C_25
REMARK    4  A    between atoms: O_3  and  C_4
REMARK    5  A    between atoms: C_9  and  C_10
REMARK    6  A    between atoms: N_12  and  C_13
REMARK    7  A    between atoms: N_16  and  C_17
REMARK                            x       y       z     vdW  Elec       q    Type
REMARK                         _______ _______ _______ _____ _____    ______ ____
ROOT
ATOM      1  C   UNL     1      -1.184  11.883  19.576  0.00  0.00    +0.000 A 
ATOM      2  C   UNL     1      -0.571  12.649  18.666  0.00  0.00    +0.000 A 
ATOM      3  N   UNL     1       0.650  12.275  18.148  0.00  0.00    +0.000 N 
ATOM      4  C   UNL     1       1.322  11.122  18.515  0.00  0.00    +0.000 A 
ATOM      5  O   UNL     1       2.413  10.835  18.027  0.00  0.00    +0.000 OA
ATOM      6  C   UNL     1       0.648  10.262  19.519  0.00  0.00    +0.000 A 
ATOM      7  C   UNL     1      -0.554  10.651  19.991  0.00  0.00    +0.000 A 
ATOM      8  H   UNL     1       1.112  12.852  17.462  0.00  0.00    +0.000 HD
ENDROOT
BRANCH   6   9
ATOM      9  C   UNL     1       1.213   8.991  20.053  0.00  0.00    +0.000 C 
ATOM     10  O   UNL     1       1.100   8.717  21.243  0.00  0.00    +0.000 OA
ATOM     11  N   UNL     1       1.842   8.193  19.118  0.00  0.00    +0.000 N 
ATOM     12  H   UNL     1       1.920   8.516  18.154  0.00  0.00    +0.000 HD
BRANCH  11  13
ATOM     13  C   UNL     1       2.435   6.988  19.434  0.00  0.00    +0.000 A 
ATOM     14  C   UNL     1       3.715   6.484  19.124  0.00  0.00    +0.000 A 
ATOM     15  N   UNL     1       3.896   5.251  19.594  0.00  0.00    +0.000 NA
ATOM     16  N   UNL     1       2.734   4.952  20.193  0.00  0.00    +0.000 N 
ATOM     17  C   UNL     1       1.834   5.985  20.157  0.00  0.00    +0.000 A 
BRANCH  16  18
ATOM     18  C   UNL     1       2.514   3.621  20.753  0.00  0.00    +0.000 C 
ATOM     19  C   UNL     1       3.538   2.586  20.271  0.00  0.00    +0.000 C 
ATOM     20  C   UNL     1       3.251   2.095  18.852  0.00  0.00    +0.000 C 
ATOM     21  N   UNL     1       1.882   1.593  18.706  0.00  0.00    +0.000 NA
ATOM     22  C   UNL     1       0.886   2.600  19.084  0.00  0.00    +0.000 C 
ATOM     23  C   UNL     1       1.087   3.116  20.509  0.00  0.00    +0.000 C 
ATOM     24  H   UNL     1       1.759   0.755  19.264  0.00  0.00    +0.000 HD
ENDBRANCH  16  18
ENDBRANCH  11  13
ENDBRANCH   6   9
BRANCH   1  25
ATOM     25  O   UNL     1      -2.371  12.113  20.220  0.00  0.00    +0.000 OA
BRANCH  25  27
ATOM     26  C   UNL     1      -1.525  14.155  21.282  0.00  0.00    +0.000 C 
ATOM     27  C   UNL     1      -2.731  13.416  20.683  0.00  0.00    +0.000 C 
BRANCH  27  28
ATOM     28  C   UNL     1      -3.819  13.349  21.761  0.00  0.00    +0.000 A 
ATOM     29  C   UNL     1      -4.978  14.155  21.629  0.00  0.00    +0.000 A 
ATOM     30 CL   UNL     1      -5.301  15.095  20.210  0.00  0.00    +0.000 Cl
ATOM     31  C   UNL     1      -5.920  14.268  22.662  0.00  0.00    +0.000 A 
ATOM     32  C   UNL     1      -5.745  13.564  23.845  0.00  0.00    +0.000 A 
ATOM     33  C   UNL     1      -4.638  12.740  23.985  0.00  0.00    +0.000 A 
ATOM     34  F   UNL     1      -4.497  12.069  25.139  0.00  0.00    +0.000 F 
ATOM     35  C   UNL     1      -3.673  12.631  22.971  0.00  0.00    +0.000 A 
ATOM     36 CL   UNL     1      -2.305  11.631  23.326  0.00  0.00    +0.000 Cl
ENDBRANCH  27  28
ENDBRANCH  25  27
ENDBRANCH   1  25
TORSDOF 6
ENDMDL
MODEL 3
REMARK VINA RESULT:      -7.9      5.347      7.923
REMARK  Name = 
REMARK  7 active torsions:
REMARK  status: ('A' for Active; 'I' for Inactive)
REMARK    1  A    between atoms: C_1  and  C_2
REMARK    2  A    between atoms: C_2  and  O_3
REMARK    3  A    between atoms: C_2  and  C_25
REMARK    4  A    between atoms: O_3  and  C_4
REMARK    5  A    between atoms: C_9  and  C_10
REMARK    6  A    between atoms: N_12  and  C_13
REMARK    7  A    between atoms: N_16  and  C_17
REMARK                            x       y       z     vdW  Elec       q    Type
REMARK                         _______ _______ _______ _____ _____    ______ ____
ROOT
ATOM      1  C   UNL     1       1.451  14.400  19.576  0.00  0.00    +0.000 A 
ATOM      2  C   UNL     1       0.907  15.426  18.912  0.00  0.00    +0.000 A 
ATOM      3  N   UNL     1       1.709  16.366  18.302  0.00  0.00    +0.000 N 
ATOM      4  C   UNL     1       3.092  16.331  18.327  0.00  0.00    +0.000 A 
ATOM      5  O   UNL     1       3.764  17.198  17.770  0.00  0.00    +0.000 OA
ATOM      6  C   UNL     1       3.706  15.193  19.055  0.00  0.00    +0.000 A 
ATOM      7  C   UNL     1       2.890  14.285  19.625  0.00  0.00    +0.000 A 
ATOM      8  H   UNL     1       1.299  17.140  17.801  0.00  0.00    +0.000 HD
ENDROOT
BRANCH   6   9
ATOM      9  C   UNL     1       5.173  14.986  19.208  0.00  0.00    +0.000 C 
ATOM     10  O   UNL     1       5.669  14.879  20.324  0.00  0.00    +0.000 OA
ATOM     11  N   UNL     1       5.882  14.927  18.023  0.00  0.00    +0.000 N 
ATOM     12  H   UNL     1       5.392  15.060  17.139  0.00  0.00    +0.000 HD
BRANCH  11  13
ATOM     13  C   UNL     1       7.250  14.754  17.973  0.00  0.00    +0.000 A 
ATOM     14  C   UNL     1       8.298  15.696  18.022  0.00  0.00    +0.000 A 
ATOM     15  N   UNL     1       9.495  15.121  17.913  0.00  0.00    +0.000 NA
ATOM     16  N   UNL     1       9.222  13.814  17.780  0.00  0.00    +0.000 N 
ATOM     17  C   UNL     1       7.882  13.539  17.849  0.00  0.00    +0.000 A 
BRANCH  16  18
ATOM     18  C   UNL     1      10.299  12.859  17.534  0.00  0.00    +0.000 C 
ATOM     19  C   UNL     1      10.001  11.457  18.081  0.00  0.00    +0.000 C 
ATOM     20  C   UNL     1      10.194  11.367  19.595  0.00  0.00    +0.000 C 
ATOM     21  N   UNL     1      11.521  11.827  20.012  0.00  0.00    +0.000 NA
ATOM     22  C   UNL     1      11.791  13.197  19.569  0.00  0.00    +0.000 C 
ATOM     23  C   UNL     1      11.652  13.360  18.055  0.00  0.00    +0.000 C 
ATOM     24  H   UNL     1      12.233  11.199  19.656  0.00  0.00    +0.000 HD
ENDBRANCH  16  18
ENDBRANCH  11  13
ENDBRANCH   6   9
BRANCH   1  25
ATOM     25  O   UNL     1       0.817  13.403  20.267  0.00  0.00    +0.000 OA
BRANCH  25  27
ATOM     26  C   UNL     1      -1.263  12.412  19.427  0.00  0.00    +0.000 C 
ATOM     27  C   UNL     1       0.256  12.269  19.601  0.00  0.00    +0.000 C 
BRANCH  27  28
ATOM     28  C   UNL     1       0.517  10.975  20.379  0.00  0.00    +0.000 A 
ATOM     29  C   UNL     1       1.111   9.872  19.714  0.00  0.00    +0.000 A 
ATOM     30 CL   UNL     1       1.714   9.978  18.092  0.00  0.00    +0.000 Cl
ATOM     31  C   UNL     1       1.213   8.611  20.320  0.00  0.00    +0.000 A 
ATOM     32  C   UNL     1       0.747   8.420  21.613  0.00  0.00    +0.000 A 
ATOM     33  C   UNL     1       0.194   9.492  22.299  0.00  0.00    +0.000 A 
ATOM     34  F   UNL     1      -0.245   9.278  23.550  0.00  0.00    +0.000 F 
ATOM     35  C   UNL     1       0.064  10.755  21.701  0.00  0.00    +0.000 A 
ATOM     36 CL   UNL     1      -0.723  11.970  22.652  0.00  0.00    +0.000 Cl
ENDBRANCH  27  28
ENDBRANCH  25  27
ENDBRANCH   1  25
TORSDOF 6
ENDMDL
MODEL 4
REMARK VINA RESULT:      -7.8      2.633      3.856
REMARK  Name = 
REMARK  7 active torsions:
REMARK  status: ('A' for Active; 'I' for Inactive)
REMARK    1  A    between atoms: C_1  and  C_2
REMARK    2  A    between atoms: C_2  and  O_3
REMARK    3  A    between atoms: C_2  and  C_25
REMARK    4  A    between atoms: O_3  and  C_4
REMARK    5  A    between atoms: C_9  and  C_10
REMARK    6  A    between atoms: N_12  and  C_13
REMARK    7  A    between atoms: N_16  and  C_17
REMARK                            x       y       z     vdW  Elec       q    Type
REMARK                         _______ _______ _______ _____ _____    ______ ____
ROOT
ATOM      1  C   UNL     1       0.298  11.157  20.707  0.00  0.00    +0.000 A 
ATOM      2  C   UNL     1      -0.192  10.671  21.853  0.00  0.00    +0.000 A 
ATOM      3  N   UNL     1      -0.028   9.341  22.175  0.00  0.00    +0.000 N 
ATOM      4  C   UNL     1       0.629   8.429  21.367  0.00  0.00    +0.000 A 
ATOM      5  O   UNL     1       0.744   7.250  21.698  0.00  0.00    +0.000 OA
ATOM      6  C   UNL     1       1.183   8.958  20.096  0.00  0.00    +0.000 A 
ATOM      7  C   UNL     1       1.018  10.268  19.824  0.00  0.00    +0.000 A 
ATOM      8  H   UNL     1      -0.398   8.975  23.039  0.00  0.00    +0.000 HD
ENDROOT
BRANCH   6   9
ATOM      9  C   UNL     1       1.908   8.136  19.089  0.00  0.00    +0.000 C 
ATOM     10  O   UNL     1       2.155   8.595  17.979  0.00  0.00    +0.000 OA
ATOM     11  N   UNL     1       2.260   6.869  19.512  0.00  0.00    +0.000 N 
ATOM     12  H   UNL     1       1.985   6.557  20.442  0.00  0.00    +0.000 HD
BRANCH  11  13
ATOM     13  C   UNL     1       2.924   5.965  18.709  0.00  0.00    +0.000 A 
ATOM     14  C   UNL     1       2.429   4.987  17.821  0.00  0.00    +0.000 A 
ATOM     15  N   UNL     1       3.408   4.288  17.248  0.00  0.00    +0.000 NA
ATOM     16  N   UNL     1       4.531   4.802  17.771  0.00  0.00    +0.000 N 
ATOM     17  C   UNL     1       4.292   5.844  18.629  0.00  0.00    +0.000 A 
BRANCH  16  18
ATOM     18  C   UNL     1       5.829   4.216  17.449  0.00  0.00    +0.000 C 
ATOM     19  C   UNL     1       7.013   5.056  17.947  0.00  0.00    +0.000 C 
ATOM     20  C   UNL     1       7.281   6.272  17.061  0.00  0.00    +0.000 C 
ATOM     21  N   UNL     1       7.449   5.905  15.653  0.00  0.00    +0.000 NA
ATOM     22  C   UNL     1       6.290   5.173  15.135  0.00  0.00    +0.000 C 
ATOM     23  C   UNL     1       5.978   3.918  15.952  0.00  0.00    +0.000 C 
ATOM     24  H   UNL     1       8.291   5.350  15.537  0.00  0.00    +0.000 HD
ENDBRANCH  16  18
ENDBRANCH  11  13
ENDBRANCH   6   9
BRANCH   1  25
ATOM     25  O   UNL     1       0.199  12.429  20.212  0.00  0.00    +0.000 OA
BRANCH  25  27
ATOM     26  C   UNL     1      -0.142  14.116  18.466  0.00  0.00    +0.000 C 
ATOM     27  C   UNL     1      -0.459  12.701  18.973  0.00  0.00    +0.000 C 
BRANCH  27  28
ATOM     28  C   UNL     1      -1.981  12.584  19.107  0.00  0.00    +0.000 A 
ATOM     29  C   UNL     1      -2.635  13.231  20.187  0.00  0.00    +0.000 A 
ATOM     30 CL   UNL     1      -1.805  14.294  21.276  0.00  0.00    +0.000 Cl
ATOM     31  C   UNL     1      -3.993  13.017  20.462  0.00  0.00    +0.000 A 
ATOM     32  C   UNL     1      -4.744  12.172  19.656  0.00  0.00    +0.000 A 
ATOM     33  C   UNL     1      -4.136  11.556  18.571  0.00  0.00    +0.000 A 
ATOM     34  F   UNL     1      -4.888  10.747  17.807  0.00  0.00    +0.000 F 
ATOM     35  C   UNL     1      -2.773  11.741  18.294  0.00  0.00    +0.000 A 
ATOM     36 CL   UNL     1      -2.139  10.838  16.958  0.00  0.00    +0.000 Cl
ENDBRANCH  27  28
ENDBRANCH  25  27
ENDBRANCH   1  25
TORSDOF 6
ENDMDL
MODEL 5
REMARK VINA RESULT:      -7.7      0.755      1.745
REMARK  Name = 
REMARK  7 active torsions:
REMARK  status: ('A' for Active; 'I' for Inactive)
REMARK    1  A    between atoms: C_1  and  C_2
REMARK    2  A    between atoms: C_2  and  O_3
REMARK    3  A    between atoms: C_2  and  C_25
REMARK    4  A    between atoms: O_3  and  C_4
REMARK    5  A    between atoms: C_9  and  C_10
REMARK    6  A    between atoms: N_12  and  C_13
REMARK    7  A    between atoms: N_16  and  C_17
REMARK                            x       y       z     vdW  Elec       q    Type
REMARK                         _______ _______ _______ _____ _____    ______ ____
ROOT
ATOM      1  C   UNL     1       0.666  11.763  19.842  0.00  0.00    +0.000 A 
ATOM      2  C   UNL     1       0.128  11.473  21.032  0.00  0.00    +0.000 A 
ATOM      3  N   UNL     1       0.147  10.181  21.511  0.00  0.00    +0.000 N 
ATOM      4  C   UNL     1       0.698   9.113  20.824  0.00  0.00    +0.000 A 
ATOM      5  O   UNL     1       0.685   7.976  21.293  0.00  0.00    +0.000 OA
ATOM      6  C   UNL     1       1.304   9.424  19.505  0.00  0.00    +0.000 A 
ATOM      7  C   UNL     1       1.282  10.702  19.078  0.00  0.00    +0.000 A 
ATOM      8  H   UNL     1      -0.259   9.962  22.408  0.00  0.00    +0.000 HD
ENDROOT
BRANCH   6   9
ATOM      9  C   UNL     1       1.933   8.414  18.610  0.00  0.00    +0.000 C 
ATOM     10  O   UNL     1       2.117   8.669  17.425  0.00  0.00    +0.000 OA
ATOM     11  N   UNL     1       2.273   7.223  19.221  0.00  0.00    +0.000 N 
ATOM     12  H   UNL     1       2.053   7.084  20.206  0.00  0.00    +0.000 HD
BRANCH  11  13
ATOM     13  C   UNL     1       2.853   6.169  18.544  0.00  0.00    +0.000 A 
ATOM     14  C   UNL     1       2.274   5.024  17.958  0.00  0.00    +0.000 A 
ATOM     15  N   UNL     1       3.190   4.220  17.419  0.00  0.00    +0.000 NA
ATOM     16  N   UNL     1       4.356   4.835  17.666  0.00  0.00    +0.000 N 
ATOM     17  C   UNL     1       4.201   6.035  18.309  0.00  0.00    +0.000 A 
BRANCH  16  18
ATOM     18  C   UNL     1       5.618   4.195  17.303  0.00  0.00    +0.000 C 
ATOM     19  C   UNL     1       6.849   4.947  17.823  0.00  0.00    +0.000 C 
ATOM     20  C   UNL     1       7.175   6.185  16.988  0.00  0.00    +0.000 C 
ATOM     21  N   UNL     1       7.309   5.872  15.563  0.00  0.00    +0.000 NA
ATOM     22  C   UNL     1       6.107   5.227  15.027  0.00  0.00    +0.000 C 
ATOM     23  C   UNL     1       5.735   3.956  15.792  0.00  0.00    +0.000 C 
ATOM     24  H   UNL     1       8.118   5.279  15.413  0.00  0.00    +0.000 HD
ENDBRANCH  16  18
ENDBRANCH  11  13
ENDBRANCH   6   9
BRANCH   1  25
ATOM     25  O   UNL     1       0.706  12.970  19.198  0.00  0.00    +0.000 OA
BRANCH  25  27
ATOM     26  C   UNL     1       2.184  13.998  20.862  0.00  0.00    +0.000 C 
ATOM     27  C   UNL     1       1.791  13.882  19.382  0.00  0.00    +0.000 C 
BRANCH  27  28
ATOM     28  C   UNL     1       1.436  15.287  18.883  0.00  0.00    +0.000 A 
ATOM     29  C   UNL     1       0.161  15.830  19.185  0.00  0.00    +0.000 A 
ATOM     30 CL   UNL     1      -0.961  15.039  20.244  0.00  0.00    +0.000 Cl
ATOM     31  C   UNL     1      -0.285  17.030  18.611  0.00  0.00    +0.000 A 
ATOM     32  C   UNL     1       0.534  17.733  17.739  0.00  0.00    +0.000 A 
ATOM     33  C   UNL     1       1.800  17.241  17.455  0.00  0.00    +0.000 A 
ATOM     34  F   UNL     1       2.572  17.944  16.611  0.00  0.00    +0.000 F 
ATOM     35  C   UNL     1       2.255  16.031  18.003  0.00  0.00    +0.000 A 
ATOM     36 CL   UNL     1       3.823  15.505  17.488  0.00  0.00    +0.000 Cl
ENDBRANCH  27  28
ENDBRANCH  25  27
ENDBRANCH   1  25
TORSDOF 6
ENDMDL
MODEL 6
REMARK VINA RESULT:      -7.6      3.922      5.741
REMARK  Name = 
REMARK  7 active torsions:
REMARK  status: ('A' for Active; 'I' for Inactive)
REMARK    1  A    between atoms: C_1  and  C_2
REMARK    2  A    between atoms: C_2  and  O_3
REMARK    3  A    between atoms: C_2  and  C_25
REMARK    4  A    between atoms: O_3  and  C_4
REMARK    5  A    between atoms: C_9  and  C_10
REMARK    6  A    between atoms: N_12  and  C_13
REMARK    7  A    between atoms: N_16  and  C_17
REMARK                            x       y       z     vdW  Elec       q    Type
REMARK                         _______ _______ _______ _____ _____    ______ ____
ROOT
ATOM      1  C   UNL     1      -0.709  11.841  20.201  0.00  0.00    +0.000 A 
ATOM      2  C   UNL     1      -0.382  12.449  19.055  0.00  0.00    +0.000 A 
ATOM      3  N   UNL     1       0.564  11.896  18.217  0.00  0.00    +0.000 N 
ATOM      4  C   UNL     1       1.232  10.714  18.484  0.00  0.00    +0.000 A 
ATOM      5  O   UNL     1       2.072  10.265  17.705  0.00  0.00    +0.000 OA
ATOM      6  C   UNL     1       0.872  10.029  19.750  0.00  0.00    +0.000 A 
ATOM      7  C   UNL     1      -0.069  10.590  20.535  0.00  0.00    +0.000 A 
ATOM      8  H   UNL     1       0.811  12.354  17.353  0.00  0.00    +0.000 HD
ENDROOT
BRANCH   6   9
ATOM      9  C   UNL     1       1.487   8.757  20.221  0.00  0.00    +0.000 C 
ATOM     10  O   UNL     1       1.521   8.494  21.419  0.00  0.00    +0.000 OA
ATOM     11  N   UNL     1       1.987   7.944  19.223  0.00  0.00    +0.000 N 
ATOM     12  H   UNL     1       1.947   8.257  18.254  0.00  0.00    +0.000 HD
BRANCH  11  13
ATOM     13  C   UNL     1       2.603   6.735  19.475  0.00  0.00    +0.000 A 
ATOM     14  C   UNL     1       3.903   6.284  19.164  0.00  0.00    +0.000 A 
ATOM     15  N   UNL     1       4.104   5.027  19.557  0.00  0.00    +0.000 NA
ATOM     16  N   UNL     1       2.937   4.662  20.108  0.00  0.00    +0.000 N 
ATOM     17  C   UNL     1       2.012   5.673  20.116  0.00  0.00    +0.000 A 
BRANCH  16  18
ATOM     18  C   UNL     1       2.739   3.292  20.575  0.00  0.00    +0.000 C 
ATOM     19  C   UNL     1       3.671   2.281  19.896  0.00  0.00    +0.000 C 
ATOM     20  C   UNL     1       3.215   1.922  18.482  0.00  0.00    +0.000 C 
ATOM     21  N   UNL     1       1.823   1.464  18.448  0.00  0.00    +0.000 NA
ATOM     22  C   UNL     1       0.906   2.455  19.017  0.00  0.00    +0.000 C 
ATOM     23  C   UNL     1       1.278   2.841  20.450  0.00  0.00    +0.000 C 
ATOM     24  H   UNL     1       1.736   0.584  18.944  0.00  0.00    +0.000 HD
ENDBRANCH  16  18
ENDBRANCH  11  13
ENDBRANCH   6   9
BRANCH   1  25
ATOM     25  O   UNL     1      -1.589  12.259  21.163  0.00  0.00    +0.000 OA
BRANCH  25  27
ATOM     26  C   UNL     1      -2.221  14.576  20.671  0.00  0.00    +0.000 C 
ATOM     27  C   UNL     1      -2.684  13.123  20.851  0.00  0.00    +0.000 C 
BRANCH  27  28
ATOM     28  C   UNL     1      -3.745  13.106  21.957  0.00  0.00    +0.000 A 
ATOM     29  C   UNL     1      -3.339  13.207  23.312  0.00  0.00    +0.000 A 
ATOM     30 CL   UNL     1      -1.696  13.519  23.770  0.00  0.00    +0.000 Cl
ATOM     31  C   UNL     1      -4.242  13.022  24.369  0.00  0.00    +0.000 A 
ATOM     32  C   UNL     1      -5.578  12.754  24.107  0.00  0.00    +0.000 A 
ATOM     33  C   UNL     1      -6.008  12.686  22.790  0.00  0.00    +0.000 A 
ATOM     34  F   UNL     1      -7.307  12.429  22.566  0.00  0.00    +0.000 F 
ATOM     35  C   UNL     1      -5.115  12.847  21.719  0.00  0.00    +0.000 A 
ATOM     36 CL   UNL     1      -5.785  12.650  20.133  0.00  0.00    +0.000 Cl
ENDBRANCH  27  28
ENDBRANCH  25  27
ENDBRANCH   1  25
TORSDOF 6
ENDMDL
MODEL 7
REMARK VINA RESULT:      -7.6      2.368      3.469
REMARK  Name = 
REMARK  7 active torsions:
REMARK  status: ('A' for Active; 'I' for Inactive)
REMARK    1  A    between atoms: C_1  and  C_2
REMARK    2  A    between atoms: C_2  and  O_3
REMARK    3  A    between atoms: C_2  and  C_25
REMARK    4  A    between atoms: O_3  and  C_4
REMARK    5  A    between atoms: C_9  and  C_10
REMARK    6  A    between atoms: N_12  and  C_13
REMARK    7  A    between atoms: N_16  and  C_17
REMARK                            x       y       z     vdW  Elec       q    Type
REMARK                         _______ _______ _______ _____ _____    ______ ____
ROOT
ATOM      1  C   UNL     1       0.674  12.407  19.702  0.00  0.00    +0.000 A 
ATOM      2  C   UNL     1      -0.497  12.630  19.095  0.00  0.00    +0.000 A 
ATOM      3  N   UNL     1      -1.047  11.674  18.268  0.00  0.00    +0.000 N 
ATOM      4  C   UNL     1      -0.455  10.452  18.002  0.00  0.00    +0.000 A 
ATOM      5  O   UNL     1      -0.984   9.635  17.252  0.00  0.00    +0.000 OA
ATOM      6  C   UNL     1       0.842  10.192  18.676  0.00  0.00    +0.000 A 
ATOM      7  C   UNL     1       1.340  11.143  19.491  0.00  0.00    +0.000 A 
ATOM      8  H   UNL     1      -1.930  11.842  17.809  0.00  0.00    +0.000 HD
ENDROOT
BRANCH   6   9
ATOM      9  C   UNL     1       1.641   8.947  18.509  0.00  0.00    +0.000 C 
ATOM     10  O   UNL     1       2.210   8.716  17.447  0.00  0.00    +0.000 OA
ATOM     11  N   UNL     1       1.678   8.122  19.616  0.00  0.00    +0.000 N 
ATOM     12  H   UNL     1       1.147   8.377  20.448  0.00  0.00    +0.000 HD
BRANCH  11  13
ATOM     13  C   UNL     1       2.358   6.922  19.639  0.00  0.00    +0.000 A 
ATOM     14  C   UNL     1       3.554   6.532  19.003  0.00  0.00    +0.000 A 
ATOM     15  N   UNL     1       3.867   5.261  19.257  0.00  0.00    +0.000 NA
ATOM     16  N   UNL     1       2.870   4.828  20.043  0.00  0.00    +0.000 N 
ATOM     17  C   UNL     1       1.955   5.806  20.334  0.00  0.00    +0.000 A 
BRANCH  16  18
ATOM     18  C   UNL     1       2.813   3.428  20.456  0.00  0.00    +0.000 C 
ATOM     19  C   UNL     1       3.736   2.517  19.637  0.00  0.00    +0.000 C 
ATOM     20  C   UNL     1       3.161   2.190  18.259  0.00  0.00    +0.000 C 
ATOM     21  N   UNL     1       1.808   1.636  18.341  0.00  0.00    +0.000 NA
ATOM     22  C   UNL     1       0.890   2.532  19.049  0.00  0.00    +0.000 C 
ATOM     23  C   UNL     1       1.381   2.879  20.455  0.00  0.00    +0.000 C 
ATOM     24  H   UNL     1       1.831   0.730  18.797  0.00  0.00    +0.000 HD
ENDBRANCH  16  18
ENDBRANCH  11  13
ENDBRANCH   6   9
BRANCH   1  25
ATOM     25  O   UNL     1       1.380  13.248  20.520  0.00  0.00    +0.000 OA
BRANCH  25  27
ATOM     26  C   UNL     1       3.552  14.173  21.181  0.00  0.00    +0.000 C 
ATOM     27  C   UNL     1       2.533  13.952  20.054  0.00  0.00    +0.000 C 
BRANCH  27  28
ATOM     28  C   UNL     1       2.161  15.326  19.486  0.00  0.00    +0.000 A 
ATOM     29  C   UNL     1       1.115  16.068  20.092  0.00  0.00    +0.000 A 
ATOM     30 CL   UNL     1       0.344  15.562  21.560  0.00  0.00    +0.000 Cl
ATOM     31  C   UNL     1       0.614  17.245  19.515  0.00  0.00    +0.000 A 
ATOM     32  C   UNL     1       1.156  17.727  18.332  0.00  0.00    +0.000 A 
ATOM     33  C   UNL     1       2.205  17.039  17.738  0.00  0.00    +0.000 A 
ATOM     34  F   UNL     1       2.711  17.531  16.596  0.00  0.00    +0.000 F 
ATOM     35  C   UNL     1       2.704  15.848  18.289  0.00  0.00    +0.000 A 
ATOM     36 CL   UNL     1       3.956  15.059  17.389  0.00  0.00    +0.000 Cl
ENDBRANCH  27  28
ENDBRANCH  25  27
ENDBRANCH   1  25
TORSDOF 6
ENDMDL
MODEL 8
REMARK VINA RESULT:      -7.6      3.773      5.659
REMARK  Name = 
REMARK  7 active torsions:
REMARK  status: ('A' for Active; 'I' for Inactive)
REMARK    1  A    between atoms: C_1  and  C_2
REMARK    2  A    between atoms: C_2  and  O_3
REMARK    3  A    between atoms: C_2  and  C_25
REMARK    4  A    between atoms: O_3  and  C_4
REMARK    5  A    between atoms: C_9  and  C_10
REMARK    6  A    between atoms: N_12  and  C_13
REMARK    7  A    between atoms: N_16  and  C_17
REMARK                            x       y       z     vdW  Elec       q    Type
REMARK                         _______ _______ _______ _____ _____    ______ ____
ROOT
ATOM      1  C   UNL     1      -0.339  11.981  20.151  0.00  0.00    +0.000 A 
ATOM      2  C   UNL     1      -0.071  12.484  18.941  0.00  0.00    +0.000 A 
ATOM      3  N   UNL     1       0.734  11.794  18.060  0.00  0.00    +0.000 N 
ATOM      4  C   UNL     1       1.314  10.570  18.345  0.00  0.00    +0.000 A 
ATOM      5  O   UNL     1       2.030   9.997  17.525  0.00  0.00    +0.000 OA
ATOM      6  C   UNL     1       1.018   9.999  19.682  0.00  0.00    +0.000 A 
ATOM      7  C   UNL     1       0.214  10.695  20.510  0.00  0.00    +0.000 A 
ATOM      8  H   UNL     1       0.936  12.174  17.148  0.00  0.00    +0.000 HD
ENDROOT
BRANCH   6   9
ATOM      9  C   UNL     1       1.558   8.704  20.181  0.00  0.00    +0.000 C 
ATOM     10  O   UNL     1       1.469   8.415  21.369  0.00  0.00    +0.000 OA
ATOM     11  N   UNL     1       2.138   7.902  19.217  0.00  0.00    +0.000 N 
ATOM     12  H   UNL     1       2.199   8.237  18.257  0.00  0.00    +0.000 HD
BRANCH  11  13
ATOM     13  C   UNL     1       2.701   6.674  19.499  0.00  0.00    +0.000 A 
ATOM     14  C   UNL     1       3.999   6.181  19.254  0.00  0.00    +0.000 A 
ATOM     15  N   UNL     1       4.141   4.919  19.657  0.00  0.00    +0.000 NA
ATOM     16  N   UNL     1       2.936   4.593  20.148  0.00  0.00    +0.000 N 
ATOM     17  C   UNL     1       2.045   5.633  20.111  0.00  0.00    +0.000 A 
BRANCH  16  18
ATOM     18  C   UNL     1       2.671   3.230  20.605  0.00  0.00    +0.000 C 
ATOM     19  C   UNL     1       3.577   2.184  19.944  0.00  0.00    +0.000 C 
ATOM     20  C   UNL     1       3.141   1.849  18.518  0.00  0.00    +0.000 C 
ATOM     21  N   UNL     1       1.734   1.448  18.449  0.00  0.00    +0.000 NA
ATOM     22  C   UNL     1       0.844   2.474  19.001  0.00  0.00    +0.000 C 
ATOM     23  C   UNL     1       1.197   2.839  20.443  0.00  0.00    +0.000 C 
ATOM     24  H   UNL     1       1.599   0.570  18.939  0.00  0.00    +0.000 HD
ENDBRANCH  16  18
ENDBRANCH  11  13
ENDBRANCH   6   9
BRANCH   1  25
ATOM     25  O   UNL     1      -1.080  12.538  21.159  0.00  0.00    +0.000 OA
BRANCH  25  27
ATOM     26  C   UNL     1      -1.996  14.753  20.645  0.00  0.00    +0.000 C 
ATOM     27  C   UNL     1      -2.281  13.264  20.891  0.00  0.00    +0.000 C 
BRANCH  27  28
ATOM     28  C   UNL     1      -3.269  13.166  22.058  0.00  0.00    +0.000 A 
ATOM     29  C   UNL     1      -4.626  12.846  21.795  0.00  0.00    +0.000 A 
ATOM     30 CL   UNL     1      -5.186  12.393  20.218  0.00  0.00    +0.000 Cl
ATOM     31  C   UNL     1      -5.608  12.913  22.794  0.00  0.00    +0.000 A 
ATOM     32  C   UNL     1      -5.263  13.279  24.087  0.00  0.00    +0.000 A 
ATOM     33  C   UNL     1      -3.936  13.562  24.380  0.00  0.00    +0.000 A 
ATOM     34  F   UNL     1      -3.631  13.909  25.640  0.00  0.00    +0.000 F 
ATOM     35  C   UNL     1      -2.943  13.521  23.388  0.00  0.00    +0.000 A 
ATOM     36 CL   UNL     1      -1.350  13.982  23.886  0.00  0.00    +0.000 Cl
ENDBRANCH  27  28
ENDBRANCH  25  27
ENDBRANCH   1  25
TORSDOF 6
ENDMDL
MODEL 9
REMARK VINA RESULT:      -7.5      1.130      2.041
REMARK  Name = 
REMARK  7 active torsions:
REMARK  status: ('A' for Active; 'I' for Inactive)
REMARK    1  A    between atoms: C_1  and  C_2
REMARK    2  A    between atoms: C_2  and  O_3
REMARK    3  A    between atoms: C_2  and  C_25
REMARK    4  A    between atoms: O_3  and  C_4
REMARK    5  A    between atoms: C_9  and  C_10
REMARK    6  A    between atoms: N_12  and  C_13
REMARK    7  A    between atoms: N_16  and  C_17
REMARK                            x       y       z     vdW  Elec       q    Type
REMARK                         _______ _______ _______ _____ _____    ______ ____
ROOT
ATOM      1  C   UNL     1       0.573  11.769  20.611  0.00  0.00    +0.000 A 
ATOM      2  C   UNL     1      -0.250  11.447  21.616  0.00  0.00    +0.000 A 
ATOM      3  N   UNL     1      -0.494  10.126  21.922  0.00  0.00    +0.000 N 
ATOM      4  C   UNL     1       0.066   9.061  21.237  0.00  0.00    +0.000 A 
ATOM      5  O   UNL     1      -0.189   7.898  21.546  0.00  0.00    +0.000 OA
ATOM      6  C   UNL     1       0.985   9.407  20.125  0.00  0.00    +0.000 A 
ATOM      7  C   UNL     1       1.213  10.710  19.866  0.00  0.00    +0.000 A 
ATOM      8  H   UNL     1      -1.114   9.883  22.679  0.00  0.00    +0.000 HD
ENDROOT
BRANCH   6   9
ATOM      9  C   UNL     1       1.673   8.407  19.262  0.00  0.00    +0.000 C 
ATOM     10  O   UNL     1       1.748   8.585  18.051  0.00  0.00    +0.000 OA
ATOM     11  N   UNL     1       2.195   7.317  19.931  0.00  0.00    +0.000 N 
ATOM     12  H   UNL     1       2.056   7.234  20.937  0.00  0.00    +0.000 HD
BRANCH  11  13
ATOM     13  C   UNL     1       2.853   6.287  19.292  0.00  0.00    +0.000 A 
ATOM     14  C   UNL     1       2.365   5.079  18.752  0.00  0.00    +0.000 A 
ATOM     15  N   UNL     1       3.339   4.328  18.240  0.00  0.00    +0.000 NA
ATOM     16  N   UNL     1       4.455   5.041  18.459  0.00  0.00    +0.000 N 
ATOM     17  C   UNL     1       4.207   6.248  19.058  0.00  0.00    +0.000 A 
BRANCH  16  18
ATOM     18  C   UNL     1       5.762   4.487  18.116  0.00  0.00    +0.000 C 
ATOM     19  C   UNL     1       6.932   5.362  18.583  0.00  0.00    +0.000 C 
ATOM     20  C   UNL     1       7.150   6.577  17.682  0.00  0.00    +0.000 C 
ATOM     21  N   UNL     1       7.300   6.203  16.274  0.00  0.00    +0.000 NA
ATOM     22  C   UNL     1       6.151   5.436  15.785  0.00  0.00    +0.000 C 
ATOM     23  C   UNL     1       5.888   4.180  16.618  0.00  0.00    +0.000 C 
ATOM     24  H   UNL     1       8.154   5.670  16.146  0.00  0.00    +0.000 HD
ENDBRANCH  16  18
ENDBRANCH  11  13
ENDBRANCH   6   9
BRANCH   1  25
ATOM     25  O   UNL     1       0.900  13.015  20.147  0.00  0.00    +0.000 OA
BRANCH  25  27
ATOM     26  C   UNL     1      -0.605  13.237  18.225  0.00  0.00    +0.000 C 
ATOM     27  C   UNL     1      -0.068  13.860  19.522  0.00  0.00    +0.000 C 
BRANCH  27  28
ATOM     28  C   UNL     1       0.524  15.229  19.171  0.00  0.00    +0.000 A 
ATOM     29  C   UNL     1      -0.259  16.395  19.368  0.00  0.00    +0.000 A 
ATOM     30 CL   UNL     1      -1.806  16.357  20.149  0.00  0.00    +0.000 Cl
ATOM     31  C   UNL     1       0.159  17.652  18.905  0.00  0.00    +0.000 A 
ATOM     32  C   UNL     1       1.377  17.786  18.254  0.00  0.00    +0.000 A 
ATOM     33  C   UNL     1       2.178  16.666  18.081  0.00  0.00    +0.000 A 
ATOM     34  F   UNL     1       3.353  16.827  17.451  0.00  0.00    +0.000 F 
ATOM     35  C   UNL     1       1.767  15.397  18.518  0.00  0.00    +0.000 A 
ATOM     36 CL   UNL     1       2.837  14.084  18.155  0.00  0.00    +0.000 Cl
ENDBRANCH  27  28
ENDBRANCH  25  27
ENDBRANCH   1  25
TORSDOF 6
ENDMDL
