MODEL 1
REMARK VINA RESULT:      -6.4      0.000      0.000
REMARK  Name = 
REMARK  12 active torsions:
REMARK  status: ('A' for Active; 'I' for Inactive)
REMARK    1  A    between atoms: C_1  and  O_2
REMARK    2  A    between atoms: O_2  and  C_3
REMARK    3  A    between atoms: C_6  and  C_7
REMARK    4  A    between atoms: C_11  and  C_12
REMARK    5  A    between atoms: C_14  and  O_15
REMARK    6  A    between atoms: O_15  and  C_16
REMARK    7  A    between atoms: C_17  and  O_18
REMARK    8  A    between atoms: O_18  and  C_19
REMARK    9  A    between atoms: C_20  and  O_21
REMARK   10  A    between atoms: O_21  and  C_22
REMARK   11  A    between atoms: C_24  and  O_25
REMARK   12  A    between atoms: O_25  and  C_26
REMARK                            x       y       z     vdW  Elec       q    Type
REMARK                         _______ _______ _______ _____ _____    ______ ____
ROOT
ATOM      1  C   UNL     1       3.749   3.682  19.510  0.00  0.00    +0.000 A 
ATOM      2  C   UNL     1       3.842   2.450  20.138  0.00  0.00    +0.000 A 
ATOM      3  S   UNL     1       2.827   2.289  21.499  0.00  0.00    +0.000 S 
ATOM      4  C   UNL     1       2.218   3.864  21.292  0.00  0.00    +0.000 A 
ATOM      5  C   UNL     1       2.766   4.521  20.203  0.00  0.00    +0.000 A 
ENDROOT
BRANCH   1   9
ATOM      6  C   UNL     1       6.262   4.276  16.063  0.00  0.00    +0.000 A 
ATOM      7  C   UNL     1       4.942   3.856  15.926  0.00  0.00    +0.000 A 
ATOM      8  C   UNL     1       4.131   3.691  17.050  0.00  0.00    +0.000 A 
ATOM      9  C   UNL     1       4.608   3.989  18.344  0.00  0.00    +0.000 A 
ATOM     10  C   UNL     1       5.906   4.540  18.457  0.00  0.00    +0.000 A 
ATOM     11  C   UNL     1       6.737   4.623  17.329  0.00  0.00    +0.000 A 
BRANCH   6  13
ATOM     12  C   UNL     1       6.280   3.954  13.703  0.00  0.00    +0.000 C 
ATOM     13  O   UNL     1       6.967   4.331  14.891  0.00  0.00    +0.000 OA
ENDBRANCH   6  13
BRANCH  10  14
ATOM     14  O   UNL     1       6.277   4.990  19.698  0.00  0.00    +0.000 OA
ATOM     15  C   UNL     1       7.529   5.632  19.860  0.00  0.00    +0.000 C 
ENDBRANCH  10  14
ENDBRANCH   1   9
BRANCH   5  16
ATOM     16  C   UNL     1       2.300   5.876  19.864  0.00  0.00    +0.000 A 
ATOM     17  C   UNL     1       1.551   6.611  20.775  0.00  0.00    +0.000 A 
ATOM     18  C   UNL     1       1.355   7.986  20.585  0.00  0.00    +0.000 A 
ATOM     19  C   UNL     1       1.806   8.604  19.394  0.00  0.00    +0.000 A 
ATOM     20  C   UNL     1       2.443   7.835  18.403  0.00  0.00    +0.000 A 
ATOM     21  C   UNL     1       2.716   6.482  18.669  0.00  0.00    +0.000 A 
BRANCH  18  22
ATOM     22  O   UNL     1       0.828   8.816  21.546  0.00  0.00    +0.000 OA
ATOM     23  C   UNL     1      -0.502   8.573  21.988  0.00  0.00    +0.000 C 
ENDBRANCH  18  22
BRANCH  19  24
ATOM     24  O   UNL     1       1.531   9.954  19.305  0.00  0.00    +0.000 OA
ATOM     25  C   UNL     1       0.357  10.353  18.618  0.00  0.00    +0.000 C 
ENDBRANCH  19  24
BRANCH  20  26
ATOM     26  O   UNL     1       2.792   8.432  17.223  0.00  0.00    +0.000 OA
ATOM     27  C   UNL     1       3.820   7.829  16.442  0.00  0.00    +0.000 C 
ENDBRANCH  20  26
ENDBRANCH   5  16
TORSDOF 7
ENDMDL
MODEL 2
REMARK VINA RESULT:      -6.3      4.656      8.235
REMARK  Name = 
REMARK  12 active torsions:
REMARK  status: ('A' for Active; 'I' for Inactive)
REMARK    1  A    between atoms: C_1  and  O_2
REMARK    2  A    between atoms: O_2  and  C_3
REMARK    3  A    between atoms: C_6  and  C_7
REMARK    4  A    between atoms: C_11  and  C_12
REMARK    5  A    between atoms: C_14  and  O_15
REMARK    6  A    between atoms: O_15  and  C_16
REMARK    7  A    between atoms: C_17  and  O_18
REMARK    8  A    between atoms: O_18  and  C_19
REMARK    9  A    between atoms: C_20  and  O_21
REMARK   10  A    between atoms: O_21  and  C_22
REMARK   11  A    between atoms: C_24  and  O_25
REMARK   12  A    between atoms: O_25  and  C_26
REMARK                            x       y       z     vdW  Elec       q    Type
REMARK                         _______ _______ _______ _____ _____    ______ ____
ROOT
ATOM      1  C   UNL     1       0.811  12.186  19.477  0.00  0.00    +0.000 A 
ATOM      2  C   UNL     1       1.844  13.109  19.481  0.00  0.00    +0.000 A 
ATOM      3  S   UNL     1       1.396  14.652  18.910  0.00  0.00    +0.000 S 
ATOM      4  C   UNL     1      -0.206  14.141  18.643  0.00  0.00    +0.000 A 
ATOM      5  C   UNL     1      -0.418  12.815  18.982  0.00  0.00    +0.000 A 
ENDROOT
BRANCH   1   9
ATOM      6  C   UNL     1       1.325   8.033  20.497  0.00  0.00    +0.000 A 
ATOM      7  C   UNL     1       1.748   8.528  19.268  0.00  0.00    +0.000 A 
ATOM      8  C   UNL     1       1.597   9.882  18.959  0.00  0.00    +0.000 A 
ATOM      9  C   UNL     1       1.060  10.788  19.897  0.00  0.00    +0.000 A 
ATOM     10  C   UNL     1       0.757  10.297  21.189  0.00  0.00    +0.000 A 
ATOM     11  C   UNL     1       0.837   8.922  21.457  0.00  0.00    +0.000 A 
BRANCH   6  13
ATOM     12  C   UNL     1       2.429   6.034  19.820  0.00  0.00    +0.000 C 
ATOM     13  O   UNL     1       1.466   6.680  20.645  0.00  0.00    +0.000 OA
ENDBRANCH   6  13
BRANCH  10  14
ATOM     14  O   UNL     1       0.411  11.228  22.135  0.00  0.00    +0.000 OA
ATOM     15  C   UNL     1      -0.852  11.140  22.769  0.00  0.00    +0.000 C 
ENDBRANCH  10  14
ENDBRANCH   1   9
BRANCH   5  16
ATOM     16  C   UNL     1      -1.768  12.242  18.856  0.00  0.00    +0.000 A 
ATOM     17  C   UNL     1      -2.711  12.434  19.859  0.00  0.00    +0.000 A 
ATOM     18  C   UNL     1      -4.063  12.151  19.623  0.00  0.00    +0.000 A 
ATOM     19  C   UNL     1      -4.453  11.540  18.407  0.00  0.00    +0.000 A 
ATOM     20  C   UNL     1      -3.482  11.214  17.443  0.00  0.00    +0.000 A 
ATOM     21  C   UNL     1      -2.151  11.605  17.666  0.00  0.00    +0.000 A 
BRANCH  18  22
ATOM     22  O   UNL     1      -5.076  12.526  20.474  0.00  0.00    +0.000 OA
ATOM     23  C   UNL     1      -4.724  12.997  21.769  0.00  0.00    +0.000 C 
ENDBRANCH  18  22
BRANCH  19  24
ATOM     24  O   UNL     1      -5.806  11.281  18.299  0.00  0.00    +0.000 OA
ATOM     25  C   UNL     1      -6.609  12.205  17.586  0.00  0.00    +0.000 C 
ENDBRANCH  19  24
BRANCH  20  26
ATOM     26  O   UNL     1      -3.867  10.545  16.314  0.00  0.00    +0.000 OA
ATOM     27  C   UNL     1      -3.058  10.671  15.148  0.00  0.00    +0.000 C 
ENDBRANCH  20  26
ENDBRANCH   5  16
TORSDOF 7
ENDMDL
MODEL 3
REMARK VINA RESULT:      -6.3      0.428      2.497
REMARK  Name = 
REMARK  12 active torsions:
REMARK  status: ('A' for Active; 'I' for Inactive)
REMARK    1  A    between atoms: C_1  and  O_2
REMARK    2  A    between atoms: O_2  and  C_3
REMARK    3  A    between atoms: C_6  and  C_7
REMARK    4  A    between atoms: C_11  and  C_12
REMARK    5  A    between atoms: C_14  and  O_15
REMARK    6  A    between atoms: O_15  and  C_16
REMARK    7  A    between atoms: C_17  and  O_18
REMARK    8  A    between atoms: O_18  and  C_19
REMARK    9  A    between atoms: C_20  and  O_21
REMARK   10  A    between atoms: O_21  and  C_22
REMARK   11  A    between atoms: C_24  and  O_25
REMARK   12  A    between atoms: O_25  and  C_26
REMARK                            x       y       z     vdW  Elec       q    Type
REMARK                         _______ _______ _______ _____ _____    ______ ____
ROOT
ATOM      1  C   UNL     1       3.630   3.795  19.540  0.00  0.00    +0.000 A 
ATOM      2  C   UNL     1       3.578   2.530  20.104  0.00  0.00    +0.000 A 
ATOM      3  S   UNL     1       2.577   2.425  21.480  0.00  0.00    +0.000 S 
ATOM      4  C   UNL     1       2.168   4.074  21.368  0.00  0.00    +0.000 A 
ATOM      5  C   UNL     1       2.774   4.713  20.299  0.00  0.00    +0.000 A 
ENDROOT
BRANCH   1   9
ATOM      6  C   UNL     1       6.154   4.247  16.080  0.00  0.00    +0.000 A 
ATOM      7  C   UNL     1       4.814   3.897  15.950  0.00  0.00    +0.000 A 
ATOM      8  C   UNL     1       4.000   3.777  17.079  0.00  0.00    +0.000 A 
ATOM      9  C   UNL     1       4.499   4.054  18.369  0.00  0.00    +0.000 A 
ATOM     10  C   UNL     1       5.824   4.536  18.475  0.00  0.00    +0.000 A 
ATOM     11  C   UNL     1       6.653   4.572  17.343  0.00  0.00    +0.000 A 
BRANCH   6  13
ATOM     12  C   UNL     1       6.152   3.888  13.725  0.00  0.00    +0.000 C 
ATOM     13  O   UNL     1       6.855   4.261  14.905  0.00  0.00    +0.000 OA
ENDBRANCH   6  13
BRANCH  10  14
ATOM     14  O   UNL     1       6.224   4.969  19.713  0.00  0.00    +0.000 OA
ATOM     15  C   UNL     1       7.490   5.588  19.859  0.00  0.00    +0.000 C 
ENDBRANCH  10  14
ENDBRANCH   1   9
BRANCH   5  16
ATOM     16  C   UNL     1       2.476   6.132  20.040  0.00  0.00    +0.000 A 
ATOM     17  C   UNL     1       2.982   6.762  18.909  0.00  0.00    +0.000 A 
ATOM     18  C   UNL     1       2.474   8.005  18.505  0.00  0.00    +0.000 A 
ATOM     19  C   UNL     1       1.540   8.684  19.323  0.00  0.00    +0.000 A 
ATOM     20  C   UNL     1       1.129   8.113  20.542  0.00  0.00    +0.000 A 
ATOM     21  C   UNL     1       1.577   6.822  20.867  0.00  0.00    +0.000 A 
BRANCH  18  22
ATOM     22  O   UNL     1       2.754   8.578  17.287  0.00  0.00    +0.000 OA
ATOM     23  C   UNL     1       3.717   7.944  16.453  0.00  0.00    +0.000 C 
ENDBRANCH  18  22
BRANCH  19  24
ATOM     24  O   UNL     1       1.135   9.912  18.839  0.00  0.00    +0.000 OA
ATOM     25  C   UNL     1      -0.160  10.012  18.271  0.00  0.00    +0.000 C 
ENDBRANCH  19  24
BRANCH  20  26
ATOM     26  O   UNL     1       0.296   8.825  21.360  0.00  0.00    +0.000 OA
ATOM     27  C   UNL     1       0.825   9.332  22.582  0.00  0.00    +0.000 C 
ENDBRANCH  20  26
ENDBRANCH   5  16
TORSDOF 7
ENDMDL
MODEL 4
REMARK VINA RESULT:      -6.2      1.951      3.821
REMARK  Name = 
REMARK  12 active torsions:
REMARK  status: ('A' for Active; 'I' for Inactive)
REMARK    1  A    between atoms: C_1  and  O_2
REMARK    2  A    between atoms: O_2  and  C_3
REMARK    3  A    between atoms: C_6  and  C_7
REMARK    4  A    between atoms: C_11  and  C_12
REMARK    5  A    between atoms: C_14  and  O_15
REMARK    6  A    between atoms: O_15  and  C_16
REMARK    7  A    between atoms: C_17  and  O_18
REMARK    8  A    between atoms: O_18  and  C_19
REMARK    9  A    between atoms: C_20  and  O_21
REMARK   10  A    between atoms: O_21  and  C_22
REMARK   11  A    between atoms: C_24  and  O_25
REMARK   12  A    between atoms: O_25  and  C_26
REMARK                            x       y       z     vdW  Elec       q    Type
REMARK                         _______ _______ _______ _____ _____    ______ ____
ROOT
ATOM      1  C   UNL     1       4.140   4.851  18.198  0.00  0.00    +0.000 A 
ATOM      2  C   UNL     1       4.083   3.519  17.819  0.00  0.00    +0.000 A 
ATOM      3  S   UNL     1       2.529   2.829  17.950  0.00  0.00    +0.000 S 
ATOM      4  C   UNL     1       1.872   4.295  18.513  0.00  0.00    +0.000 A 
ATOM      5  C   UNL     1       2.809   5.311  18.605  0.00  0.00    +0.000 A 
ENDROOT
BRANCH   1   9
ATOM      6  C   UNL     1       7.802   7.110  18.408  0.00  0.00    +0.000 A 
ATOM      7  C   UNL     1       7.478   6.174  19.385  0.00  0.00    +0.000 A 
ATOM      8  C   UNL     1       6.300   5.431  19.292  0.00  0.00    +0.000 A 
ATOM      9  C   UNL     1       5.434   5.573  18.188  0.00  0.00    +0.000 A 
ATOM     10  C   UNL     1       5.838   6.430  17.139  0.00  0.00    +0.000 A 
ATOM     11  C   UNL     1       6.982   7.230  17.283  0.00  0.00    +0.000 A 
BRANCH   6  13
ATOM     12  C   UNL     1       8.834   9.237  18.700  0.00  0.00    +0.000 C 
ATOM     13  O   UNL     1       8.946   7.819  18.653  0.00  0.00    +0.000 OA
ENDBRANCH   6  13
BRANCH  10  14
ATOM     14  O   UNL     1       5.073   6.413  16.000  0.00  0.00    +0.000 OA
ATOM     15  C   UNL     1       5.427   5.546  14.937  0.00  0.00    +0.000 C 
ENDBRANCH  10  14
ENDBRANCH   1   9
BRANCH   5  16
ATOM     16  C   UNL     1       2.380   6.655  19.028  0.00  0.00    +0.000 A 
ATOM     17  C   UNL     1       2.504   7.738  18.166  0.00  0.00    +0.000 A 
ATOM     18  C   UNL     1       1.842   8.942  18.442  0.00  0.00    +0.000 A 
ATOM     19  C   UNL     1       1.155   9.103  19.669  0.00  0.00    +0.000 A 
ATOM     20  C   UNL     1       1.144   8.056  20.609  0.00  0.00    +0.000 A 
ATOM     21  C   UNL     1       1.729   6.828  20.259  0.00  0.00    +0.000 A 
BRANCH  18  22
ATOM     22  O   UNL     1       1.727   9.969  17.536  0.00  0.00    +0.000 OA
ATOM     23  C   UNL     1       2.490  11.149  17.759  0.00  0.00    +0.000 C 
ENDBRANCH  18  22
BRANCH  19  24
ATOM     24  O   UNL     1       0.567  10.341  19.844  0.00  0.00    +0.000 OA
ATOM     25  C   UNL     1      -0.819  10.466  19.574  0.00  0.00    +0.000 C 
ENDBRANCH  19  24
BRANCH  20  26
ATOM     26  O   UNL     1       0.551   8.263  21.825  0.00  0.00    +0.000 OA
ATOM     27  C   UNL     1       1.116   9.244  22.690  0.00  0.00    +0.000 C 
ENDBRANCH  20  26
ENDBRANCH   5  16
TORSDOF 7
ENDMDL
MODEL 5
REMARK VINA RESULT:      -6.1      4.312      7.587
REMARK  Name = 
REMARK  12 active torsions:
REMARK  status: ('A' for Active; 'I' for Inactive)
REMARK    1  A    between atoms: C_1  and  O_2
REMARK    2  A    between atoms: O_2  and  C_3
REMARK    3  A    between atoms: C_6  and  C_7
REMARK    4  A    between atoms: C_11  and  C_12
REMARK    5  A    between atoms: C_14  and  O_15
REMARK    6  A    between atoms: O_15  and  C_16
REMARK    7  A    between atoms: C_17  and  O_18
REMARK    8  A    between atoms: O_18  and  C_19
REMARK    9  A    between atoms: C_20  and  O_21
REMARK   10  A    between atoms: O_21  and  C_22
REMARK   11  A    between atoms: C_24  and  O_25
REMARK   12  A    between atoms: O_25  and  C_26
REMARK                            x       y       z     vdW  Elec       q    Type
REMARK                         _______ _______ _______ _____ _____    ______ ____
ROOT
ATOM      1  C   UNL     1      -0.082  10.485  18.541  0.00  0.00    +0.000 A 
ATOM      2  C   UNL     1      -1.299  10.164  17.960  0.00  0.00    +0.000 A 
ATOM      3  S   UNL     1      -2.321  11.506  17.711  0.00  0.00    +0.000 S 
ATOM      4  C   UNL     1      -1.166  12.570  18.366  0.00  0.00    +0.000 A 
ATOM      5  C   UNL     1      -0.006  11.931  18.772  0.00  0.00    +0.000 A 
ENDROOT
BRANCH   1   9
ATOM      6  C   UNL     1       2.582   7.191  19.316  0.00  0.00    +0.000 A 
ATOM      7  C   UNL     1       2.515   7.779  18.057  0.00  0.00    +0.000 A 
ATOM      8  C   UNL     1       1.665   8.863  17.825  0.00  0.00    +0.000 A 
ATOM      9  C   UNL     1       0.892   9.417  18.866  0.00  0.00    +0.000 A 
ATOM     10  C   UNL     1       1.067   8.895  20.168  0.00  0.00    +0.000 A 
ATOM     11  C   UNL     1       1.862   7.756  20.370  0.00  0.00    +0.000 A 
BRANCH   6  13
ATOM     12  C   UNL     1       4.261   5.853  18.283  0.00  0.00    +0.000 C 
ATOM     13  O   UNL     1       3.400   6.096  19.390  0.00  0.00    +0.000 OA
ENDBRANCH   6  13
BRANCH  10  14
ATOM     14  O   UNL     1       0.445   9.567  21.190  0.00  0.00    +0.000 OA
ATOM     15  C   UNL     1      -0.417   8.861  22.065  0.00  0.00    +0.000 C 
ENDBRANCH  10  14
ENDBRANCH   1   9
BRANCH   5  16
ATOM     16  C   UNL     1       1.108  12.727  19.312  0.00  0.00    +0.000 A 
ATOM     17  C   UNL     1       2.209  13.027  18.518  0.00  0.00    +0.000 A 
ATOM     18  C   UNL     1       3.123  14.012  18.918  0.00  0.00    +0.000 A 
ATOM     19  C   UNL     1       3.002  14.609  20.195  0.00  0.00    +0.000 A 
ATOM     20  C   UNL     1       1.969  14.207  21.062  0.00  0.00    +0.000 A 
ATOM     21  C   UNL     1       1.010  13.294  20.592  0.00  0.00    +0.000 A 
BRANCH  18  22
ATOM     22  O   UNL     1       4.096  14.523  18.092  0.00  0.00    +0.000 OA
ATOM     23  C   UNL     1       3.708  15.473  17.106  0.00  0.00    +0.000 C 
ENDBRANCH  18  22
BRANCH  19  24
ATOM     24  O   UNL     1       3.976  15.543  20.491  0.00  0.00    +0.000 OA
ATOM     25  C   UNL     1       3.623  16.915  20.440  0.00  0.00    +0.000 C 
ENDBRANCH  19  24
BRANCH  20  26
ATOM     26  O   UNL     1       1.922  14.730  22.325  0.00  0.00    +0.000 OA
ATOM     27  C   UNL     1       0.914  15.694  22.617  0.00  0.00    +0.000 C 
ENDBRANCH  20  26
ENDBRANCH   5  16
TORSDOF 7
ENDMDL
MODEL 6
REMARK VINA RESULT:      -6.0      1.173      3.119
REMARK  Name = 
REMARK  12 active torsions:
REMARK  status: ('A' for Active; 'I' for Inactive)
REMARK    1  A    between atoms: C_1  and  O_2
REMARK    2  A    between atoms: O_2  and  C_3
REMARK    3  A    between atoms: C_6  and  C_7
REMARK    4  A    between atoms: C_11  and  C_12
REMARK    5  A    between atoms: C_14  and  O_15
REMARK    6  A    between atoms: O_15  and  C_16
REMARK    7  A    between atoms: C_17  and  O_18
REMARK    8  A    between atoms: O_18  and  C_19
REMARK    9  A    between atoms: C_20  and  O_21
REMARK   10  A    between atoms: O_21  and  C_22
REMARK   11  A    between atoms: C_24  and  O_25
REMARK   12  A    between atoms: O_25  and  C_26
REMARK                            x       y       z     vdW  Elec       q    Type
REMARK                         _______ _______ _______ _____ _____    ______ ____
ROOT
ATOM      1  C   UNL     1       3.539   3.703  19.831  0.00  0.00    +0.000 A 
ATOM      2  C   UNL     1       3.395   2.461  20.429  0.00  0.00    +0.000 A 
ATOM      3  S   UNL     1       2.268   2.436  21.709  0.00  0.00    +0.000 S 
ATOM      4  C   UNL     1       1.925   4.090  21.503  0.00  0.00    +0.000 A 
ATOM      5  C   UNL     1       2.647   4.672  20.475  0.00  0.00    +0.000 A 
ENDROOT
BRANCH   1   9
ATOM      6  C   UNL     1       6.383   4.556  16.710  0.00  0.00    +0.000 A 
ATOM      7  C   UNL     1       6.723   4.700  18.051  0.00  0.00    +0.000 A 
ATOM      8  C   UNL     1       5.800   4.397  19.054  0.00  0.00    +0.000 A 
ATOM      9  C   UNL     1       4.521   3.893  18.738  0.00  0.00    +0.000 A 
ATOM     10  C   UNL     1       4.234   3.627  17.379  0.00  0.00    +0.000 A 
ATOM     11  C   UNL     1       5.139   4.012  16.379  0.00  0.00    +0.000 A 
BRANCH   6  13
ATOM     12  C   UNL     1       7.058   4.828  14.442  0.00  0.00    +0.000 C 
ATOM     13  O   UNL     1       7.352   4.952  15.830  0.00  0.00    +0.000 OA
ENDBRANCH   6  13
BRANCH  10  14
ATOM     14  O   UNL     1       3.059   2.970  17.116  0.00  0.00    +0.000 OA
ATOM     15  C   UNL     1       1.839   3.690  17.132  0.00  0.00    +0.000 C 
ENDBRANCH  10  14
ENDBRANCH   1   9
BRANCH   5  16
ATOM     16  C   UNL     1       2.420   6.088  20.141  0.00  0.00    +0.000 A 
ATOM     17  C   UNL     1       2.987   6.642  18.999  0.00  0.00    +0.000 A 
ATOM     18  C   UNL     1       2.548   7.885  18.522  0.00  0.00    +0.000 A 
ATOM     19  C   UNL     1       1.621   8.642  19.278  0.00  0.00    +0.000 A 
ATOM     20  C   UNL     1       1.148   8.147  20.508  0.00  0.00    +0.000 A 
ATOM     21  C   UNL     1       1.528   6.855  20.906  0.00  0.00    +0.000 A 
BRANCH  18  22
ATOM     22  O   UNL     1       2.890   8.388  17.289  0.00  0.00    +0.000 OA
ATOM     23  C   UNL     1       3.918   7.730  16.558  0.00  0.00    +0.000 C 
ENDBRANCH  18  22
BRANCH  19  24
ATOM     24  O   UNL     1       1.285   9.862  18.725  0.00  0.00    +0.000 OA
ATOM     25  C   UNL     1      -0.013  10.012  18.176  0.00  0.00    +0.000 C 
ENDBRANCH  19  24
BRANCH  20  26
ATOM     26  O   UNL     1       0.323   8.932  21.264  0.00  0.00    +0.000 OA
ATOM     27  C   UNL     1       0.778   9.341  22.552  0.00  0.00    +0.000 C 
ENDBRANCH  20  26
ENDBRANCH   5  16
TORSDOF 7
ENDMDL
MODEL 7
REMARK VINA RESULT:      -6.0      1.098      1.869
REMARK  Name = 
REMARK  12 active torsions:
REMARK  status: ('A' for Active; 'I' for Inactive)
REMARK    1  A    between atoms: C_1  and  O_2
REMARK    2  A    between atoms: O_2  and  C_3
REMARK    3  A    between atoms: C_6  and  C_7
REMARK    4  A    between atoms: C_11  and  C_12
REMARK    5  A    between atoms: C_14  and  O_15
REMARK    6  A    between atoms: O_15  and  C_16
REMARK    7  A    between atoms: C_17  and  O_18
REMARK    8  A    between atoms: O_18  and  C_19
REMARK    9  A    between atoms: C_20  and  O_21
REMARK   10  A    between atoms: O_21  and  C_22
REMARK   11  A    between atoms: C_24  and  O_25
REMARK   12  A    between atoms: O_25  and  C_26
REMARK                            x       y       z     vdW  Elec       q    Type
REMARK                         _______ _______ _______ _____ _____    ______ ____
ROOT
ATOM      1  C   UNL     1       3.625   3.692  19.877  0.00  0.00    +0.000 A 
ATOM      2  C   UNL     1       3.613   2.481  20.552  0.00  0.00    +0.000 A 
ATOM      3  S   UNL     1       2.441   2.390  21.788  0.00  0.00    +0.000 S 
ATOM      4  C   UNL     1       1.900   3.970  21.459  0.00  0.00    +0.000 A 
ATOM      5  C   UNL     1       2.589   4.576  20.421  0.00  0.00    +0.000 A 
ENDROOT
BRANCH   1   9
ATOM      6  C   UNL     1       6.469   4.710  16.807  0.00  0.00    +0.000 A 
ATOM      7  C   UNL     1       6.717   5.008  18.143  0.00  0.00    +0.000 A 
ATOM      8  C   UNL     1       5.797   4.651  19.132  0.00  0.00    +0.000 A 
ATOM      9  C   UNL     1       4.623   3.940  18.811  0.00  0.00    +0.000 A 
ATOM     10  C   UNL     1       4.446   3.528  17.470  0.00  0.00    +0.000 A 
ATOM     11  C   UNL     1       5.336   3.964  16.476  0.00  0.00    +0.000 A 
BRANCH   6  13
ATOM     12  C   UNL     1       7.182   4.954  14.548  0.00  0.00    +0.000 C 
ATOM     13  O   UNL     1       7.414   5.176  15.934  0.00  0.00    +0.000 OA
ENDBRANCH   6  13
BRANCH  10  14
ATOM     14  O   UNL     1       3.394   2.685  17.218  0.00  0.00    +0.000 OA
ATOM     15  C   UNL     1       2.088   3.219  17.093  0.00  0.00    +0.000 C 
ENDBRANCH  10  14
ENDBRANCH   1   9
BRANCH   5  16
ATOM     16  C   UNL     1       2.199   5.927  19.985  0.00  0.00    +0.000 A 
ATOM     17  C   UNL     1       1.472   6.757  20.830  0.00  0.00    +0.000 A 
ATOM     18  C   UNL     1       1.351   8.125  20.547  0.00  0.00    +0.000 A 
ATOM     19  C   UNL     1       1.855   8.639  19.328  0.00  0.00    +0.000 A 
ATOM     20  C   UNL     1       2.470   7.775  18.403  0.00  0.00    +0.000 A 
ATOM     21  C   UNL     1       2.667   6.432  18.762  0.00  0.00    +0.000 A 
BRANCH  18  22
ATOM     22  O   UNL     1       0.851   9.042  21.440  0.00  0.00    +0.000 OA
ATOM     23  C   UNL     1      -0.429   8.795  22.011  0.00  0.00    +0.000 C 
ENDBRANCH  18  22
BRANCH  19  24
ATOM     24  O   UNL     1       1.652   9.993  19.146  0.00  0.00    +0.000 OA
ATOM     25  C   UNL     1       0.453  10.409  18.514  0.00  0.00    +0.000 C 
ENDBRANCH  19  24
BRANCH  20  26
ATOM     26  O   UNL     1       2.870   8.275  17.195  0.00  0.00    +0.000 OA
ATOM     27  C   UNL     1       3.975   7.655  16.543  0.00  0.00    +0.000 C 
ENDBRANCH  20  26
ENDBRANCH   5  16
TORSDOF 7
ENDMDL
MODEL 8
REMARK VINA RESULT:      -6.0      4.479      7.703
REMARK  Name = 
REMARK  12 active torsions:
REMARK  status: ('A' for Active; 'I' for Inactive)
REMARK    1  A    between atoms: C_1  and  O_2
REMARK    2  A    between atoms: O_2  and  C_3
REMARK    3  A    between atoms: C_6  and  C_7
REMARK    4  A    between atoms: C_11  and  C_12
REMARK    5  A    between atoms: C_14  and  O_15
REMARK    6  A    between atoms: O_15  and  C_16
REMARK    7  A    between atoms: C_17  and  O_18
REMARK    8  A    between atoms: O_18  and  C_19
REMARK    9  A    between atoms: C_20  and  O_21
REMARK   10  A    between atoms: O_21  and  C_22
REMARK   11  A    between atoms: C_24  and  O_25
REMARK   12  A    between atoms: O_25  and  C_26
REMARK                            x       y       z     vdW  Elec       q    Type
REMARK                         _______ _______ _______ _____ _____    ______ ____
ROOT
ATOM      1  C   UNL     1       0.053  10.792  18.895  0.00  0.00    +0.000 A 
ATOM      2  C   UNL     1      -1.293  10.572  18.650  0.00  0.00    +0.000 A 
ATOM      3  S   UNL     1      -2.226  11.998  18.578  0.00  0.00    +0.000 S 
ATOM      4  C   UNL     1      -0.856  12.966  18.865  0.00  0.00    +0.000 A 
ATOM      5  C   UNL     1       0.309  12.231  19.014  0.00  0.00    +0.000 A 
ENDROOT
BRANCH   1   9
ATOM      6  C   UNL     1       2.566   7.301  19.122  0.00  0.00    +0.000 A 
ATOM      7  C   UNL     1       2.467   8.040  17.948  0.00  0.00    +0.000 A 
ATOM      8  C   UNL     1       1.668   9.184  17.894  0.00  0.00    +0.000 A 
ATOM      9  C   UNL     1       0.981   9.646  19.036  0.00  0.00    +0.000 A 
ATOM     10  C   UNL     1       1.193   8.963  20.255  0.00  0.00    +0.000 A 
ATOM     11  C   UNL     1       1.932   7.770  20.275  0.00  0.00    +0.000 A 
BRANCH   6  13
ATOM     12  C   UNL     1       2.990   5.084  19.882  0.00  0.00    +0.000 C 
ATOM     13  O   UNL     1       3.324   6.167  19.021  0.00  0.00    +0.000 OA
ENDBRANCH   6  13
BRANCH  10  14
ATOM     14  O   UNL     1       0.662   9.536  21.383  0.00  0.00    +0.000 OA
ATOM     15  C   UNL     1      -0.377   8.872  22.079  0.00  0.00    +0.000 C 
ENDBRANCH  10  14
ENDBRANCH   1   9
BRANCH   5  16
ATOM     16  C   UNL     1       1.587  12.933  19.216  0.00  0.00    +0.000 A 
ATOM     17  C   UNL     1       2.233  13.541  18.147  0.00  0.00    +0.000 A 
ATOM     18  C   UNL     1       3.280  14.446  18.374  0.00  0.00    +0.000 A 
ATOM     19  C   UNL     1       3.771  14.640  19.687  0.00  0.00    +0.000 A 
ATOM     20  C   UNL     1       3.212  13.919  20.758  0.00  0.00    +0.000 A 
ATOM     21  C   UNL     1       2.098  13.099  20.512  0.00  0.00    +0.000 A 
BRANCH  18  22
ATOM     22  O   UNL     1       3.809  15.254  17.395  0.00  0.00    +0.000 OA
ATOM     23  C   UNL     1       3.134  16.468  17.089  0.00  0.00    +0.000 C 
ENDBRANCH  18  22
BRANCH  19  24
ATOM     24  O   UNL     1       4.822  15.531  19.784  0.00  0.00    +0.000 OA
ATOM     25  C   UNL     1       6.141  15.011  19.788  0.00  0.00    +0.000 C 
ENDBRANCH  19  24
BRANCH  20  26
ATOM     26  O   UNL     1       3.759  14.054  22.004  0.00  0.00    +0.000 OA
ATOM     27  C   UNL     1       3.585  15.294  22.685  0.00  0.00    +0.000 C 
ENDBRANCH  20  26
ENDBRANCH   5  16
TORSDOF 7
ENDMDL
MODEL 9
REMARK VINA RESULT:      -6.0      3.051      5.218
REMARK  Name = 
REMARK  12 active torsions:
REMARK  status: ('A' for Active; 'I' for Inactive)
REMARK    1  A    between atoms: C_1  and  O_2
REMARK    2  A    between atoms: O_2  and  C_3
REMARK    3  A    between atoms: C_6  and  C_7
REMARK    4  A    between atoms: C_11  and  C_12
REMARK    5  A    between atoms: C_14  and  O_15
REMARK    6  A    between atoms: O_15  and  C_16
REMARK    7  A    between atoms: C_17  and  O_18
REMARK    8  A    between atoms: O_18  and  C_19
REMARK    9  A    between atoms: C_20  and  O_21
REMARK   10  A    between atoms: O_21  and  C_22
REMARK   11  A    between atoms: C_24  and  O_25
REMARK   12  A    between atoms: O_25  and  C_26
REMARK                            x       y       z     vdW  Elec       q    Type
REMARK                         _______ _______ _______ _____ _____    ______ ____
ROOT
ATOM      1  C   UNL     1       6.496   5.405  15.801  0.00  0.00    +0.000 A 
ATOM      2  C   UNL     1       7.243   5.091  14.676  0.00  0.00    +0.000 A 
ATOM      3  S   UNL     1       6.474   3.997  13.619  0.00  0.00    +0.000 S 
ATOM      4  C   UNL     1       5.105   3.909  14.627  0.00  0.00    +0.000 A 
ATOM      5  C   UNL     1       5.212   4.700  15.759  0.00  0.00    +0.000 A 
ENDROOT
BRANCH   1   9
ATOM      6  C   UNL     1       8.354   8.072  18.627  0.00  0.00    +0.000 A 
ATOM      7  C   UNL     1       7.791   8.553  17.450  0.00  0.00    +0.000 A 
ATOM      8  C   UNL     1       7.170   7.681  16.553  0.00  0.00    +0.000 A 
ATOM      9  C   UNL     1       7.055   6.304  16.838  0.00  0.00    +0.000 A 
ATOM     10  C   UNL     1       7.514   5.850  18.095  0.00  0.00    +0.000 A 
ATOM     11  C   UNL     1       8.207   6.722  18.949  0.00  0.00    +0.000 A 
BRANCH   6  13
ATOM     12  C   UNL     1       9.127  10.318  18.815  0.00  0.00    +0.000 C 
ATOM     13  O   UNL     1       8.991   9.019  19.382  0.00  0.00    +0.000 OA
ENDBRANCH   6  13
BRANCH  10  14
ATOM     14  O   UNL     1       7.227   4.549  18.422  0.00  0.00    +0.000 OA
ATOM     15  C   UNL     1       6.204   4.277  19.364  0.00  0.00    +0.000 C 
ENDBRANCH  10  14
ENDBRANCH   1   9
BRANCH   5  16
ATOM     16  C   UNL     1       4.084   4.769  16.703  0.00  0.00    +0.000 A 
ATOM     17  C   UNL     1       3.444   3.608  17.121  0.00  0.00    +0.000 A 
ATOM     18  C   UNL     1       2.578   3.635  18.224  0.00  0.00    +0.000 A 
ATOM     19  C   UNL     1       2.249   4.870  18.831  0.00  0.00    +0.000 A 
ATOM     20  C   UNL     1       2.787   6.067  18.323  0.00  0.00    +0.000 A 
ATOM     21  C   UNL     1       3.730   5.996  17.284  0.00  0.00    +0.000 A 
BRANCH  18  22
ATOM     22  O   UNL     1       2.093   2.502  18.833  0.00  0.00    +0.000 OA
ATOM     23  C   UNL     1       0.745   2.126  18.575  0.00  0.00    +0.000 C 
ENDBRANCH  18  22
BRANCH  19  24
ATOM     24  O   UNL     1       1.365   4.775  19.888  0.00  0.00    +0.000 OA
ATOM     25  C   UNL     1       1.896   4.733  21.202  0.00  0.00    +0.000 C 
ENDBRANCH  19  24
BRANCH  20  26
ATOM     26  O   UNL     1       2.387   7.256  18.867  0.00  0.00    +0.000 OA
ATOM     27  C   UNL     1       2.579   8.443  18.103  0.00  0.00    +0.000 C 
ENDBRANCH  20  26
ENDBRANCH   5  16
TORSDOF 7
ENDMDL
