MODEL 1
REMARK VINA RESULT:      -8.6      0.000      0.000
REMARK  Name = 
REMARK  8 active torsions:
REMARK  status: ('A' for Active; 'I' for Inactive)
REMARK    1  A    between atoms: C_1  and  C_2
REMARK    2  A    between atoms: C_2  and  O_3
REMARK    3  A    between atoms: O_3  and  C_4
REMARK    4  A    between atoms: C_9  and  C_10
REMARK    5  A    between atoms: C_12  and  C_13
REMARK    6  A    between atoms: C_13  and  C_14
REMARK    7  A    between atoms: C_13  and  C_15
REMARK    8  A    between atoms: C_13  and  C_16
REMARK                            x       y       z     vdW  Elec       q    Type
REMARK                         _______ _______ _______ _____ _____    ______ ____
ROOT
ATOM      1  C   UNL     1       3.484   6.473  18.173  0.00  0.00    +0.000 A 
ATOM      2  N   UNL     1       4.724   6.819  17.679  0.00  0.00    +0.000 NA
ATOM      3  C   UNL     1       5.367   5.692  17.407  0.00  0.00    +0.000 A 
ATOM      4  N   UNL     1       4.537   4.610  17.663  0.00  0.00    +0.000 N 
ATOM      5  C   UNL     1       4.712   3.241  17.541  0.00  0.00    +0.000 A 
ATOM      6  C   UNL     1       3.707   2.425  17.881  0.00  0.00    +0.000 A 
ATOM      7  N   UNL     1       2.486   2.862  18.330  0.00  0.00    +0.000 NA
ATOM      8  C   UNL     1       2.276   4.153  18.448  0.00  0.00    +0.000 A 
ATOM      9  N   UNL     1       1.016   4.480  18.862  0.00  0.00    +0.000 N 
ATOM     10  C   UNL     1       3.327   5.101  18.131  0.00  0.00    +0.000 A 
ATOM     11  H   UNL     1       0.394   3.681  18.826  0.00  0.00    +0.000 HD
ATOM     12  H   UNL     1       0.620   5.309  18.435  0.00  0.00    +0.000 HD
ENDROOT
BRANCH   1  18
ATOM     13  C   UNL     1      -0.471  10.586  21.335  0.00  0.00    +0.000 A 
ATOM     14  C   UNL     1      -0.042   9.592  22.210  0.00  0.00    +0.000 A 
ATOM     15  C   UNL     1       0.818   8.580  21.760  0.00  0.00    +0.000 A 
ATOM     16  C   UNL     1       1.251   8.536  20.428  0.00  0.00    +0.000 A 
ATOM     17  C   UNL     1       2.124   7.530  19.955  0.00  0.00    +0.000 A 
ATOM     18  C   UNL     1       2.528   7.484  18.614  0.00  0.00    +0.000 A 
ATOM     19  C   UNL     1       1.977   8.415  17.729  0.00  0.00    +0.000 A 
ATOM     20  C   UNL     1       1.168   9.457  18.189  0.00  0.00    +0.000 A 
ATOM     21  C   UNL     1       0.796   9.532  19.536  0.00  0.00    +0.000 A 
ATOM     22  C   UNL     1      -0.038  10.559  20.008  0.00  0.00    +0.000 A 
BRANCH  13  23
ATOM     23  O   UNL     1      -1.308  11.627  21.649  0.00  0.00    +0.000 OA
BRANCH  23  25
ATOM     24  C   UNL     1      -2.906  12.169  23.348  0.00  0.00    +0.000 C 
ATOM     25  C   UNL     1      -1.437  11.950  23.033  0.00  0.00    +0.000 C 
ENDBRANCH  23  25
ENDBRANCH  13  23
ENDBRANCH   1  18
BRANCH   3  26
ATOM     26  C   UNL     1       6.824   5.626  16.950  0.00  0.00    +0.000 C 
ATOM     27  C   UNL     1       6.873   5.198  15.462  0.00  0.00    +0.000 C 
ATOM     28  C   UNL     1       7.491   7.013  17.050  0.00  0.00    +0.000 C 
ATOM     29  C   UNL     1       7.645   4.590  17.738  0.00  0.00    +0.000 C 
ENDBRANCH   3  26
TORSDOF 4
ENDMDL
MODEL 2
REMARK VINA RESULT:      -8.5      0.700      1.007
REMARK  Name = 
REMARK  8 active torsions:
REMARK  status: ('A' for Active; 'I' for Inactive)
REMARK    1  A    between atoms: C_1  and  C_2
REMARK    2  A    between atoms: C_2  and  O_3
REMARK    3  A    between atoms: O_3  and  C_4
REMARK    4  A    between atoms: C_9  and  C_10
REMARK    5  A    between atoms: C_12  and  C_13
REMARK    6  A    between atoms: C_13  and  C_14
REMARK    7  A    between atoms: C_13  and  C_15
REMARK    8  A    between atoms: C_13  and  C_16
REMARK                            x       y       z     vdW  Elec       q    Type
REMARK                         _______ _______ _______ _____ _____    ______ ____
ROOT
ATOM      1  C   UNL     1       3.312   6.346  18.631  0.00  0.00    +0.000 A 
ATOM      2  N   UNL     1       4.447   6.573  17.881  0.00  0.00    +0.000 NA
ATOM      3  C   UNL     1       5.088   5.417  17.778  0.00  0.00    +0.000 A 
ATOM      4  N   UNL     1       4.353   4.421  18.403  0.00  0.00    +0.000 N 
ATOM      5  C   UNL     1       4.564   3.062  18.573  0.00  0.00    +0.000 A 
ATOM      6  C   UNL     1       3.658   2.343  19.246  0.00  0.00    +0.000 A 
ATOM      7  N   UNL     1       2.501   2.867  19.770  0.00  0.00    +0.000 NA
ATOM      8  C   UNL     1       2.259   4.149  19.620  0.00  0.00    +0.000 A 
ATOM      9  N   UNL     1       1.063   4.557  20.141  0.00  0.00    +0.000 N 
ATOM     10  C   UNL     1       3.209   5.001  18.931  0.00  0.00    +0.000 A 
ATOM     11  H   UNL     1       0.478   3.769  20.388  0.00  0.00    +0.000 HD
ATOM     12  H   UNL     1       0.573   5.261  19.603  0.00  0.00    +0.000 HD
ENDROOT
BRANCH   1  18
ATOM     13  C   UNL     1      -0.505  10.863  21.385  0.00  0.00    +0.000 A 
ATOM     14  C   UNL     1      -0.125   9.930  22.346  0.00  0.00    +0.000 A 
ATOM     15  C   UNL     1       0.698   8.850  21.994  0.00  0.00    +0.000 A 
ATOM     16  C   UNL     1       1.143   8.677  20.676  0.00  0.00    +0.000 A 
ATOM     17  C   UNL     1       1.979   7.602  20.301  0.00  0.00    +0.000 A 
ATOM     18  C   UNL     1       2.394   7.427  18.973  0.00  0.00    +0.000 A 
ATOM     19  C   UNL     1       1.890   8.302  18.007  0.00  0.00    +0.000 A 
ATOM     20  C   UNL     1       1.119   9.409  18.367  0.00  0.00    +0.000 A 
ATOM     21  C   UNL     1       0.737   9.612  19.698  0.00  0.00    +0.000 A 
ATOM     22  C   UNL     1      -0.060  10.707  20.071  0.00  0.00    +0.000 A 
BRANCH  13  23
ATOM     23  O   UNL     1      -1.303  11.959  21.600  0.00  0.00    +0.000 OA
BRANCH  23  25
ATOM     24  C   UNL     1      -2.932  12.193  23.340  0.00  0.00    +0.000 C 
ATOM     25  C   UNL     1      -1.473  12.370  22.956  0.00  0.00    +0.000 C 
ENDBRANCH  23  25
ENDBRANCH  13  23
ENDBRANCH   1  18
BRANCH   3  26
ATOM     26  C   UNL     1       6.460   5.254  17.124  0.00  0.00    +0.000 C 
ATOM     27  C   UNL     1       7.008   6.649  16.734  0.00  0.00    +0.000 C 
ATOM     28  C   UNL     1       7.464   4.628  18.113  0.00  0.00    +0.000 C 
ATOM     29  C   UNL     1       6.405   4.420  15.832  0.00  0.00    +0.000 C 
ENDBRANCH   3  26
TORSDOF 4
ENDMDL
MODEL 3
REMARK VINA RESULT:      -8.3      1.198      1.218
REMARK  Name = 
REMARK  8 active torsions:
REMARK  status: ('A' for Active; 'I' for Inactive)
REMARK    1  A    between atoms: C_1  and  C_2
REMARK    2  A    between atoms: C_2  and  O_3
REMARK    3  A    between atoms: O_3  and  C_4
REMARK    4  A    between atoms: C_9  and  C_10
REMARK    5  A    between atoms: C_12  and  C_13
REMARK    6  A    between atoms: C_13  and  C_14
REMARK    7  A    between atoms: C_13  and  C_15
REMARK    8  A    between atoms: C_13  and  C_16
REMARK                            x       y       z     vdW  Elec       q    Type
REMARK                         _______ _______ _______ _____ _____    ______ ____
ROOT
ATOM      1  C   UNL     1       3.316   6.348  18.684  0.00  0.00    +0.000 A 
ATOM      2  N   UNL     1       4.411   6.522  17.865  0.00  0.00    +0.000 NA
ATOM      3  C   UNL     1       5.069   5.371  17.838  0.00  0.00    +0.000 A 
ATOM      4  N   UNL     1       4.383   4.426  18.586  0.00  0.00    +0.000 N 
ATOM      5  C   UNL     1       4.629   3.092  18.869  0.00  0.00    +0.000 A 
ATOM      6  C   UNL     1       3.768   2.425  19.647  0.00  0.00    +0.000 A 
ATOM      7  N   UNL     1       2.626   2.976  20.174  0.00  0.00    +0.000 NA
ATOM      8  C   UNL     1       2.352   4.235  19.919  0.00  0.00    +0.000 A 
ATOM      9  N   UNL     1       1.173   4.670  20.456  0.00  0.00    +0.000 N 
ATOM     10  C   UNL     1       3.253   5.035  19.111  0.00  0.00    +0.000 A 
ATOM     11  H   UNL     1       0.615   3.899  20.801  0.00  0.00    +0.000 HD
ATOM     12  H   UNL     1       0.645   5.314  19.878  0.00  0.00    +0.000 HD
ENDROOT
BRANCH   1  18
ATOM     13  C   UNL     1      -0.556  10.958  21.196  0.00  0.00    +0.000 A 
ATOM     14  C   UNL     1      -0.204  10.055  22.195  0.00  0.00    +0.000 A 
ATOM     15  C   UNL     1       0.624   8.963  21.899  0.00  0.00    +0.000 A 
ATOM     16  C   UNL     1       1.102   8.747  20.598  0.00  0.00    +0.000 A 
ATOM     17  C   UNL     1       1.944   7.658  20.279  0.00  0.00    +0.000 A 
ATOM     18  C   UNL     1       2.392   7.441  18.969  0.00  0.00    +0.000 A 
ATOM     19  C   UNL     1       1.916   8.286  17.962  0.00  0.00    +0.000 A 
ATOM     20  C   UNL     1       1.140   9.406  18.268  0.00  0.00    +0.000 A 
ATOM     21  C   UNL     1       0.725   9.651  19.582  0.00  0.00    +0.000 A 
ATOM     22  C   UNL     1      -0.078  10.760  19.899  0.00  0.00    +0.000 A 
BRANCH  13  23
ATOM     23  O   UNL     1      -1.355  12.062  21.355  0.00  0.00    +0.000 OA
BRANCH  23  25
ATOM     24  C   UNL     1      -3.366  12.629  20.184  0.00  0.00    +0.000 C 
ATOM     25  C   UNL     1      -1.847  12.673  20.163  0.00  0.00    +0.000 C 
ENDBRANCH  23  25
ENDBRANCH  13  23
ENDBRANCH   1  18
BRANCH   3  26
ATOM     26  C   UNL     1       6.414   5.170  17.139  0.00  0.00    +0.000 C 
ATOM     27  C   UNL     1       6.245   4.133  16.000  0.00  0.00    +0.000 C 
ATOM     28  C   UNL     1       6.895   6.484  16.493  0.00  0.00    +0.000 C 
ATOM     29  C   UNL     1       7.496   4.620  18.084  0.00  0.00    +0.000 C 
ENDBRANCH   3  26
TORSDOF 4
ENDMDL
MODEL 4
REMARK VINA RESULT:      -8.2      0.975      1.828
REMARK  Name = 
REMARK  8 active torsions:
REMARK  status: ('A' for Active; 'I' for Inactive)
REMARK    1  A    between atoms: C_1  and  C_2
REMARK    2  A    between atoms: C_2  and  O_3
REMARK    3  A    between atoms: O_3  and  C_4
REMARK    4  A    between atoms: C_9  and  C_10
REMARK    5  A    between atoms: C_12  and  C_13
REMARK    6  A    between atoms: C_13  and  C_14
REMARK    7  A    between atoms: C_13  and  C_15
REMARK    8  A    between atoms: C_13  and  C_16
REMARK                            x       y       z     vdW  Elec       q    Type
REMARK                         _______ _______ _______ _____ _____    ______ ____
ROOT
ATOM      1  C   UNL     1       3.022   5.968  18.769  0.00  0.00    +0.000 A 
ATOM      2  N   UNL     1       4.099   6.229  17.949  0.00  0.00    +0.000 NA
ATOM      3  C   UNL     1       4.579   5.060  17.547  0.00  0.00    +0.000 A 
ATOM      4  N   UNL     1       3.790   4.036  18.049  0.00  0.00    +0.000 N 
ATOM      5  C   UNL     1       3.848   2.657  17.924  0.00  0.00    +0.000 A 
ATOM      6  C   UNL     1       2.929   1.910  18.547  0.00  0.00    +0.000 A 
ATOM      7  N   UNL     1       1.901   2.428  19.297  0.00  0.00    +0.000 NA
ATOM      8  C   UNL     1       1.805   3.731  19.429  0.00  0.00    +0.000 A 
ATOM      9  N   UNL     1       0.725   4.141  20.158  0.00  0.00    +0.000 N 
ATOM     10  C   UNL     1       2.783   4.607  18.812  0.00  0.00    +0.000 A 
ATOM     11  H   UNL     1       0.073   3.383  20.314  0.00  0.00    +0.000 HD
ATOM     12  H   UNL     1       0.276   4.988  19.829  0.00  0.00    +0.000 HD
ENDROOT
BRANCH   1  18
ATOM     13  C   UNL     1      -0.411  11.242  20.485  0.00  0.00    +0.000 A 
ATOM     14  C   UNL     1       0.060  11.400  19.186  0.00  0.00    +0.000 A 
ATOM     15  C   UNL     1       0.836  10.395  18.590  0.00  0.00    +0.000 A 
ATOM     16  C   UNL     1       1.165   9.224  19.287  0.00  0.00    +0.000 A 
ATOM     17  C   UNL     1       1.938   8.195  18.703  0.00  0.00    +0.000 A 
ATOM     18  C   UNL     1       2.281   7.042  19.422  0.00  0.00    +0.000 A 
ATOM     19  C   UNL     1       1.906   6.969  20.766  0.00  0.00    +0.000 A 
ATOM     20  C   UNL     1       1.085   7.943  21.340  0.00  0.00    +0.000 A 
ATOM     21  C   UNL     1       0.705   9.076  20.613  0.00  0.00    +0.000 A 
ATOM     22  C   UNL     1      -0.100  10.076  21.187  0.00  0.00    +0.000 A 
BRANCH  13  23
ATOM     23  O   UNL     1      -1.177  12.146  21.178  0.00  0.00    +0.000 OA
BRANCH  23  25
ATOM     24  C   UNL     1      -2.571  12.099  23.125  0.00  0.00    +0.000 C 
ATOM     25  C   UNL     1      -1.146  12.053  22.602  0.00  0.00    +0.000 C 
ENDBRANCH  23  25
ENDBRANCH  13  23
ENDBRANCH   1  18
BRANCH   3  26
ATOM     26  C   UNL     1       5.852   4.898  16.715  0.00  0.00    +0.000 C 
ATOM     27  C   UNL     1       6.195   6.249  16.040  0.00  0.00    +0.000 C 
ATOM     28  C   UNL     1       7.046   4.519  17.614  0.00  0.00    +0.000 C 
ATOM     29  C   UNL     1       5.694   3.864  15.587  0.00  0.00    +0.000 C 
ENDBRANCH   3  26
TORSDOF 4
ENDMDL
MODEL 5
REMARK VINA RESULT:      -8.2      0.998      1.421
REMARK  Name = 
REMARK  8 active torsions:
REMARK  status: ('A' for Active; 'I' for Inactive)
REMARK    1  A    between atoms: C_1  and  C_2
REMARK    2  A    between atoms: C_2  and  O_3
REMARK    3  A    between atoms: O_3  and  C_4
REMARK    4  A    between atoms: C_9  and  C_10
REMARK    5  A    between atoms: C_12  and  C_13
REMARK    6  A    between atoms: C_13  and  C_14
REMARK    7  A    between atoms: C_13  and  C_15
REMARK    8  A    between atoms: C_13  and  C_16
REMARK                            x       y       z     vdW  Elec       q    Type
REMARK                         _______ _______ _______ _____ _____    ______ ____
ROOT
ATOM      1  C   UNL     1       3.333   6.381  18.722  0.00  0.00    +0.000 A 
ATOM      2  N   UNL     1       4.444   6.585  17.931  0.00  0.00    +0.000 NA
ATOM      3  C   UNL     1       5.110   5.440  17.886  0.00  0.00    +0.000 A 
ATOM      4  N   UNL     1       4.415   4.470  18.593  0.00  0.00    +0.000 N 
ATOM      5  C   UNL     1       4.665   3.131  18.845  0.00  0.00    +0.000 A 
ATOM      6  C   UNL     1       3.793   2.436  19.585  0.00  0.00    +0.000 A 
ATOM      7  N   UNL     1       2.636   2.965  20.104  0.00  0.00    +0.000 NA
ATOM      8  C   UNL     1       2.358   4.229  19.877  0.00  0.00    +0.000 A 
ATOM      9  N   UNL     1       1.166   4.642  20.401  0.00  0.00    +0.000 N 
ATOM     10  C   UNL     1       3.270   5.056  19.111  0.00  0.00    +0.000 A 
ATOM     11  H   UNL     1       0.606   3.858  20.713  0.00  0.00    +0.000 HD
ATOM     12  H   UNL     1       0.645   5.297  19.830  0.00  0.00    +0.000 HD
ENDROOT
BRANCH   1  18
ATOM     13  C   UNL     1      -0.590  10.924  21.277  0.00  0.00    +0.000 A 
ATOM     14  C   UNL     1      -0.221  10.021  22.269  0.00  0.00    +0.000 A 
ATOM     15  C   UNL     1       0.620   8.941  21.963  0.00  0.00    +0.000 A 
ATOM     16  C   UNL     1       1.095   8.739  20.659  0.00  0.00    +0.000 A 
ATOM     17  C   UNL     1       1.951   7.664  20.330  0.00  0.00    +0.000 A 
ATOM     18  C   UNL     1       2.396   7.460  19.016  0.00  0.00    +0.000 A 
ATOM     19  C   UNL     1       1.904   8.304  18.017  0.00  0.00    +0.000 A 
ATOM     20  C   UNL     1       1.113   9.412  18.332  0.00  0.00    +0.000 A 
ATOM     21  C   UNL     1       0.701   9.644  19.649  0.00  0.00    +0.000 A 
ATOM     22  C   UNL     1      -0.116  10.740  19.976  0.00  0.00    +0.000 A 
BRANCH  13  23
ATOM     23  O   UNL     1      -1.404  12.016  21.446  0.00  0.00    +0.000 OA
BRANCH  23  25
ATOM     24  C   UNL     1       0.002  13.859  22.050  0.00  0.00    +0.000 C 
ATOM     25  C   UNL     1      -1.076  12.898  22.519  0.00  0.00    +0.000 C 
ENDBRANCH  23  25
ENDBRANCH  13  23
ENDBRANCH   1  18
BRANCH   3  26
ATOM     26  C   UNL     1       6.471   5.267  17.210  0.00  0.00    +0.000 C 
ATOM     27  C   UNL     1       7.472   4.662  18.227  0.00  0.00    +0.000 C 
ATOM     28  C   UNL     1       6.370   4.283  16.027  0.00  0.00    +0.000 C 
ATOM     29  C   UNL     1       7.070   6.602  16.736  0.00  0.00    +0.000 C 
ENDBRANCH   3  26
TORSDOF 4
ENDMDL
MODEL 6
REMARK VINA RESULT:      -8.0      0.740      1.737
REMARK  Name = 
REMARK  8 active torsions:
REMARK  status: ('A' for Active; 'I' for Inactive)
REMARK    1  A    between atoms: C_1  and  C_2
REMARK    2  A    between atoms: C_2  and  O_3
REMARK    3  A    between atoms: O_3  and  C_4
REMARK    4  A    between atoms: C_9  and  C_10
REMARK    5  A    between atoms: C_12  and  C_13
REMARK    6  A    between atoms: C_13  and  C_14
REMARK    7  A    between atoms: C_13  and  C_15
REMARK    8  A    between atoms: C_13  and  C_16
REMARK                            x       y       z     vdW  Elec       q    Type
REMARK                         _______ _______ _______ _____ _____    ______ ____
ROOT
ATOM      1  C   UNL     1       3.161   6.352  18.608  0.00  0.00    +0.000 A 
ATOM      2  N   UNL     1       4.271   6.724  17.878  0.00  0.00    +0.000 NA
ATOM      3  C   UNL     1       4.823   5.613  17.410  0.00  0.00    +0.000 A 
ATOM      4  N   UNL     1       4.051   4.520  17.776  0.00  0.00    +0.000 N 
ATOM      5  C   UNL     1       4.175   3.161  17.540  0.00  0.00    +0.000 A 
ATOM      6  C   UNL     1       3.255   2.329  18.042  0.00  0.00    +0.000 A 
ATOM      7  N   UNL     1       2.165   2.741  18.769  0.00  0.00    +0.000 NA
ATOM      8  C   UNL     1       2.006   4.023  19.003  0.00  0.00    +0.000 A 
ATOM      9  N   UNL     1       0.869   4.327  19.698  0.00  0.00    +0.000 N 
ATOM     10  C   UNL     1       2.979   4.985  18.522  0.00  0.00    +0.000 A 
ATOM     11  H   UNL     1       0.243   3.534  19.751  0.00  0.00    +0.000 HD
ATOM     12  H   UNL     1       0.404   5.181  19.415  0.00  0.00    +0.000 HD
ENDROOT
BRANCH   1  18
ATOM     13  C   UNL     1      -0.719  11.234  20.523  0.00  0.00    +0.000 A 
ATOM     14  C   UNL     1      -0.306  11.458  19.213  0.00  0.00    +0.000 A 
ATOM     15  C   UNL     1       0.547  10.545  18.576  0.00  0.00    +0.000 A 
ATOM     16  C   UNL     1       1.010   9.401  19.241  0.00  0.00    +0.000 A 
ATOM     17  C   UNL     1       1.862   8.463  18.615  0.00  0.00    +0.000 A 
ATOM     18  C   UNL     1       2.338   7.337  19.302  0.00  0.00    +0.000 A 
ATOM     19  C   UNL     1       2.015   7.207  20.655  0.00  0.00    +0.000 A 
ATOM     20  C   UNL     1       1.120   8.085  21.271  0.00  0.00    +0.000 A 
ATOM     21  C   UNL     1       0.608   9.187  20.577  0.00  0.00    +0.000 A 
ATOM     22  C   UNL     1      -0.273  10.093  21.192  0.00  0.00    +0.000 A 
BRANCH  13  23
ATOM     23  O   UNL     1      -1.548  12.047  21.255  0.00  0.00    +0.000 OA
BRANCH  23  25
ATOM     24  C   UNL     1      -2.758  12.014  23.322  0.00  0.00    +0.000 C 
ATOM     25  C   UNL     1      -1.384  12.017  22.672  0.00  0.00    +0.000 C 
ENDBRANCH  23  25
ENDBRANCH  13  23
ENDBRANCH   1  18
BRANCH   3  26
ATOM     26  C   UNL     1       6.147   5.571  16.646  0.00  0.00    +0.000 C 
ATOM     27  C   UNL     1       7.026   4.427  17.212  0.00  0.00    +0.000 C 
ATOM     28  C   UNL     1       5.906   5.267  15.154  0.00  0.00    +0.000 C 
ATOM     29  C   UNL     1       6.957   6.870  16.795  0.00  0.00    +0.000 C 
ENDBRANCH   3  26
TORSDOF 4
ENDMDL
MODEL 7
REMARK VINA RESULT:      -7.4      1.540      3.401
REMARK  Name = 
REMARK  8 active torsions:
REMARK  status: ('A' for Active; 'I' for Inactive)
REMARK    1  A    between atoms: C_1  and  C_2
REMARK    2  A    between atoms: C_2  and  O_3
REMARK    3  A    between atoms: O_3  and  C_4
REMARK    4  A    between atoms: C_9  and  C_10
REMARK    5  A    between atoms: C_12  and  C_13
REMARK    6  A    between atoms: C_13  and  C_14
REMARK    7  A    between atoms: C_13  and  C_15
REMARK    8  A    between atoms: C_13  and  C_16
REMARK                            x       y       z     vdW  Elec       q    Type
REMARK                         _______ _______ _______ _____ _____    ______ ____
ROOT
ATOM      1  C   UNL     1       2.360   6.410  19.596  0.00  0.00    +0.000 A 
ATOM      2  N   UNL     1       2.177   5.262  20.338  0.00  0.00    +0.000 NA
ATOM      3  C   UNL     1       2.892   4.305  19.763  0.00  0.00    +0.000 A 
ATOM      4  N   UNL     1       3.589   4.830  18.685  0.00  0.00    +0.000 N 
ATOM      5  C   UNL     1       4.468   4.270  17.772  0.00  0.00    +0.000 A 
ATOM      6  C   UNL     1       4.988   5.045  16.813  0.00  0.00    +0.000 A 
ATOM      7  N   UNL     1       4.720   6.386  16.683  0.00  0.00    +0.000 NA
ATOM      8  C   UNL     1       3.901   6.956  17.536  0.00  0.00    +0.000 A 
ATOM      9  N   UNL     1       3.737   8.299  17.343  0.00  0.00    +0.000 N 
ATOM     10  C   UNL     1       3.271   6.176  18.584  0.00  0.00    +0.000 A 
ATOM     11  H   UNL     1       4.422   8.666  16.694  0.00  0.00    +0.000 HD
ATOM     12  H   UNL     1       3.657   8.852  18.188  0.00  0.00    +0.000 HD
ENDROOT
BRANCH   1  18
ATOM     13  C   UNL     1      -0.717  11.486  22.303  0.00  0.00    +0.000 A 
ATOM     14  C   UNL     1      -0.745  10.406  23.181  0.00  0.00    +0.000 A 
ATOM     15  C   UNL     1      -0.150   9.188  22.821  0.00  0.00    +0.000 A 
ATOM     16  C   UNL     1       0.470   9.025  21.574  0.00  0.00    +0.000 A 
ATOM     17  C   UNL     1       1.083   7.810  21.193  0.00  0.00    +0.000 A 
ATOM     18  C   UNL     1       1.675   7.654  19.933  0.00  0.00    +0.000 A 
ATOM     19  C   UNL     1       1.572   8.710  19.023  0.00  0.00    +0.000 A 
ATOM     20  C   UNL     1       1.031   9.940  19.403  0.00  0.00    +0.000 A 
ATOM     21  C   UNL     1       0.476  10.115  20.676  0.00  0.00    +0.000 A 
ATOM     22  C   UNL     1      -0.094  11.339  21.062  0.00  0.00    +0.000 A 
BRANCH  13  23
ATOM     23  O   UNL     1      -1.260  12.725  22.535  0.00  0.00    +0.000 OA
BRANCH  23  25
ATOM     24  C   UNL     1      -3.264  13.134  23.781  0.00  0.00    +0.000 C 
ATOM     25  C   UNL     1      -2.677  12.836  22.412  0.00  0.00    +0.000 C 
ENDBRANCH  23  25
ENDBRANCH  13  23
ENDBRANCH   1  18
BRANCH   3  26
ATOM     26  C   UNL     1       2.875   2.841  20.204  0.00  0.00    +0.000 C 
ATOM     27  C   UNL     1       2.207   2.737  21.598  0.00  0.00    +0.000 C 
ATOM     28  C   UNL     1       2.037   1.989  19.230  0.00  0.00    +0.000 C 
ATOM     29  C   UNL     1       4.288   2.248  20.341  0.00  0.00    +0.000 C 
ENDBRANCH   3  26
TORSDOF 4
ENDMDL
MODEL 8
REMARK VINA RESULT:      -7.4      1.978      3.812
REMARK  Name = 
REMARK  8 active torsions:
REMARK  status: ('A' for Active; 'I' for Inactive)
REMARK    1  A    between atoms: C_1  and  C_2
REMARK    2  A    between atoms: C_2  and  O_3
REMARK    3  A    between atoms: O_3  and  C_4
REMARK    4  A    between atoms: C_9  and  C_10
REMARK    5  A    between atoms: C_12  and  C_13
REMARK    6  A    between atoms: C_13  and  C_14
REMARK    7  A    between atoms: C_13  and  C_15
REMARK    8  A    between atoms: C_13  and  C_16
REMARK                            x       y       z     vdW  Elec       q    Type
REMARK                         _______ _______ _______ _____ _____    ______ ____
ROOT
ATOM      1  C   UNL     1       2.645   6.299  19.142  0.00  0.00    +0.000 A 
ATOM      2  N   UNL     1       2.099   5.307  19.929  0.00  0.00    +0.000 NA
ATOM      3  C   UNL     1       2.819   4.211  19.735  0.00  0.00    +0.000 A 
ATOM      4  N   UNL     1       3.869   4.491  18.872  0.00  0.00    +0.000 N 
ATOM      5  C   UNL     1       4.897   3.716  18.361  0.00  0.00    +0.000 A 
ATOM      6  C   UNL     1       5.778   4.277  17.523  0.00  0.00    +0.000 A 
ATOM      7  N   UNL     1       5.742   5.597  17.146  0.00  0.00    +0.000 NA
ATOM      8  C   UNL     1       4.789   6.367  17.620  0.00  0.00    +0.000 A 
ATOM      9  N   UNL     1       4.870   7.670  17.216  0.00  0.00    +0.000 N 
ATOM     10  C   UNL     1       3.778   5.825  18.507  0.00  0.00    +0.000 A 
ATOM     11  H   UNL     1       5.759   7.867  16.773  0.00  0.00    +0.000 HD
ATOM     12  H   UNL     1       4.616   8.358  17.915  0.00  0.00    +0.000 HD
ENDROOT
BRANCH   1  18
ATOM     13  C   UNL     1       0.082  12.207  20.183  0.00  0.00    +0.000 A 
ATOM     14  C   UNL     1       0.050  11.474  21.365  0.00  0.00    +0.000 A 
ATOM     15  C   UNL     1       0.543  10.161  21.396  0.00  0.00    +0.000 A 
ATOM     16  C   UNL     1       1.062   9.556  20.243  0.00  0.00    +0.000 A 
ATOM     17  C   UNL     1       1.572   8.238  20.252  0.00  0.00    +0.000 A 
ATOM     18  C   UNL     1       2.064   7.636  19.085  0.00  0.00    +0.000 A 
ATOM     19  C   UNL     1       1.962   8.347  17.886  0.00  0.00    +0.000 A 
ATOM     20  C   UNL     1       1.526   9.674  17.868  0.00  0.00    +0.000 A 
ATOM     21  C   UNL     1       1.073  10.293  19.039  0.00  0.00    +0.000 A 
ATOM     22  C   UNL     1       0.607  11.619  19.030  0.00  0.00    +0.000 A 
BRANCH  13  23
ATOM     23  O   UNL     1      -0.366  13.494  20.022  0.00  0.00    +0.000 OA
BRANCH  23  25
ATOM     24  C   UNL     1      -0.087  15.556  18.836  0.00  0.00    +0.000 C 
ATOM     25  C   UNL     1      -0.256  14.051  18.713  0.00  0.00    +0.000 C 
ENDBRANCH  23  25
ENDBRANCH  13  23
ENDBRANCH   1  18
BRANCH   3  26
ATOM     26  C   UNL     1       2.477   2.845  20.330  0.00  0.00    +0.000 C 
ATOM     27  C   UNL     1       1.439   3.029  21.465  0.00  0.00    +0.000 C 
ATOM     28  C   UNL     1       1.834   1.932  19.266  0.00  0.00    +0.000 C 
ATOM     29  C   UNL     1       3.698   2.148  20.953  0.00  0.00    +0.000 C 
ENDBRANCH   3  26
TORSDOF 4
ENDMDL
MODEL 9
REMARK VINA RESULT:      -7.3      1.505      3.345
REMARK  Name = 
REMARK  8 active torsions:
REMARK  status: ('A' for Active; 'I' for Inactive)
REMARK    1  A    between atoms: C_1  and  C_2
REMARK    2  A    between atoms: C_2  and  O_3
REMARK    3  A    between atoms: O_3  and  C_4
REMARK    4  A    between atoms: C_9  and  C_10
REMARK    5  A    between atoms: C_12  and  C_13
REMARK    6  A    between atoms: C_13  and  C_14
REMARK    7  A    between atoms: C_13  and  C_15
REMARK    8  A    between atoms: C_13  and  C_16
REMARK                            x       y       z     vdW  Elec       q    Type
REMARK                         _______ _______ _______ _____ _____    ______ ____
ROOT
ATOM      1  C   UNL     1       3.104   6.103  18.815  0.00  0.00    +0.000 A 
ATOM      2  N   UNL     1       2.643   4.967  19.445  0.00  0.00    +0.000 NA
ATOM      3  C   UNL     1       3.491   3.988  19.162  0.00  0.00    +0.000 A 
ATOM      4  N   UNL     1       4.538   4.486  18.400  0.00  0.00    +0.000 N 
ATOM      5  C   UNL     1       5.669   3.898  17.859  0.00  0.00    +0.000 A 
ATOM      6  C   UNL     1       6.514   4.652  17.146  0.00  0.00    +0.000 A 
ATOM      7  N   UNL     1       6.343   5.997  16.928  0.00  0.00    +0.000 NA
ATOM      8  C   UNL     1       5.288   6.594  17.435  0.00  0.00    +0.000 A 
ATOM      9  N   UNL     1       5.237   7.938  17.195  0.00  0.00    +0.000 N 
ATOM     10  C   UNL     1       4.309   5.838  18.192  0.00  0.00    +0.000 A 
ATOM     11  H   UNL     1       6.116   8.284  16.830  0.00  0.00    +0.000 HD
ATOM     12  H   UNL     1       4.875   8.501  17.956  0.00  0.00    +0.000 HD
ENDROOT
BRANCH   1  18
ATOM     13  C   UNL     1      -0.062  11.578  20.413  0.00  0.00    +0.000 A 
ATOM     14  C   UNL     1       0.031  10.755  21.531  0.00  0.00    +0.000 A 
ATOM     15  C   UNL     1       0.667   9.508  21.438  0.00  0.00    +0.000 A 
ATOM     16  C   UNL     1       1.209   9.060  20.225  0.00  0.00    +0.000 A 
ATOM     17  C   UNL     1       1.862   7.812  20.111  0.00  0.00    +0.000 A 
ATOM     18  C   UNL     1       2.375   7.365  18.885  0.00  0.00    +0.000 A 
ATOM     19  C   UNL     1       2.152   8.153  17.753  0.00  0.00    +0.000 A 
ATOM     20  C   UNL     1       1.570   9.418  17.857  0.00  0.00    +0.000 A 
ATOM     21  C   UNL     1       1.094   9.887  19.087  0.00  0.00    +0.000 A 
ATOM     22  C   UNL     1       0.483  11.147  19.201  0.00  0.00    +0.000 A 
BRANCH  13  23
ATOM     23  O   UNL     1      -0.656  12.815  20.372  0.00  0.00    +0.000 OA
BRANCH  23  25
ATOM     24  C   UNL     1      -2.927  12.348  19.775  0.00  0.00    +0.000 C 
ATOM     25  C   UNL     1      -2.000  12.895  20.845  0.00  0.00    +0.000 C 
ENDBRANCH  23  25
ENDBRANCH  13  23
ENDBRANCH   1  18
BRANCH   3  26
ATOM     26  C   UNL     1       3.283   2.529  19.570  0.00  0.00    +0.000 C 
ATOM     27  C   UNL     1       1.966   2.409  20.377  0.00  0.00    +0.000 C 
ATOM     28  C   UNL     1       3.140   1.630  18.325  0.00  0.00    +0.000 C 
ATOM     29  C   UNL     1       4.409   2.001  20.475  0.00  0.00    +0.000 C 
ENDBRANCH   3  26
TORSDOF 4
ENDMDL
