MODEL 1
REMARK VINA RESULT:      -6.4      0.000      0.000
REMARK  Name = 
REMARK  4 active torsions:
REMARK  status: ('A' for Active; 'I' for Inactive)
REMARK    1  A    between atoms: C_1  and  C_2
REMARK    2  A    between atoms: C_5  and  C_6
REMARK    3  A    between atoms: C_9  and  S_10
REMARK    4  A    between atoms: S_10  and  N_11
REMARK                            x       y       z     vdW  Elec       q    Type
REMARK                         _______ _______ _______ _____ _____    ______ ____
ROOT
ATOM      1  C   UNL     1       4.713   4.572  18.169  0.00  0.00    +0.000 A 
ATOM      2  C   UNL     1       4.297   3.397  17.580  0.00  0.00    +0.000 A 
ATOM      3  S   UNL     1       2.982   2.689  18.420  0.00  0.00    +0.000 S 
ATOM      4  C   UNL     1       2.971   3.942  19.584  0.00  0.00    +0.000 A 
ATOM      5  C   UNL     1       3.962   4.872  19.340  0.00  0.00    +0.000 A 
ENDROOT
BRANCH   1  10
ATOM      6  C   UNL     1       7.995   8.203  17.630  0.00  0.00    +0.000 C 
ATOM      7  C   UNL     1       7.279   6.958  17.291  0.00  0.00    +0.000 A 
ATOM      8  N   UNL     1       7.513   6.118  16.305  0.00  0.00    +0.000 NA
ATOM      9  C   UNL     1       6.580   5.131  16.495  0.00  0.00    +0.000 A 
ATOM     10  C   UNL     1       5.804   5.406  17.601  0.00  0.00    +0.000 A 
ATOM     11  O   UNL     1       6.249   6.598  18.115  0.00  0.00    +0.000 OA
ENDBRANCH   1  10
BRANCH   4  12
ATOM     12  S   UNL     1       1.710   3.863  20.833  0.00  0.00    +0.000 S 
ATOM     13  O   UNL     1       2.306   3.187  21.960  0.00  0.00    +0.000 OA
ATOM     14  O   UNL     1       1.181   5.205  20.899  0.00  0.00    +0.000 OA
BRANCH  12  15
ATOM     15  N   UNL     1       0.491   2.884  20.227  0.00  0.00    +0.000 NA
ATOM     16  H   UNL     1      -0.398   3.042  20.698  0.00  0.00    +0.000 HD
ATOM     17  H   UNL     1       0.776   1.912  20.140  0.00  0.00    +0.000 HD
ENDBRANCH  12  15
ENDBRANCH   4  12
TORSDOF 3
ENDMDL
MODEL 2
REMARK VINA RESULT:      -6.4      2.248      3.014
REMARK  Name = 
REMARK  4 active torsions:
REMARK  status: ('A' for Active; 'I' for Inactive)
REMARK    1  A    between atoms: C_1  and  C_2
REMARK    2  A    between atoms: C_5  and  C_6
REMARK    3  A    between atoms: C_9  and  S_10
REMARK    4  A    between atoms: S_10  and  N_11
REMARK                            x       y       z     vdW  Elec       q    Type
REMARK                         _______ _______ _______ _____ _____    ______ ____
ROOT
ATOM      1  C   UNL     1       4.555   4.699  17.239  0.00  0.00    +0.000 A 
ATOM      2  C   UNL     1       4.557   5.665  18.221  0.00  0.00    +0.000 A 
ATOM      3  S   UNL     1       3.369   5.365  19.419  0.00  0.00    +0.000 S 
ATOM      4  C   UNL     1       2.837   3.949  18.623  0.00  0.00    +0.000 A 
ATOM      5  C   UNL     1       3.544   3.721  17.460  0.00  0.00    +0.000 A 
ENDROOT
BRANCH   1  10
ATOM      6  C   UNL     1       6.556   3.873  12.816  0.00  0.00    +0.000 C 
ATOM      7  C   UNL     1       6.477   4.391  14.196  0.00  0.00    +0.000 A 
ATOM      8  N   UNL     1       7.334   5.158  14.836  0.00  0.00    +0.000 NA
ATOM      9  C   UNL     1       6.738   5.358  16.055  0.00  0.00    +0.000 A 
ATOM     10  C   UNL     1       5.527   4.701  16.114  0.00  0.00    +0.000 A 
ATOM     11  O   UNL     1       5.359   4.063  14.911  0.00  0.00    +0.000 OA
ENDBRANCH   1  10
BRANCH   4  12
ATOM     12  S   UNL     1       1.546   3.022  19.419  0.00  0.00    +0.000 S 
ATOM     13  O   UNL     1       0.691   2.538  18.362  0.00  0.00    +0.000 OA
ATOM     14  O   UNL     1       2.239   2.153  20.341  0.00  0.00    +0.000 OA
BRANCH  12  15
ATOM     15  N   UNL     1       0.665   4.112  20.339  0.00  0.00    +0.000 NA
ATOM     16  H   UNL     1      -0.241   3.739  20.615  0.00  0.00    +0.000 HD
ATOM     17  H   UNL     1       0.651   5.045  19.934  0.00  0.00    +0.000 HD
ENDBRANCH  12  15
ENDBRANCH   4  12
TORSDOF 3
ENDMDL
MODEL 3
REMARK VINA RESULT:      -6.4      2.114      2.810
REMARK  Name = 
REMARK  4 active torsions:
REMARK  status: ('A' for Active; 'I' for Inactive)
REMARK    1  A    between atoms: C_1  and  C_2
REMARK    2  A    between atoms: C_5  and  C_6
REMARK    3  A    between atoms: C_9  and  S_10
REMARK    4  A    between atoms: S_10  and  N_11
REMARK                            x       y       z     vdW  Elec       q    Type
REMARK                         _______ _______ _______ _____ _____    ______ ____
ROOT
ATOM      1  C   UNL     1       4.593   4.792  17.201  0.00  0.00    +0.000 A 
ATOM      2  C   UNL     1       4.351   5.939  17.925  0.00  0.00    +0.000 A 
ATOM      3  S   UNL     1       3.246   5.667  19.207  0.00  0.00    +0.000 S 
ATOM      4  C   UNL     1       3.076   4.018  18.792  0.00  0.00    +0.000 A 
ATOM      5  C   UNL     1       3.837   3.688  17.689  0.00  0.00    +0.000 A 
ENDROOT
BRANCH   1  10
ATOM      6  C   UNL     1       6.539   3.837  12.780  0.00  0.00    +0.000 C 
ATOM      7  C   UNL     1       6.483   4.381  14.150  0.00  0.00    +0.000 A 
ATOM      8  N   UNL     1       7.364   5.138  14.771  0.00  0.00    +0.000 NA
ATOM      9  C   UNL     1       6.782   5.375  15.990  0.00  0.00    +0.000 A 
ATOM     10  C   UNL     1       5.556   4.750  16.070  0.00  0.00    +0.000 A 
ATOM     11  O   UNL     1       5.363   4.095  14.880  0.00  0.00    +0.000 OA
ENDBRANCH   1  10
BRANCH   4  12
ATOM     12  S   UNL     1       2.026   3.035  19.837  0.00  0.00    +0.000 S 
ATOM     13  O   UNL     1       2.844   2.624  20.952  0.00  0.00    +0.000 OA
ATOM     14  O   UNL     1       0.822   3.820  19.981  0.00  0.00    +0.000 OA
BRANCH  12  15
ATOM     15  N   UNL     1       1.618   1.666  18.961  0.00  0.00    +0.000 NA
ATOM     16  H   UNL     1       1.872   0.808  19.447  0.00  0.00    +0.000 HD
ATOM     17  H   UNL     1       1.908   1.722  17.988  0.00  0.00    +0.000 HD
ENDBRANCH  12  15
ENDBRANCH   4  12
TORSDOF 3
ENDMDL
MODEL 4
REMARK VINA RESULT:      -6.4      3.531      5.842
REMARK  Name = 
REMARK  4 active torsions:
REMARK  status: ('A' for Active; 'I' for Inactive)
REMARK    1  A    between atoms: C_1  and  C_2
REMARK    2  A    between atoms: C_5  and  C_6
REMARK    3  A    between atoms: C_9  and  S_10
REMARK    4  A    between atoms: S_10  and  N_11
REMARK                            x       y       z     vdW  Elec       q    Type
REMARK                         _______ _______ _______ _____ _____    ______ ____
ROOT
ATOM      1  C   UNL     1       3.515   6.225  17.904  0.00  0.00    +0.000 A 
ATOM      2  C   UNL     1       3.127   4.910  17.763  0.00  0.00    +0.000 A 
ATOM      3  S   UNL     1       4.333   3.964  16.997  0.00  0.00    +0.000 S 
ATOM      4  C   UNL     1       5.374   5.311  16.838  0.00  0.00    +0.000 A 
ATOM      5  C   UNL     1       4.803   6.460  17.347  0.00  0.00    +0.000 A 
ENDROOT
BRANCH   1  10
ATOM      6  C   UNL     1       1.003   8.587  21.420  0.00  0.00    +0.000 C 
ATOM      7  C   UNL     1       1.548   8.343  20.071  0.00  0.00    +0.000 A 
ATOM      8  N   UNL     1       1.473   9.110  19.003  0.00  0.00    +0.000 NA
ATOM      9  C   UNL     1       2.181   8.415  18.057  0.00  0.00    +0.000 A 
ATOM     10  C   UNL     1       2.667   7.239  18.586  0.00  0.00    +0.000 A 
ATOM     11  O   UNL     1       2.249   7.184  19.891  0.00  0.00    +0.000 OA
ENDBRANCH   1  10
BRANCH   4  12
ATOM     12  S   UNL     1       6.969   5.007  16.114  0.00  0.00    +0.000 S 
ATOM     13  O   UNL     1       6.737   4.129  14.992  0.00  0.00    +0.000 OA
ATOM     14  O   UNL     1       7.565   6.316  15.989  0.00  0.00    +0.000 OA
BRANCH  12  15
ATOM     15  N   UNL     1       7.865   4.166  17.253  0.00  0.00    +0.000 NA
ATOM     16  H   UNL     1       8.866   4.226  17.077  0.00  0.00    +0.000 HD
ATOM     17  H   UNL     1       7.504   3.230  17.422  0.00  0.00    +0.000 HD
ENDBRANCH  12  15
ENDBRANCH   4  12
TORSDOF 3
ENDMDL
MODEL 5
REMARK VINA RESULT:      -6.3      2.540      6.345
REMARK  Name = 
REMARK  4 active torsions:
REMARK  status: ('A' for Active; 'I' for Inactive)
REMARK    1  A    between atoms: C_1  and  C_2
REMARK    2  A    between atoms: C_5  and  C_6
REMARK    3  A    between atoms: C_9  and  S_10
REMARK    4  A    between atoms: S_10  and  N_11
REMARK                            x       y       z     vdW  Elec       q    Type
REMARK                         _______ _______ _______ _____ _____    ______ ____
ROOT
ATOM      1  C   UNL     1       3.660   4.878  18.240  0.00  0.00    +0.000 A 
ATOM      2  C   UNL     1       3.354   6.131  17.755  0.00  0.00    +0.000 A 
ATOM      3  S   UNL     1       4.676   6.837  16.922  0.00  0.00    +0.000 S 
ATOM      4  C   UNL     1       5.667   5.476  17.218  0.00  0.00    +0.000 A 
ATOM      5  C   UNL     1       5.004   4.511  17.950  0.00  0.00    +0.000 A 
ENDROOT
BRANCH   1  10
ATOM      6  C   UNL     1       1.352   2.454  21.852  0.00  0.00    +0.000 C 
ATOM      7  C   UNL     1       1.586   2.948  20.481  0.00  0.00    +0.000 A 
ATOM      8  N   UNL     1       0.824   2.810  19.416  0.00  0.00    +0.000 NA
ATOM      9  C   UNL     1       1.504   3.496  18.443  0.00  0.00    +0.000 A 
ATOM     10  C   UNL     1       2.666   4.034  18.954  0.00  0.00    +0.000 A 
ATOM     11  O   UNL     1       2.728   3.671  20.275  0.00  0.00    +0.000 OA
ENDBRANCH   1  10
BRANCH   4  12
ATOM     12  S   UNL     1       7.303   5.513  16.523  0.00  0.00    +0.000 S 
ATOM     13  O   UNL     1       7.764   6.874  16.658  0.00  0.00    +0.000 OA
ATOM     14  O   UNL     1       7.975   4.383  17.121  0.00  0.00    +0.000 OA
BRANCH  12  15
ATOM     15  N   UNL     1       7.141   5.180  14.888  0.00  0.00    +0.000 NA
ATOM     16  H   UNL     1       6.218   5.425  14.535  0.00  0.00    +0.000 HD
ATOM     17  H   UNL     1       7.474   4.251  14.643  0.00  0.00    +0.000 HD
ENDBRANCH  12  15
ENDBRANCH   4  12
TORSDOF 3
ENDMDL
MODEL 6
REMARK VINA RESULT:      -6.3      2.590      6.349
REMARK  Name = 
REMARK  4 active torsions:
REMARK  status: ('A' for Active; 'I' for Inactive)
REMARK    1  A    between atoms: C_1  and  C_2
REMARK    2  A    between atoms: C_5  and  C_6
REMARK    3  A    between atoms: C_9  and  S_10
REMARK    4  A    between atoms: S_10  and  N_11
REMARK                            x       y       z     vdW  Elec       q    Type
REMARK                         _______ _______ _______ _____ _____    ______ ____
ROOT
ATOM      1  C   UNL     1       3.523   4.927  18.277  0.00  0.00    +0.000 A 
ATOM      2  C   UNL     1       3.262   6.243  17.965  0.00  0.00    +0.000 A 
ATOM      3  S   UNL     1       4.537   6.954  17.067  0.00  0.00    +0.000 S 
ATOM      4  C   UNL     1       5.451   5.510  17.103  0.00  0.00    +0.000 A 
ATOM      5  C   UNL     1       4.799   4.512  17.800  0.00  0.00    +0.000 A 
ENDROOT
BRANCH   1  10
ATOM      6  C   UNL     1       1.309   2.462  21.920  0.00  0.00    +0.000 C 
ATOM      7  C   UNL     1       1.510   2.968  20.548  0.00  0.00    +0.000 A 
ATOM      8  N   UNL     1       0.727   2.831  19.499  0.00  0.00    +0.000 NA
ATOM      9  C   UNL     1       1.381   3.528  18.516  0.00  0.00    +0.000 A 
ATOM     10  C   UNL     1       2.551   4.071  19.006  0.00  0.00    +0.000 A 
ATOM     11  O   UNL     1       2.643   3.700  20.323  0.00  0.00    +0.000 OA
ENDBRANCH   1  10
BRANCH   4  12
ATOM     12  S   UNL     1       7.001   5.522  16.235  0.00  0.00    +0.000 S 
ATOM     13  O   UNL     1       6.688   5.249  14.853  0.00  0.00    +0.000 OA
ATOM     14  O   UNL     1       7.654   6.733  16.678  0.00  0.00    +0.000 OA
BRANCH  12  15
ATOM     15  N   UNL     1       7.898   4.236  16.828  0.00  0.00    +0.000 NA
ATOM     16  H   UNL     1       8.735   4.063  16.275  0.00  0.00    +0.000 HD
ATOM     17  H   UNL     1       7.326   3.419  17.027  0.00  0.00    +0.000 HD
ENDBRANCH  12  15
ENDBRANCH   4  12
TORSDOF 3
ENDMDL
MODEL 7
REMARK VINA RESULT:      -6.3      0.957      1.171
REMARK  Name = 
REMARK  4 active torsions:
REMARK  status: ('A' for Active; 'I' for Inactive)
REMARK    1  A    between atoms: C_1  and  C_2
REMARK    2  A    between atoms: C_5  and  C_6
REMARK    3  A    between atoms: C_9  and  S_10
REMARK    4  A    between atoms: S_10  and  N_11
REMARK                            x       y       z     vdW  Elec       q    Type
REMARK                         _______ _______ _______ _____ _____    ______ ____
ROOT
ATOM      1  C   UNL     1       4.633   4.477  17.939  0.00  0.00    +0.000 A 
ATOM      2  C   UNL     1       4.237   3.330  17.286  0.00  0.00    +0.000 A 
ATOM      3  S   UNL     1       2.896   2.586  18.053  0.00  0.00    +0.000 S 
ATOM      4  C   UNL     1       2.848   3.786  19.269  0.00  0.00    +0.000 A 
ATOM      5  C   UNL     1       3.845   4.726  19.098  0.00  0.00    +0.000 A 
ENDROOT
BRANCH   1  10
ATOM      6  C   UNL     1       7.911   8.140  17.655  0.00  0.00    +0.000 C 
ATOM      7  C   UNL     1       7.217   6.904  17.246  0.00  0.00    +0.000 A 
ATOM      8  N   UNL     1       7.494   6.100  16.241  0.00  0.00    +0.000 NA
ATOM      9  C   UNL     1       6.561   5.102  16.360  0.00  0.00    +0.000 A 
ATOM     10  C   UNL     1       5.740   5.336  17.444  0.00  0.00    +0.000 A 
ATOM     11  O   UNL     1       6.157   6.512  18.015  0.00  0.00    +0.000 OA
ENDBRANCH   1  10
BRANCH   4  12
ATOM     12  S   UNL     1       1.547   3.652  20.473  0.00  0.00    +0.000 S 
ATOM     13  O   UNL     1       1.120   5.002  20.751  0.00  0.00    +0.000 OA
ATOM     14  O   UNL     1       0.670   2.633  19.945  0.00  0.00    +0.000 OA
BRANCH  12  15
ATOM     15  N   UNL     1       2.241   3.030  21.866  0.00  0.00    +0.000 NA
ATOM     16  H   UNL     1       2.313   3.727  22.604  0.00  0.00    +0.000 HD
ATOM     17  H   UNL     1       3.087   2.498  21.679  0.00  0.00    +0.000 HD
ENDBRANCH  12  15
ENDBRANCH   4  12
TORSDOF 3
ENDMDL
MODEL 8
REMARK VINA RESULT:      -6.2      2.192      2.962
REMARK  Name = 
REMARK  4 active torsions:
REMARK  status: ('A' for Active; 'I' for Inactive)
REMARK    1  A    between atoms: C_1  and  C_2
REMARK    2  A    between atoms: C_5  and  C_6
REMARK    3  A    between atoms: C_9  and  S_10
REMARK    4  A    between atoms: S_10  and  N_11
REMARK                            x       y       z     vdW  Elec       q    Type
REMARK                         _______ _______ _______ _____ _____    ______ ____
ROOT
ATOM      1  C   UNL     1       4.518   4.835  17.339  0.00  0.00    +0.000 A 
ATOM      2  C   UNL     1       4.338   5.969  18.102  0.00  0.00    +0.000 A 
ATOM      3  S   UNL     1       3.215   5.716  19.372  0.00  0.00    +0.000 S 
ATOM      4  C   UNL     1       2.955   4.093  18.900  0.00  0.00    +0.000 A 
ATOM      5  C   UNL     1       3.700   3.760  17.787  0.00  0.00    +0.000 A 
ENDROOT
BRANCH   1  10
ATOM      6  C   UNL     1       6.462   3.830  12.928  0.00  0.00    +0.000 C 
ATOM      7  C   UNL     1       6.408   4.388  14.293  0.00  0.00    +0.000 A 
ATOM      8  N   UNL     1       7.291   5.147  14.907  0.00  0.00    +0.000 NA
ATOM      9  C   UNL     1       6.710   5.398  16.123  0.00  0.00    +0.000 A 
ATOM     10  C   UNL     1       5.481   4.779  16.208  0.00  0.00    +0.000 A 
ATOM     11  O   UNL     1       5.286   4.113  15.025  0.00  0.00    +0.000 OA
ENDBRANCH   1  10
BRANCH   4  12
ATOM     12  S   UNL     1       1.848   3.136  19.908  0.00  0.00    +0.000 S 
ATOM     13  O   UNL     1       0.769   4.023  20.270  0.00  0.00    +0.000 OA
ATOM     14  O   UNL     1       1.654   1.910  19.170  0.00  0.00    +0.000 OA
BRANCH  12  15
ATOM     15  N   UNL     1       2.685   2.741  21.306  0.00  0.00    +0.000 NA
ATOM     16  H   UNL     1       3.073   1.801  21.269  0.00  0.00    +0.000 HD
ATOM     17  H   UNL     1       2.167   2.970  22.150  0.00  0.00    +0.000 HD
ENDBRANCH  12  15
ENDBRANCH   4  12
TORSDOF 3
ENDMDL
MODEL 9
REMARK VINA RESULT:      -6.2      2.858      6.417
REMARK  Name = 
REMARK  4 active torsions:
REMARK  status: ('A' for Active; 'I' for Inactive)
REMARK    1  A    between atoms: C_1  and  C_2
REMARK    2  A    between atoms: C_5  and  C_6
REMARK    3  A    between atoms: C_9  and  S_10
REMARK    4  A    between atoms: S_10  and  N_11
REMARK                            x       y       z     vdW  Elec       q    Type
REMARK                         _______ _______ _______ _____ _____    ______ ____
ROOT
ATOM      1  C   UNL     1       3.612   4.615  17.992  0.00  0.00    +0.000 A 
ATOM      2  C   UNL     1       3.621   5.987  17.863  0.00  0.00    +0.000 A 
ATOM      3  S   UNL     1       4.851   6.523  16.797  0.00  0.00    +0.000 S 
ATOM      4  C   UNL     1       5.386   4.924  16.513  0.00  0.00    +0.000 A 
ATOM      5  C   UNL     1       4.648   4.004  17.231  0.00  0.00    +0.000 A 
ENDROOT
BRANCH   1  10
ATOM      6  C   UNL     1       1.412   2.528  21.872  0.00  0.00    +0.000 C 
ATOM      7  C   UNL     1       1.566   2.966  20.471  0.00  0.00    +0.000 A 
ATOM      8  N   UNL     1       0.698   2.887  19.484  0.00  0.00    +0.000 NA
ATOM      9  C   UNL     1       1.352   3.476  18.433  0.00  0.00    +0.000 A 
ATOM     10  C   UNL     1       2.607   3.897  18.819  0.00  0.00    +0.000 A 
ATOM     11  O   UNL     1       2.753   3.558  20.140  0.00  0.00    +0.000 OA
ENDBRANCH   1  10
BRANCH   4  12
ATOM     12  S   UNL     1       6.719   4.721  15.355  0.00  0.00    +0.000 S 
ATOM     13  O   UNL     1       6.679   5.878  14.493  0.00  0.00    +0.000 OA
ATOM     14  O   UNL     1       7.860   4.379  16.173  0.00  0.00    +0.000 OA
BRANCH  12  15
ATOM     15  N   UNL     1       6.355   3.372  14.430  0.00  0.00    +0.000 NA
ATOM     16  H   UNL     1       6.174   2.550  15.002  0.00  0.00    +0.000 HD
ATOM     17  H   UNL     1       7.008   3.237  13.661  0.00  0.00    +0.000 HD
ENDBRANCH  12  15
ENDBRANCH   4  12
TORSDOF 3
ENDMDL
