MODEL 1
REMARK VINA RESULT:      -7.5      0.000      0.000
REMARK  Name = 
REMARK  3 active torsions:
REMARK  status: ('A' for Active; 'I' for Inactive)
REMARK    1  A    between atoms: C_4  and  N_5
REMARK    2  A    between atoms: C_17  and  S_18
REMARK    3  A    between atoms: S_18  and  C_19
REMARK                            x       y       z     vdW  Elec       q    Type
REMARK                         _______ _______ _______ _____ _____    ______ ____
ROOT
ATOM      1  N   UNL     1      -1.331  12.655  21.837  0.00  0.00    +0.000 N 
ATOM      2  C   UNL     1      -0.597  11.515  21.868  0.00  0.00    +0.000 A 
ATOM      3  N   UNL     1      -0.261  10.792  22.922  0.00  0.00    +0.000 NA
ATOM      4  N   UNL     1       0.464   9.706  22.512  0.00  0.00    +0.000 NA
ATOM      5  C   UNL     1       0.579   9.789  21.210  0.00  0.00    +0.000 A 
ATOM      6  C   UNL     1       1.237   8.907  20.275  0.00  0.00    +0.000 A 
ATOM      7  C   UNL     1       1.862   7.721  20.665  0.00  0.00    +0.000 A 
ATOM      8  C   UNL     1       2.473   6.920  19.702  0.00  0.00    +0.000 A 
ATOM      9  C   UNL     1       2.449   7.300  18.358  0.00  0.00    +0.000 A 
ATOM     10  C   UNL     1       1.823   8.490  17.974  0.00  0.00    +0.000 A 
ATOM     11  C   UNL     1       1.219   9.307  18.929  0.00  0.00    +0.000 A 
ATOM     12  N   UNL     1       0.638  10.530  18.521  0.00  0.00    +0.000 NA
ATOM     13  C   UNL     1       0.065  11.304  19.401  0.00  0.00    +0.000 A 
ATOM     14  N   UNL     1      -0.028  10.935  20.749  0.00  0.00    +0.000 N 
ATOM     15  H   UNL     1      -1.628  13.032  20.941  0.00  0.00    +0.000 HD
ENDROOT
BRANCH   1  19
ATOM     16  N   UNL     1      -3.506  14.754  25.345  0.00  0.00    +0.000 N 
ATOM     17  C   UNL     1      -2.517  14.508  24.472  0.00  0.00    +0.000 A 
ATOM     18  N   UNL     1      -2.499  13.474  23.672  0.00  0.00    +0.000 NA
ATOM     19  C   UNL     1      -1.407  13.562  22.839  0.00  0.00    +0.000 A 
ATOM     20  C   UNL     1      -0.554  14.619  23.082  0.00  0.00    +0.000 A 
ATOM     21  S   UNL     1      -1.181  15.581  24.349  0.00  0.00    +0.000 S 
ATOM     22  H   UNL     1      -4.119  13.982  25.582  0.00  0.00    +0.000 HD
ATOM     23  H   UNL     1      -3.346  15.425  26.083  0.00  0.00    +0.000 HD
ENDBRANCH   1  19
BRANCH  13  24
ATOM     24  S   UNL     1      -0.548  12.836  18.804  0.00  0.00    +0.000 S 
BRANCH  24  25
ATOM     25  C   UNL     1       0.930  13.842  18.717  0.00  0.00    +0.000 A 
ATOM     26  C   UNL     1       2.172  13.364  18.275  0.00  0.00    +0.000 A 
ATOM     27  C   UNL     1       3.292  14.205  18.257  0.00  0.00    +0.000 A 
ATOM     28  C   UNL     1       3.170  15.535  18.660  0.00  0.00    +0.000 A 
ATOM     29 BR   UNL     1       4.688  16.662  18.661  0.00  0.00    +0.000 Br
ATOM     30  C   UNL     1       1.936  16.036  19.062  0.00  0.00    +0.000 A 
ATOM     31  C   UNL     1       0.822  15.188  19.089  0.00  0.00    +0.000 A 
ENDBRANCH  24  25
ENDBRANCH  13  24
TORSDOF 3
ENDMDL
MODEL 2
REMARK VINA RESULT:      -7.4      3.597      5.317
REMARK  Name = 
REMARK  3 active torsions:
REMARK  status: ('A' for Active; 'I' for Inactive)
REMARK    1  A    between atoms: C_4  and  N_5
REMARK    2  A    between atoms: C_17  and  S_18
REMARK    3  A    between atoms: S_18  and  C_19
REMARK                            x       y       z     vdW  Elec       q    Type
REMARK                         _______ _______ _______ _____ _____    ______ ____
ROOT
ATOM      1  N   UNL     1      -2.206  12.985  21.558  0.00  0.00    +0.000 N 
ATOM      2  C   UNL     1      -2.968  12.677  20.479  0.00  0.00    +0.000 A 
ATOM      3  N   UNL     1      -4.222  13.020  20.243  0.00  0.00    +0.000 NA
ATOM      4  N   UNL     1      -4.606  12.522  19.028  0.00  0.00    +0.000 NA
ATOM      5  C   UNL     1      -3.584  11.862  18.542  0.00  0.00    +0.000 A 
ATOM      6  C   UNL     1      -3.444  11.148  17.294  0.00  0.00    +0.000 A 
ATOM      7  C   UNL     1      -4.458  11.095  16.336  0.00  0.00    +0.000 A 
ATOM      8  C   UNL     1      -4.245  10.388  15.154  0.00  0.00    +0.000 A 
ATOM      9  C   UNL     1      -3.023   9.749  14.931  0.00  0.00    +0.000 A 
ATOM     10  C   UNL     1      -2.013   9.805  15.895  0.00  0.00    +0.000 A 
ATOM     11  C   UNL     1      -2.217  10.497  17.089  0.00  0.00    +0.000 A 
ATOM     12  N   UNL     1      -1.199  10.495  18.070  0.00  0.00    +0.000 NA
ATOM     13  C   UNL     1      -1.372  11.141  19.189  0.00  0.00    +0.000 A 
ATOM     14  N   UNL     1      -2.536  11.880  19.434  0.00  0.00    +0.000 N 
ATOM     15  H   UNL     1      -1.213  12.769  21.545  0.00  0.00    +0.000 HD
ENDROOT
BRANCH   1  19
ATOM     16  N   UNL     1      -5.043  12.130  25.117  0.00  0.00    +0.000 N 
ATOM     17  C   UNL     1      -4.070  12.750  24.431  0.00  0.00    +0.000 A 
ATOM     18  N   UNL     1      -3.586  12.306  23.300  0.00  0.00    +0.000 NA
ATOM     19  C   UNL     1      -2.678  13.214  22.807  0.00  0.00    +0.000 A 
ATOM     20  C   UNL     1      -2.413  14.297  23.619  0.00  0.00    +0.000 A 
ATOM     21  S   UNL     1      -3.393  14.215  25.018  0.00  0.00    +0.000 S 
ATOM     22  H   UNL     1      -5.220  11.157  24.895  0.00  0.00    +0.000 HD
ATOM     23  H   UNL     1      -5.201  12.393  26.080  0.00  0.00    +0.000 HD
ENDBRANCH   1  19
BRANCH  13  24
ATOM     24  S   UNL     1      -0.083  11.003  20.372  0.00  0.00    +0.000 S 
BRANCH  24  25
ATOM     25  C   UNL     1       0.937   9.700  19.688  0.00  0.00    +0.000 A 
ATOM     26  C   UNL     1       1.515   9.753  18.412  0.00  0.00    +0.000 A 
ATOM     27  C   UNL     1       2.284   8.684  17.934  0.00  0.00    +0.000 A 
ATOM     28  C   UNL     1       2.496   7.564  18.739  0.00  0.00    +0.000 A 
ATOM     29 BR   UNL     1       3.509   6.110  18.084  0.00  0.00    +0.000 Br
ATOM     30  C   UNL     1       1.963   7.514  20.023  0.00  0.00    +0.000 A 
ATOM     31  C   UNL     1       1.186   8.581  20.492  0.00  0.00    +0.000 A 
ENDBRANCH  24  25
ENDBRANCH  13  24
TORSDOF 3
ENDMDL
MODEL 3
REMARK VINA RESULT:      -7.3      3.164      3.976
REMARK  Name = 
REMARK  3 active torsions:
REMARK  status: ('A' for Active; 'I' for Inactive)
REMARK    1  A    between atoms: C_4  and  N_5
REMARK    2  A    between atoms: C_17  and  S_18
REMARK    3  A    between atoms: S_18  and  C_19
REMARK                            x       y       z     vdW  Elec       q    Type
REMARK                         _______ _______ _______ _____ _____    ______ ____
ROOT
ATOM      1  N   UNL     1      -1.338  12.460  21.898  0.00  0.00    +0.000 N 
ATOM      2  C   UNL     1      -0.567  11.344  21.915  0.00  0.00    +0.000 A 
ATOM      3  N   UNL     1      -0.166  10.648  22.964  0.00  0.00    +0.000 NA
ATOM      4  N   UNL     1       0.577   9.580  22.541  0.00  0.00    +0.000 NA
ATOM      5  C   UNL     1       0.638   9.647  21.234  0.00  0.00    +0.000 A 
ATOM      6  C   UNL     1       1.287   8.773  20.285  0.00  0.00    +0.000 A 
ATOM      7  C   UNL     1       1.966   7.614  20.667  0.00  0.00    +0.000 A 
ATOM      8  C   UNL     1       2.564   6.820  19.690  0.00  0.00    +0.000 A 
ATOM      9  C   UNL     1       2.475   7.179  18.344  0.00  0.00    +0.000 A 
ATOM     10  C   UNL     1       1.796   8.341  17.969  0.00  0.00    +0.000 A 
ATOM     11  C   UNL     1       1.203   9.153  18.936  0.00  0.00    +0.000 A 
ATOM     12  N   UNL     1       0.567  10.350  18.535  0.00  0.00    +0.000 NA
ATOM     13  C   UNL     1       0.004  11.119  19.427  0.00  0.00    +0.000 A 
ATOM     14  N   UNL     1      -0.023  10.767  20.782  0.00  0.00    +0.000 N 
ATOM     15  H   UNL     1      -1.683  12.814  21.010  0.00  0.00    +0.000 HD
ENDROOT
BRANCH   1  19
ATOM     16  N   UNL     1      -3.463  14.573  25.429  0.00  0.00    +0.000 N 
ATOM     17  C   UNL     1      -2.491  14.329  24.536  0.00  0.00    +0.000 A 
ATOM     18  N   UNL     1      -2.475  13.286  23.749  0.00  0.00    +0.000 NA
ATOM     19  C   UNL     1      -1.404  13.379  22.890  0.00  0.00    +0.000 A 
ATOM     20  C   UNL     1      -0.562  14.451  23.100  0.00  0.00    +0.000 A 
ATOM     21  S   UNL     1      -1.174  15.420  24.368  0.00  0.00    +0.000 S 
ATOM     22  H   UNL     1      -4.059  13.796  25.690  0.00  0.00    +0.000 HD
ATOM     23  H   UNL     1      -3.296  15.256  26.154  0.00  0.00    +0.000 HD
ENDBRANCH   1  19
BRANCH  13  24
ATOM     24  S   UNL     1      -0.681  12.621  18.834  0.00  0.00    +0.000 S 
BRANCH  24  25
ATOM     25  C   UNL     1      -2.412  12.209  18.635  0.00  0.00    +0.000 A 
ATOM     26  C   UNL     1      -2.916  11.461  17.561  0.00  0.00    +0.000 A 
ATOM     27  C   UNL     1      -4.288  11.198  17.460  0.00  0.00    +0.000 A 
ATOM     28  C   UNL     1      -5.161  11.664  18.442  0.00  0.00    +0.000 A 
ATOM     29 BR   UNL     1      -7.016  11.333  18.290  0.00  0.00    +0.000 Br
ATOM     30  C   UNL     1      -4.672  12.374  19.534  0.00  0.00    +0.000 A 
ATOM     31  C   UNL     1      -3.301  12.644  19.627  0.00  0.00    +0.000 A 
ENDBRANCH  24  25
ENDBRANCH  13  24
TORSDOF 3
ENDMDL
MODEL 4
REMARK VINA RESULT:      -7.3      1.082      1.145
REMARK  Name = 
REMARK  3 active torsions:
REMARK  status: ('A' for Active; 'I' for Inactive)
REMARK    1  A    between atoms: C_4  and  N_5
REMARK    2  A    between atoms: C_17  and  S_18
REMARK    3  A    between atoms: S_18  and  C_19
REMARK                            x       y       z     vdW  Elec       q    Type
REMARK                         _______ _______ _______ _____ _____    ______ ____
ROOT
ATOM      1  N   UNL     1      -1.255  12.169  21.456  0.00  0.00    +0.000 N 
ATOM      2  C   UNL     1      -0.621  10.971  21.509  0.00  0.00    +0.000 A 
ATOM      3  N   UNL     1      -0.595  10.107  22.509  0.00  0.00    +0.000 NA
ATOM      4  N   UNL     1       0.141   9.014  22.143  0.00  0.00    +0.000 NA
ATOM      5  C   UNL     1       0.574   9.231  20.925  0.00  0.00    +0.000 A 
ATOM      6  C   UNL     1       1.386   8.404  20.064  0.00  0.00    +0.000 A 
ATOM      7  C   UNL     1       1.825   7.131  20.432  0.00  0.00    +0.000 A 
ATOM      8  C   UNL     1       2.603   6.392  19.543  0.00  0.00    +0.000 A 
ATOM      9  C   UNL     1       2.930   6.921  18.292  0.00  0.00    +0.000 A 
ATOM     10  C   UNL     1       2.488   8.197  17.931  0.00  0.00    +0.000 A 
ATOM     11  C   UNL     1       1.721   8.953  18.815  0.00  0.00    +0.000 A 
ATOM     12  N   UNL     1       1.331  10.261  18.446  0.00  0.00    +0.000 NA
ATOM     13  C   UNL     1       0.608  10.980  19.260  0.00  0.00    +0.000 A 
ATOM     14  N   UNL     1       0.168  10.472  20.489  0.00  0.00    +0.000 N 
ATOM     15  H   UNL     1      -1.302  12.669  20.572  0.00  0.00    +0.000 HD
ENDROOT
BRANCH   1  19
ATOM     16  N   UNL     1      -4.017  13.821  24.785  0.00  0.00    +0.000 N 
ATOM     17  C   UNL     1      -2.899  13.696  24.053  0.00  0.00    +0.000 A 
ATOM     18  N   UNL     1      -2.718  12.755  23.164  0.00  0.00    +0.000 NA
ATOM     19  C   UNL     1      -1.518  12.961  22.522  0.00  0.00    +0.000 A 
ATOM     20  C   UNL     1      -0.757  14.008  22.999  0.00  0.00    +0.000 A 
ATOM     21  S   UNL     1      -1.606  14.811  24.246  0.00  0.00    +0.000 S 
ATOM     22  H   UNL     1      -4.625  13.013  24.846  0.00  0.00    +0.000 HD
ATOM     23  H   UNL     1      -3.998  14.414  25.604  0.00  0.00    +0.000 HD
ENDBRANCH   1  19
BRANCH  13  24
ATOM     24  S   UNL     1       0.252  12.617  18.740  0.00  0.00    +0.000 S 
BRANCH  24  25
ATOM     25  C   UNL     1       1.775  13.485  19.108  0.00  0.00    +0.000 A 
ATOM     26  C   UNL     1       2.579  14.092  18.133  0.00  0.00    +0.000 A 
ATOM     27  C   UNL     1       3.770  14.734  18.493  0.00  0.00    +0.000 A 
ATOM     28  C   UNL     1       4.154  14.789  19.833  0.00  0.00    +0.000 A 
ATOM     29 BR   UNL     1       5.776  15.630  20.315  0.00  0.00    +0.000 Br
ATOM     30  C   UNL     1       3.347  14.226  20.816  0.00  0.00    +0.000 A 
ATOM     31  C   UNL     1       2.162  13.577  20.451  0.00  0.00    +0.000 A 
ENDBRANCH  24  25
ENDBRANCH  13  24
TORSDOF 3
ENDMDL
MODEL 5
REMARK VINA RESULT:      -7.1      2.893      5.375
REMARK  Name = 
REMARK  3 active torsions:
REMARK  status: ('A' for Active; 'I' for Inactive)
REMARK    1  A    between atoms: C_4  and  N_5
REMARK    2  A    between atoms: C_17  and  S_18
REMARK    3  A    between atoms: S_18  and  C_19
REMARK                            x       y       z     vdW  Elec       q    Type
REMARK                         _______ _______ _______ _____ _____    ______ ____
ROOT
ATOM      1  N   UNL     1      -1.405  12.587  21.922  0.00  0.00    +0.000 N 
ATOM      2  C   UNL     1      -0.375  13.470  21.943  0.00  0.00    +0.000 A 
ATOM      3  N   UNL     1      -0.165  14.456  22.797  0.00  0.00    +0.000 NA
ATOM      4  N   UNL     1       1.002  15.091  22.475  0.00  0.00    +0.000 NA
ATOM      5  C   UNL     1       1.485  14.496  21.413  0.00  0.00    +0.000 A 
ATOM      6  C   UNL     1       2.691  14.760  20.664  0.00  0.00    +0.000 A 
ATOM      7  C   UNL     1       3.607  15.748  21.029  0.00  0.00    +0.000 A 
ATOM      8  C   UNL     1       4.751  15.940  20.257  0.00  0.00    +0.000 A 
ATOM      9  C   UNL     1       4.980  15.141  19.135  0.00  0.00    +0.000 A 
ATOM     10  C   UNL     1       4.058  14.155  18.774  0.00  0.00    +0.000 A 
ATOM     11  C   UNL     1       2.902  13.961  19.529  0.00  0.00    +0.000 A 
ATOM     12  N   UNL     1       1.961  12.991  19.113  0.00  0.00    +0.000 NA
ATOM     13  C   UNL     1       0.877  12.794  19.811  0.00  0.00    +0.000 A 
ATOM     14  N   UNL     1       0.634  13.496  20.998  0.00  0.00    +0.000 N 
ATOM     15  H   UNL     1      -1.369  11.794  21.288  0.00  0.00    +0.000 HD
ENDROOT
BRANCH   1  19
ATOM     16  N   UNL     1      -4.851  12.076  24.974  0.00  0.00    +0.000 N 
ATOM     17  C   UNL     1      -4.232  12.520  23.868  0.00  0.00    +0.000 A 
ATOM     18  N   UNL     1      -2.956  12.353  23.637  0.00  0.00    +0.000 NA
ATOM     19  C   UNL     1      -2.654  12.834  22.384  0.00  0.00    +0.000 A 
ATOM     20  C   UNL     1      -3.692  13.446  21.712  0.00  0.00    +0.000 A 
ATOM     21  S   UNL     1      -5.116  13.351  22.653  0.00  0.00    +0.000 S 
ATOM     22  H   UNL     1      -4.269  11.844  25.770  0.00  0.00    +0.000 HD
ATOM     23  H   UNL     1      -5.768  12.437  25.194  0.00  0.00    +0.000 HD
ENDBRANCH   1  19
BRANCH  13  24
ATOM     24  S   UNL     1      -0.264  11.630  19.160  0.00  0.00    +0.000 S 
BRANCH  24  25
ATOM     25  C   UNL     1       0.689  10.114  19.149  0.00  0.00    +0.000 A 
ATOM     26  C   UNL     1       1.323   9.602  18.008  0.00  0.00    +0.000 A 
ATOM     27  C   UNL     1       2.032   8.396  18.070  0.00  0.00    +0.000 A 
ATOM     28  C   UNL     1       2.128   7.706  19.278  0.00  0.00    +0.000 A 
ATOM     29 BR   UNL     1       3.061   6.064  19.354  0.00  0.00    +0.000 Br
ATOM     30  C   UNL     1       1.539   8.221  20.428  0.00  0.00    +0.000 A 
ATOM     31  C   UNL     1       0.822   9.422  20.359  0.00  0.00    +0.000 A 
ENDBRANCH  24  25
ENDBRANCH  13  24
TORSDOF 3
ENDMDL
MODEL 6
REMARK VINA RESULT:      -6.9      3.070      4.033
REMARK  Name = 
REMARK  3 active torsions:
REMARK  status: ('A' for Active; 'I' for Inactive)
REMARK    1  A    between atoms: C_4  and  N_5
REMARK    2  A    between atoms: C_17  and  S_18
REMARK    3  A    between atoms: S_18  and  C_19
REMARK                            x       y       z     vdW  Elec       q    Type
REMARK                         _______ _______ _______ _____ _____    ______ ____
ROOT
ATOM      1  N   UNL     1      -2.142  12.876  21.573  0.00  0.00    +0.000 N 
ATOM      2  C   UNL     1      -2.895  12.608  20.477  0.00  0.00    +0.000 A 
ATOM      3  N   UNL     1      -4.125  13.014  20.215  0.00  0.00    +0.000 NA
ATOM      4  N   UNL     1      -4.507  12.538  18.991  0.00  0.00    +0.000 NA
ATOM      5  C   UNL     1      -3.509  11.828  18.525  0.00  0.00    +0.000 A 
ATOM      6  C   UNL     1      -3.378  11.110  17.279  0.00  0.00    +0.000 A 
ATOM      7  C   UNL     1      -4.372  11.110  16.299  0.00  0.00    +0.000 A 
ATOM      8  C   UNL     1      -4.169  10.395  15.119  0.00  0.00    +0.000 A 
ATOM      9  C   UNL     1      -2.977   9.696  14.921  0.00  0.00    +0.000 A 
ATOM     10  C   UNL     1      -1.986   9.700  15.907  0.00  0.00    +0.000 A 
ATOM     11  C   UNL     1      -2.181  10.399  17.098  0.00  0.00    +0.000 A 
ATOM     12  N   UNL     1      -1.185  10.344  18.100  0.00  0.00    +0.000 NA
ATOM     13  C   UNL     1      -1.350  10.997  19.218  0.00  0.00    +0.000 A 
ATOM     14  N   UNL     1      -2.481  11.793  19.440  0.00  0.00    +0.000 N 
ATOM     15  H   UNL     1      -1.161  12.611  21.580  0.00  0.00    +0.000 HD
ENDROOT
BRANCH   1  19
ATOM     16  N   UNL     1      -5.030  12.091  25.107  0.00  0.00    +0.000 N 
ATOM     17  C   UNL     1      -4.044  12.695  24.424  0.00  0.00    +0.000 A 
ATOM     18  N   UNL     1      -3.549  12.232  23.307  0.00  0.00    +0.000 NA
ATOM     19  C   UNL     1      -2.628  13.127  22.812  0.00  0.00    +0.000 A 
ATOM     20  C   UNL     1      -2.367  14.219  23.612  0.00  0.00    +0.000 A 
ATOM     21  S   UNL     1      -3.365  14.164  24.999  0.00  0.00    +0.000 S 
ATOM     22  H   UNL     1      -5.211  11.117  24.897  0.00  0.00    +0.000 HD
ATOM     23  H   UNL     1      -5.199  12.369  26.063  0.00  0.00    +0.000 HD
ENDBRANCH   1  19
BRANCH  13  24
ATOM     24  S   UNL     1      -0.095  10.792  20.427  0.00  0.00    +0.000 S 
BRANCH  24  25
ATOM     25  C   UNL     1       1.124  12.008  19.936  0.00  0.00    +0.000 A 
ATOM     26  C   UNL     1       1.716  12.047  18.666  0.00  0.00    +0.000 A 
ATOM     27  C   UNL     1       2.681  13.015  18.361  0.00  0.00    +0.000 A 
ATOM     28  C   UNL     1       3.044  13.963  19.318  0.00  0.00    +0.000 A 
ATOM     29 BR   UNL     1       4.366  15.252  18.915  0.00  0.00    +0.000 Br
ATOM     30  C   UNL     1       2.436  13.963  20.569  0.00  0.00    +0.000 A 
ATOM     31  C   UNL     1       1.479  12.987  20.873  0.00  0.00    +0.000 A 
ENDBRANCH  24  25
ENDBRANCH  13  24
TORSDOF 3
ENDMDL
MODEL 7
REMARK VINA RESULT:      -6.9      2.857      5.444
REMARK  Name = 
REMARK  3 active torsions:
REMARK  status: ('A' for Active; 'I' for Inactive)
REMARK    1  A    between atoms: C_4  and  N_5
REMARK    2  A    between atoms: C_17  and  S_18
REMARK    3  A    between atoms: S_18  and  C_19
REMARK                            x       y       z     vdW  Elec       q    Type
REMARK                         _______ _______ _______ _____ _____    ______ ____
ROOT
ATOM      1  N   UNL     1      -0.750  12.332  21.659  0.00  0.00    +0.000 N 
ATOM      2  C   UNL     1       0.261  13.235  21.643  0.00  0.00    +0.000 A 
ATOM      3  N   UNL     1       0.547  14.154  22.548  0.00  0.00    +0.000 NA
ATOM      4  N   UNL     1       1.663  14.842  22.157  0.00  0.00    +0.000 NA
ATOM      5  C   UNL     1       2.036  14.346  21.003  0.00  0.00    +0.000 A 
ATOM      6  C   UNL     1       3.150  14.699  20.154  0.00  0.00    +0.000 A 
ATOM      7  C   UNL     1       4.084  15.677  20.500  0.00  0.00    +0.000 A 
ATOM      8  C   UNL     1       5.135  15.958  19.628  0.00  0.00    +0.000 A 
ATOM      9  C   UNL     1       5.253  15.257  18.426  0.00  0.00    +0.000 A 
ATOM     10  C   UNL     1       4.313  14.280  18.085  0.00  0.00    +0.000 A 
ATOM     11  C   UNL     1       3.250  13.998  18.941  0.00  0.00    +0.000 A 
ATOM     12  N   UNL     1       2.284  13.043  18.550  0.00  0.00    +0.000 NA
ATOM     13  C   UNL     1       1.285  12.764  19.341  0.00  0.00    +0.000 A 
ATOM     14  N   UNL     1       1.162  13.362  20.601  0.00  0.00    +0.000 N 
ATOM     15  H   UNL     1      -0.770  11.593  20.962  0.00  0.00    +0.000 HD
ENDROOT
BRANCH   1  19
ATOM     16  N   UNL     1      -4.791  14.514  22.261  0.00  0.00    +0.000 N 
ATOM     17  C   UNL     1      -3.824  13.612  22.494  0.00  0.00    +0.000 A 
ATOM     18  N   UNL     1      -2.798  13.431  21.705  0.00  0.00    +0.000 NA
ATOM     19  C   UNL     1      -1.946  12.510  22.271  0.00  0.00    +0.000 A 
ATOM     20  C   UNL     1      -2.384  11.932  23.443  0.00  0.00    +0.000 A 
ATOM     21  S   UNL     1      -3.883  12.620  23.895  0.00  0.00    +0.000 S 
ATOM     22  H   UNL     1      -4.871  14.875  21.318  0.00  0.00    +0.000 HD
ATOM     23  H   UNL     1      -5.658  14.439  22.774  0.00  0.00    +0.000 HD
ENDBRANCH   1  19
BRANCH  13  24
ATOM     24  S   UNL     1       0.100  11.628  18.722  0.00  0.00    +0.000 S 
BRANCH  24  25
ATOM     25  C   UNL     1       0.899  10.047  18.982  0.00  0.00    +0.000 A 
ATOM     26  C   UNL     1       0.906   9.371  20.210  0.00  0.00    +0.000 A 
ATOM     27  C   UNL     1       1.574   8.147  20.344  0.00  0.00    +0.000 A 
ATOM     28  C   UNL     1       2.220   7.582  19.244  0.00  0.00    +0.000 A 
ATOM     29 BR   UNL     1       3.145   5.945  19.433  0.00  0.00    +0.000 Br
ATOM     30  C   UNL     1       2.188   8.221  18.009  0.00  0.00    +0.000 A 
ATOM     31  C   UNL     1       1.529   9.450  17.882  0.00  0.00    +0.000 A 
ENDBRANCH  24  25
ENDBRANCH  13  24
TORSDOF 3
ENDMDL
MODEL 8
REMARK VINA RESULT:      -6.9      1.006      1.114
REMARK  Name = 
REMARK  3 active torsions:
REMARK  status: ('A' for Active; 'I' for Inactive)
REMARK    1  A    between atoms: C_4  and  N_5
REMARK    2  A    between atoms: C_17  and  S_18
REMARK    3  A    between atoms: S_18  and  C_19
REMARK                            x       y       z     vdW  Elec       q    Type
REMARK                         _______ _______ _______ _____ _____    ______ ____
ROOT
ATOM      1  N   UNL     1      -1.732  12.830  21.869  0.00  0.00    +0.000 N 
ATOM      2  C   UNL     1      -1.017  11.680  21.947  0.00  0.00    +0.000 A 
ATOM      3  N   UNL     1      -0.803  10.925  23.010  0.00  0.00    +0.000 NA
ATOM      4  N   UNL     1      -0.049   9.842  22.651  0.00  0.00    +0.000 NA
ATOM      5  C   UNL     1       0.206   9.958  21.371  0.00  0.00    +0.000 A 
ATOM      6  C   UNL     1       0.953   9.092  20.488  0.00  0.00    +0.000 A 
ATOM      7  C   UNL     1       1.520   7.889  20.911  0.00  0.00    +0.000 A 
ATOM      8  C   UNL     1       2.224   7.107  19.996  0.00  0.00    +0.000 A 
ATOM      9  C   UNL     1       2.348   7.523  18.669  0.00  0.00    +0.000 A 
ATOM     10  C   UNL     1       1.779   8.729  18.253  0.00  0.00    +0.000 A 
ATOM     11  C   UNL     1       1.084   9.529  19.160  0.00  0.00    +0.000 A 
ATOM     12  N   UNL     1       0.562  10.769  18.726  0.00  0.00    +0.000 NA
ATOM     13  C   UNL     1      -0.095  11.527  19.561  0.00  0.00    +0.000 A 
ATOM     14  N   UNL     1      -0.336  11.124  20.880  0.00  0.00    +0.000 N 
ATOM     15  H   UNL     1      -1.928  13.234  20.957  0.00  0.00    +0.000 HD
ENDROOT
BRANCH   1  19
ATOM     16  N   UNL     1      -0.308  16.238  24.663  0.00  0.00    +0.000 N 
ATOM     17  C   UNL     1      -1.142  15.310  24.167  0.00  0.00    +0.000 A 
ATOM     18  N   UNL     1      -0.917  14.651  23.061  0.00  0.00    +0.000 NA
ATOM     19  C   UNL     1      -1.906  13.711  22.883  0.00  0.00    +0.000 A 
ATOM     20  C   UNL     1      -2.926  13.732  23.811  0.00  0.00    +0.000 A 
ATOM     21  S   UNL     1      -2.597  14.921  24.995  0.00  0.00    +0.000 S 
ATOM     22  H   UNL     1       0.378  16.630  24.029  0.00  0.00    +0.000 HD
ATOM     23  H   UNL     1      -0.649  16.865  25.378  0.00  0.00    +0.000 HD
ENDBRANCH   1  19
BRANCH  13  24
ATOM     24  S   UNL     1      -0.625  13.081  18.944  0.00  0.00    +0.000 S 
BRANCH  24  25
ATOM     25  C   UNL     1       0.880  14.050  18.977  0.00  0.00    +0.000 A 
ATOM     26  C   UNL     1       2.022  13.740  18.226  0.00  0.00    +0.000 A 
ATOM     27  C   UNL     1       3.173  14.532  18.322  0.00  0.00    +0.000 A 
ATOM     28  C   UNL     1       3.181  15.652  19.154  0.00  0.00    +0.000 A 
ATOM     29 BR   UNL     1       4.743  16.704  19.304  0.00  0.00    +0.000 Br
ATOM     30  C   UNL     1       2.042  15.996  19.875  0.00  0.00    +0.000 A 
ATOM     31  C   UNL     1       0.897  15.195  19.785  0.00  0.00    +0.000 A 
ENDBRANCH  24  25
ENDBRANCH  13  24
TORSDOF 3
ENDMDL
MODEL 9
REMARK VINA RESULT:      -6.7      3.329      5.607
REMARK  Name = 
REMARK  3 active torsions:
REMARK  status: ('A' for Active; 'I' for Inactive)
REMARK    1  A    between atoms: C_4  and  N_5
REMARK    2  A    between atoms: C_17  and  S_18
REMARK    3  A    between atoms: S_18  and  C_19
REMARK                            x       y       z     vdW  Elec       q    Type
REMARK                         _______ _______ _______ _____ _____    ______ ____
ROOT
ATOM      1  N   UNL     1      -1.381  13.169  22.226  0.00  0.00    +0.000 N 
ATOM      2  C   UNL     1      -0.674  14.165  21.635  0.00  0.00    +0.000 A 
ATOM      3  N   UNL     1      -0.863  15.468  21.739  0.00  0.00    +0.000 NA
ATOM      4  N   UNL     1       0.085  16.122  21.001  0.00  0.00    +0.000 NA
ATOM      5  C   UNL     1       0.833  15.206  20.437  0.00  0.00    +0.000 A 
ATOM      6  C   UNL     1       1.975  15.343  19.563  0.00  0.00    +0.000 A 
ATOM      7  C   UNL     1       2.505  16.583  19.202  0.00  0.00    +0.000 A 
ATOM      8  C   UNL     1       3.613  16.633  18.356  0.00  0.00    +0.000 A 
ATOM      9  C   UNL     1       4.188  15.451  17.886  0.00  0.00    +0.000 A 
ATOM     10  C   UNL     1       3.651  14.213  18.251  0.00  0.00    +0.000 A 
ATOM     11  C   UNL     1       2.535  14.148  19.084  0.00  0.00    +0.000 A 
ATOM     12  N   UNL     1       1.980  12.886  19.396  0.00  0.00    +0.000 NA
ATOM     13  C   UNL     1       0.939  12.807  20.178  0.00  0.00    +0.000 A 
ATOM     14  N   UNL     1       0.373  13.949  20.759  0.00  0.00    +0.000 N 
ATOM     15  H   UNL     1      -1.040  12.213  22.166  0.00  0.00    +0.000 HD
ENDROOT
BRANCH   1  19
ATOM     16  N   UNL     1      -4.975  12.178  24.973  0.00  0.00    +0.000 N 
ATOM     17  C   UNL     1      -4.329  12.707  23.922  0.00  0.00    +0.000 A 
ATOM     18  N   UNL     1      -3.028  12.718  23.803  0.00  0.00    +0.000 NA
ATOM     19  C   UNL     1      -2.687  13.240  22.576  0.00  0.00    +0.000 A 
ATOM     20  C   UNL     1      -3.737  13.706  21.813  0.00  0.00    +0.000 A 
ATOM     21  S   UNL     1      -5.211  13.413  22.628  0.00  0.00    +0.000 S 
ATOM     22  H   UNL     1      -4.439  12.025  25.819  0.00  0.00    +0.000 HD
ATOM     23  H   UNL     1      -5.949  12.409  25.111  0.00  0.00    +0.000 HD
ENDBRANCH   1  19
BRANCH  13  24
ATOM     24  S   UNL     1       0.279  11.201  20.431  0.00  0.00    +0.000 S 
BRANCH  24  25
ATOM     25  C   UNL     1      -0.847  11.019  19.051  0.00  0.00    +0.000 A 
ATOM     26  C   UNL     1      -1.944  11.863  18.825  0.00  0.00    +0.000 A 
ATOM     27  C   UNL     1      -2.796  11.645  17.736  0.00  0.00    +0.000 A 
ATOM     28  C   UNL     1      -2.544  10.593  16.854  0.00  0.00    +0.000 A 
ATOM     29 BR   UNL     1      -3.711  10.282  15.400  0.00  0.00    +0.000 Br
ATOM     30  C   UNL     1      -1.438   9.772  17.042  0.00  0.00    +0.000 A 
ATOM     31  C   UNL     1      -0.594   9.988  18.138  0.00  0.00    +0.000 A 
ENDBRANCH  24  25
ENDBRANCH  13  24
TORSDOF 3
ENDMDL
