MODEL 1
REMARK VINA RESULT:      -8.5      0.000      0.000
REMARK  Name = 
REMARK  11 active torsions:
REMARK  status: ('A' for Active; 'I' for Inactive)
REMARK    1  A    between atoms: C_1  and  C_2
REMARK    2  A    between atoms: C_2  and  C_3
REMARK    3  A    between atoms: C_2  and  N_4
REMARK    4  A    between atoms: C_2  and  C_9
REMARK    5  A    between atoms: N_4  and  S_5
REMARK    6  A    between atoms: S_5  and  C_6
REMARK    7  A    between atoms: C_9  and  N_10
REMARK    8  A    between atoms: C_9  and  C_31
REMARK    9  A    between atoms: C_11  and  C_13
REMARK   10  A    between atoms: C_16  and  C_17
REMARK   11  A    between atoms: N_33  and  O_34
REMARK                            x       y       z     vdW  Elec       q    Type
REMARK                         _______ _______ _______ _____ _____    ______ ____
ROOT
ATOM      1  N   UNL     1       3.673   5.421  17.780  0.00  0.00    +0.000 N 
ATOM      2  C   UNL     1       2.339   5.631  18.072  0.00  0.00    +0.000 C 
ATOM      3  O   UNL     1       1.473   4.789  17.859  0.00  0.00    +0.000 OA
ATOM      4  H   UNL     1       4.232   6.254  17.647  0.00  0.00    +0.000 HD
ENDROOT
BRANCH   2   5
ATOM      5  C   UNL     1       1.979   6.929  18.714  0.00  0.00    +0.000 A 
ATOM      6  C   UNL     1       1.750   8.046  17.903  0.00  0.00    +0.000 A 
ATOM      7  C   UNL     1       1.358   9.267  18.466  0.00  0.00    +0.000 A 
ATOM      8  C   UNL     1       1.176   9.398  19.853  0.00  0.00    +0.000 A 
ATOM      9  C   UNL     1       1.397   8.267  20.654  0.00  0.00    +0.000 A 
ATOM     10  C   UNL     1       1.790   7.043  20.094  0.00  0.00    +0.000 A 
BRANCH   8  11
ATOM     11  C   UNL     1       0.788  10.683  20.440  0.00  0.00    +0.000 A 
ATOM     12  C   UNL     1       1.289  11.971  20.357  0.00  0.00    +0.000 A 
ATOM     13  C   UNL     1       0.537  12.774  21.254  0.00  0.00    +0.000 A 
ATOM     14  C   UNL     1       0.597  14.117  21.679  0.00  0.00    +0.000 A 
ATOM     15  C   UNL     1      -0.288  14.476  22.682  0.00  0.00    +0.000 A 
ATOM     16  C   UNL     1      -1.229  13.610  23.195  0.00  0.00    +0.000 A 
ATOM     17  C   UNL     1      -1.371  12.306  22.759  0.00  0.00    +0.000 A 
ATOM     18  C   UNL     1      -0.427  11.925  21.802  0.00  0.00    +0.000 A 
ATOM     19  O   UNL     1      -0.282  10.668  21.295  0.00  0.00    +0.000 OA
ATOM     20  O   UNL     1      -1.952  14.183  24.202  0.00  0.00    +0.000 OA
ATOM     21  C   UNL     1      -1.191  15.390  24.409  0.00  0.00    +0.000 C 
ATOM     22  O   UNL     1      -0.306  15.687  23.311  0.00  0.00    +0.000 OA
ENDBRANCH   8  11
ENDBRANCH   2   5
BRANCH   1  23
ATOM     23  C   UNL     1       4.138   4.236  17.021  0.00  0.00    +0.000 C 
BRANCH  23  24
ATOM     24  C   UNL     1       4.280   2.999  17.955  0.00  0.00    +0.000 C 
ATOM     25  O   UNL     1       3.727   1.912  17.775  0.00  0.00    +0.000 OA
ATOM     26  N   UNL     1       5.034   3.205  19.085  0.00  0.00    +0.000 N 
ATOM     27  H   UNL     1       5.671   4.001  19.181  0.00  0.00    +0.000 HD
BRANCH  26  28
ATOM     28  O   UNL     1       5.240   2.086  19.923  0.00  0.00    +0.000 OA
ATOM     29  H   UNL     1       6.187   2.181  20.165  0.00  0.00    +0.000 HD
ENDBRANCH  26  28
ENDBRANCH  23  24
BRANCH  23  31
ATOM     30  C   UNL     1       5.301   5.759  15.280  0.00  0.00    +0.000 C 
ATOM     31  C   UNL     1       5.465   4.559  16.233  0.00  0.00    +0.000 C 
ATOM     32  C   UNL     1       5.966   3.343  15.412  0.00  0.00    +0.000 C 
BRANCH  31  33
ATOM     33  N   UNL     1       6.634   4.845  17.195  0.00  0.00    +0.000 NA
ATOM     34  H   UNL     1       7.465   4.344  16.863  0.00  0.00    +0.000 HD
BRANCH  33  35
ATOM     35  S   UNL     1       7.066   6.457  17.522  0.00  0.00    +0.000 S 
ATOM     36  C   UNL     1       8.016   6.263  19.013  0.00  0.00    +0.000 C 
ATOM     37  O   UNL     1       7.968   6.880  16.476  0.00  0.00    +0.000 OA
ATOM     38  O   UNL     1       5.865   7.187  17.846  0.00  0.00    +0.000 OA
ENDBRANCH  33  35
ENDBRANCH  31  33
ENDBRANCH  23  31
ENDBRANCH   1  23
TORSDOF 8
ENDMDL
MODEL 2
REMARK VINA RESULT:      -8.5      0.887      1.053
REMARK  Name = 
REMARK  11 active torsions:
REMARK  status: ('A' for Active; 'I' for Inactive)
REMARK    1  A    between atoms: C_1  and  C_2
REMARK    2  A    between atoms: C_2  and  C_3
REMARK    3  A    between atoms: C_2  and  N_4
REMARK    4  A    between atoms: C_2  and  C_9
REMARK    5  A    between atoms: N_4  and  S_5
REMARK    6  A    between atoms: S_5  and  C_6
REMARK    7  A    between atoms: C_9  and  N_10
REMARK    8  A    between atoms: C_9  and  C_31
REMARK    9  A    between atoms: C_11  and  C_13
REMARK   10  A    between atoms: C_16  and  C_17
REMARK   11  A    between atoms: N_33  and  O_34
REMARK                            x       y       z     vdW  Elec       q    Type
REMARK                         _______ _______ _______ _____ _____    ______ ____
ROOT
ATOM      1  N   UNL     1       3.867   5.459  17.977  0.00  0.00    +0.000 N 
ATOM      2  C   UNL     1       2.510   5.688  18.109  0.00  0.00    +0.000 C 
ATOM      3  O   UNL     1       1.663   4.876  17.753  0.00  0.00    +0.000 OA
ATOM      4  H   UNL     1       4.453   6.283  17.953  0.00  0.00    +0.000 HD
ENDROOT
BRANCH   2   5
ATOM      5  C   UNL     1       2.097   6.966  18.757  0.00  0.00    +0.000 A 
ATOM      6  C   UNL     1       1.877   8.093  17.957  0.00  0.00    +0.000 A 
ATOM      7  C   UNL     1       1.435   9.295  18.524  0.00  0.00    +0.000 A 
ATOM      8  C   UNL     1       1.194   9.397  19.904  0.00  0.00    +0.000 A 
ATOM      9  C   UNL     1       1.407   8.257  20.694  0.00  0.00    +0.000 A 
ATOM     10  C   UNL     1       1.849   7.053  20.130  0.00  0.00    +0.000 A 
BRANCH   8  11
ATOM     11  C   UNL     1       0.755  10.664  20.496  0.00  0.00    +0.000 A 
ATOM     12  C   UNL     1       1.183  11.976  20.392  0.00  0.00    +0.000 A 
ATOM     13  C   UNL     1       0.414  12.743  21.308  0.00  0.00    +0.000 A 
ATOM     14  C   UNL     1       0.415  14.089  21.725  0.00  0.00    +0.000 A 
ATOM     15  C   UNL     1      -0.459  14.407  22.751  0.00  0.00    +0.000 A 
ATOM     16  C   UNL     1      -1.337  13.495  23.295  0.00  0.00    +0.000 A 
ATOM     17  C   UNL     1      -1.421  12.182  22.869  0.00  0.00    +0.000 A 
ATOM     18  C   UNL     1      -0.486  11.846  21.887  0.00  0.00    +0.000 A 
ATOM     19  O   UNL     1      -0.288  10.596  21.382  0.00  0.00    +0.000 OA
ATOM     20  O   UNL     1      -2.061  14.035  24.320  0.00  0.00    +0.000 OA
ATOM     21  C   UNL     1      -1.360  15.282  24.499  0.00  0.00    +0.000 C 
ATOM     22  O   UNL     1      -0.524  15.619  23.374  0.00  0.00    +0.000 OA
ENDBRANCH   8  11
ENDBRANCH   2   5
BRANCH   1  23
ATOM     23  C   UNL     1       4.402   4.295  17.231  0.00  0.00    +0.000 C 
BRANCH  23  24
ATOM     24  C   UNL     1       4.370   3.010  18.109  0.00  0.00    +0.000 C 
ATOM     25  O   UNL     1       3.814   1.956  17.795  0.00  0.00    +0.000 OA
ATOM     26  N   UNL     1       4.959   3.132  19.344  0.00  0.00    +0.000 N 
ATOM     27  H   UNL     1       5.601   3.897  19.572  0.00  0.00    +0.000 HD
BRANCH  26  28
ATOM     28  O   UNL     1       5.008   1.966  20.142  0.00  0.00    +0.000 OA
ATOM     29  H   UNL     1       4.527   1.315  19.586  0.00  0.00    +0.000 HD
ENDBRANCH  26  28
ENDBRANCH  23  24
BRANCH  23  31
ATOM     30  C   UNL     1       5.986   6.074  16.219  0.00  0.00    +0.000 C 
ATOM     31  C   UNL     1       5.838   4.606  16.661  0.00  0.00    +0.000 C 
ATOM     32  C   UNL     1       6.200   3.692  15.462  0.00  0.00    +0.000 C 
BRANCH  31  33
ATOM     33  N   UNL     1       6.935   4.286  17.695  0.00  0.00    +0.000 NA
ATOM     34  H   UNL     1       7.795   4.033  17.198  0.00  0.00    +0.000 HD
BRANCH  33  35
ATOM     35  S   UNL     1       7.316   5.439  18.886  0.00  0.00    +0.000 S 
ATOM     36  C   UNL     1       7.665   6.867  17.883  0.00  0.00    +0.000 C 
ATOM     37  O   UNL     1       6.105   5.707  19.626  0.00  0.00    +0.000 OA
ATOM     38  O   UNL     1       8.540   5.033  19.531  0.00  0.00    +0.000 OA
ENDBRANCH  33  35
ENDBRANCH  31  33
ENDBRANCH  23  31
ENDBRANCH   1  23
TORSDOF 8
ENDMDL
MODEL 3
REMARK VINA RESULT:      -8.3      1.605      2.171
REMARK  Name = 
REMARK  11 active torsions:
REMARK  status: ('A' for Active; 'I' for Inactive)
REMARK    1  A    between atoms: C_1  and  C_2
REMARK    2  A    between atoms: C_2  and  C_3
REMARK    3  A    between atoms: C_2  and  N_4
REMARK    4  A    between atoms: C_2  and  C_9
REMARK    5  A    between atoms: N_4  and  S_5
REMARK    6  A    between atoms: S_5  and  C_6
REMARK    7  A    between atoms: C_9  and  N_10
REMARK    8  A    between atoms: C_9  and  C_31
REMARK    9  A    between atoms: C_11  and  C_13
REMARK   10  A    between atoms: C_16  and  C_17
REMARK   11  A    between atoms: N_33  and  O_34
REMARK                            x       y       z     vdW  Elec       q    Type
REMARK                         _______ _______ _______ _____ _____    ______ ____
ROOT
ATOM      1  N   UNL     1       4.375   6.339  18.424  0.00  0.00    +0.000 N 
ATOM      2  C   UNL     1       2.994   6.386  18.375  0.00  0.00    +0.000 C 
ATOM      3  O   UNL     1       2.320   5.513  17.839  0.00  0.00    +0.000 OA
ATOM      4  H   UNL     1       4.842   7.228  18.547  0.00  0.00    +0.000 HD
ENDROOT
BRANCH   2   5
ATOM      5  C   UNL     1       2.329   7.536  19.052  0.00  0.00    +0.000 A 
ATOM      6  C   UNL     1       2.041   8.687  18.310  0.00  0.00    +0.000 A 
ATOM      7  C   UNL     1       1.368   9.765  18.898  0.00  0.00    +0.000 A 
ATOM      8  C   UNL     1       0.958   9.715  20.241  0.00  0.00    +0.000 A 
ATOM      9  C   UNL     1       1.242   8.551  20.971  0.00  0.00    +0.000 A 
ATOM     10  C   UNL     1       1.916   7.470  20.386  0.00  0.00    +0.000 A 
BRANCH   8  11
ATOM     11  C   UNL     1       0.276  10.855  20.858  0.00  0.00    +0.000 A 
ATOM     12  C   UNL     1       0.516  12.217  20.897  0.00  0.00    +0.000 A 
ATOM     13  C   UNL     1      -0.453  12.793  21.761  0.00  0.00    +0.000 A 
ATOM     14  C   UNL     1      -0.696  14.086  22.265  0.00  0.00    +0.000 A 
ATOM     15  C   UNL     1      -1.716  14.194  23.195  0.00  0.00    +0.000 A 
ATOM     16  C   UNL     1      -2.507  13.127  23.565  0.00  0.00    +0.000 A 
ATOM     17  C   UNL     1      -2.350  11.856  23.044  0.00  0.00    +0.000 A 
ATOM     18  C   UNL     1      -1.272  11.735  22.164  0.00  0.00    +0.000 A 
ATOM     19  O   UNL     1      -0.839  10.571  21.603  0.00  0.00    +0.000 OA
ATOM     20  O   UNL     1      -3.412  13.474  24.527  0.00  0.00    +0.000 OA
ATOM     21  C   UNL     1      -2.925  14.786  24.875  0.00  0.00    +0.000 C 
ATOM     22  O   UNL     1      -2.027  15.328  23.886  0.00  0.00    +0.000 OA
ENDBRANCH   8  11
ENDBRANCH   2   5
BRANCH   1  23
ATOM     23  C   UNL     1       5.157   5.326  17.676  0.00  0.00    +0.000 C 
BRANCH  23  24
ATOM     24  C   UNL     1       4.991   3.916  18.312  0.00  0.00    +0.000 C 
ATOM     25  O   UNL     1       5.348   3.610  19.452  0.00  0.00    +0.000 OA
ATOM     26  N   UNL     1       4.463   2.959  17.480  0.00  0.00    +0.000 N 
ATOM     27  H   UNL     1       3.969   3.197  16.615  0.00  0.00    +0.000 HD
BRANCH  26  28
ATOM     28  O   UNL     1       4.235   1.683  18.044  0.00  0.00    +0.000 OA
ATOM     29  H   UNL     1       4.487   1.825  18.983  0.00  0.00    +0.000 HD
ENDBRANCH  26  28
ENDBRANCH  23  24
BRANCH  23  31
ATOM     30  C   UNL     1       7.491   5.378  18.794  0.00  0.00    +0.000 C 
ATOM     31  C   UNL     1       6.667   5.764  17.551  0.00  0.00    +0.000 C 
ATOM     32  C   UNL     1       6.814   7.289  17.315  0.00  0.00    +0.000 C 
BRANCH  31  33
ATOM     33  N   UNL     1       7.330   5.146  16.305  0.00  0.00    +0.000 NA
ATOM     34  H   UNL     1       7.773   4.261  16.570  0.00  0.00    +0.000 HD
BRANCH  33  35
ATOM     35  S   UNL     1       6.395   4.889  14.908  0.00  0.00    +0.000 S 
ATOM     36  C   UNL     1       7.621   5.084  13.633  0.00  0.00    +0.000 C 
ATOM     37  O   UNL     1       5.983   3.505  14.915  0.00  0.00    +0.000 OA
ATOM     38  O   UNL     1       5.451   5.974  14.792  0.00  0.00    +0.000 OA
ENDBRANCH  33  35
ENDBRANCH  31  33
ENDBRANCH  23  31
ENDBRANCH   1  23
TORSDOF 8
ENDMDL
MODEL 4
REMARK VINA RESULT:      -8.0      1.694      2.479
REMARK  Name = 
REMARK  11 active torsions:
REMARK  status: ('A' for Active; 'I' for Inactive)
REMARK    1  A    between atoms: C_1  and  C_2
REMARK    2  A    between atoms: C_2  and  C_3
REMARK    3  A    between atoms: C_2  and  N_4
REMARK    4  A    between atoms: C_2  and  C_9
REMARK    5  A    between atoms: N_4  and  S_5
REMARK    6  A    between atoms: S_5  and  C_6
REMARK    7  A    between atoms: C_9  and  N_10
REMARK    8  A    between atoms: C_9  and  C_31
REMARK    9  A    between atoms: C_11  and  C_13
REMARK   10  A    between atoms: C_16  and  C_17
REMARK   11  A    between atoms: N_33  and  O_34
REMARK                            x       y       z     vdW  Elec       q    Type
REMARK                         _______ _______ _______ _____ _____    ______ ____
ROOT
ATOM      1  N   UNL     1       4.450   6.257  18.154  0.00  0.00    +0.000 N 
ATOM      2  C   UNL     1       3.069   6.236  18.118  0.00  0.00    +0.000 C 
ATOM      3  O   UNL     1       2.430   5.257  17.745  0.00  0.00    +0.000 OA
ATOM      4  H   UNL     1       4.879   7.173  18.121  0.00  0.00    +0.000 HD
ENDROOT
BRANCH   2   5
ATOM      5  C   UNL     1       2.358   7.453  18.605  0.00  0.00    +0.000 A 
ATOM      6  C   UNL     1       1.948   7.509  19.942  0.00  0.00    +0.000 A 
ATOM      7  C   UNL     1       1.325   8.657  20.449  0.00  0.00    +0.000 A 
ATOM      8  C   UNL     1       1.106   9.780  19.633  0.00  0.00    +0.000 A 
ATOM      9  C   UNL     1       1.532   9.715  18.298  0.00  0.00    +0.000 A 
ATOM     10  C   UNL     1       2.155   8.568  17.788  0.00  0.00    +0.000 A 
BRANCH   8  11
ATOM     11  C   UNL     1       0.433  10.970  20.162  0.00  0.00    +0.000 A 
ATOM     12  C   UNL     1       0.852  12.072  20.886  0.00  0.00    +0.000 A 
ATOM     13  C   UNL     1      -0.304  12.836  21.198  0.00  0.00    +0.000 A 
ATOM     14  C   UNL     1      -0.557  13.997  21.955  0.00  0.00    +0.000 A 
ATOM     15  C   UNL     1      -1.887  14.354  22.094  0.00  0.00    +0.000 A 
ATOM     16  C   UNL     1      -2.914  13.672  21.475  0.00  0.00    +0.000 A 
ATOM     17  C   UNL     1      -2.706  12.570  20.666  0.00  0.00    +0.000 A 
ATOM     18  C   UNL     1      -1.370  12.168  20.591  0.00  0.00    +0.000 A 
ATOM     19  O   UNL     1      -0.918  11.052  19.953  0.00  0.00    +0.000 OA
ATOM     20  O   UNL     1      -4.135  14.188  21.800  0.00  0.00    +0.000 OA
ATOM     21  C   UNL     1      -3.760  15.087  22.863  0.00  0.00    +0.000 C 
ATOM     22  O   UNL     1      -2.346  15.369  22.882  0.00  0.00    +0.000 OA
ENDBRANCH   8  11
ENDBRANCH   2   5
BRANCH   1  23
ATOM     23  C   UNL     1       5.272   5.168  17.573  0.00  0.00    +0.000 C 
BRANCH  23  24
ATOM     24  C   UNL     1       5.024   3.826  18.322  0.00  0.00    +0.000 C 
ATOM     25  O   UNL     1       5.279   3.626  19.511  0.00  0.00    +0.000 OA
ATOM     26  N   UNL     1       4.549   2.801  17.541  0.00  0.00    +0.000 N 
ATOM     27  H   UNL     1       4.134   2.961  16.619  0.00  0.00    +0.000 HD
BRANCH  26  28
ATOM     28  O   UNL     1       4.249   1.587  18.201  0.00  0.00    +0.000 OA
ATOM     29  H   UNL     1       3.906   1.902  19.066  0.00  0.00    +0.000 HD
ENDBRANCH  26  28
ENDBRANCH  23  24
BRANCH  23  31
ATOM     30  C   UNL     1       7.554   5.107  18.792  0.00  0.00    +0.000 C 
ATOM     31  C   UNL     1       6.795   5.573  17.535  0.00  0.00    +0.000 C 
ATOM     32  C   UNL     1       6.987   7.103  17.381  0.00  0.00    +0.000 C 
BRANCH  31  33
ATOM     33  N   UNL     1       7.498   4.999  16.290  0.00  0.00    +0.000 NA
ATOM     34  H   UNL     1       7.627   3.991  16.417  0.00  0.00    +0.000 HD
BRANCH  33  35
ATOM     35  S   UNL     1       6.820   5.271  14.754  0.00  0.00    +0.000 S 
ATOM     36  C   UNL     1       6.212   3.648  14.355  0.00  0.00    +0.000 C 
ATOM     37  O   UNL     1       5.679   6.137  14.936  0.00  0.00    +0.000 OA
ATOM     38  O   UNL     1       7.890   5.588  13.840  0.00  0.00    +0.000 OA
ENDBRANCH  33  35
ENDBRANCH  31  33
ENDBRANCH  23  31
ENDBRANCH   1  23
TORSDOF 8
ENDMDL
MODEL 5
REMARK VINA RESULT:      -8.0      0.933      1.311
REMARK  Name = 
REMARK  11 active torsions:
REMARK  status: ('A' for Active; 'I' for Inactive)
REMARK    1  A    between atoms: C_1  and  C_2
REMARK    2  A    between atoms: C_2  and  C_3
REMARK    3  A    between atoms: C_2  and  N_4
REMARK    4  A    between atoms: C_2  and  C_9
REMARK    5  A    between atoms: N_4  and  S_5
REMARK    6  A    between atoms: S_5  and  C_6
REMARK    7  A    between atoms: C_9  and  N_10
REMARK    8  A    between atoms: C_9  and  C_31
REMARK    9  A    between atoms: C_11  and  C_13
REMARK   10  A    between atoms: C_16  and  C_17
REMARK   11  A    between atoms: N_33  and  O_34
REMARK                            x       y       z     vdW  Elec       q    Type
REMARK                         _______ _______ _______ _____ _____    ______ ____
ROOT
ATOM      1  N   UNL     1       3.799   5.755  18.000  0.00  0.00    +0.000 N 
ATOM      2  C   UNL     1       2.818   5.727  18.973  0.00  0.00    +0.000 C 
ATOM      3  O   UNL     1       2.518   4.705  19.581  0.00  0.00    +0.000 OA
ATOM      4  H   UNL     1       3.730   6.507  17.326  0.00  0.00    +0.000 HD
ENDROOT
BRANCH   2   5
ATOM      5  C   UNL     1       2.150   7.018  19.303  0.00  0.00    +0.000 A 
ATOM      6  C   UNL     1       1.646   7.210  20.595  0.00  0.00    +0.000 A 
ATOM      7  C   UNL     1       1.060   8.430  20.957  0.00  0.00    +0.000 A 
ATOM      8  C   UNL     1       0.973   9.490  20.040  0.00  0.00    +0.000 A 
ATOM      9  C   UNL     1       1.492   9.289  18.753  0.00  0.00    +0.000 A 
ATOM     10  C   UNL     1       2.079   8.070  18.386  0.00  0.00    +0.000 A 
BRANCH   8  11
ATOM     11  C   UNL     1       0.338  10.756  20.417  0.00  0.00    +0.000 A 
ATOM     12  C   UNL     1       0.180  11.980  19.791  0.00  0.00    +0.000 A 
ATOM     13  C   UNL     1      -0.436  12.855  20.725  0.00  0.00    +0.000 A 
ATOM     14  C   UNL     1      -0.786  14.220  20.729  0.00  0.00    +0.000 A 
ATOM     15  C   UNL     1      -1.284  14.715  21.922  0.00  0.00    +0.000 A 
ATOM     16  C   UNL     1      -1.502  13.922  23.029  0.00  0.00    +0.000 A 
ATOM     17  C   UNL     1      -1.239  12.565  23.047  0.00  0.00    +0.000 A 
ATOM     18  C   UNL     1      -0.665  12.085  21.867  0.00  0.00    +0.000 A 
ATOM     19  O   UNL     1      -0.213  10.815  21.671  0.00  0.00    +0.000 OA
ATOM     20  O   UNL     1      -1.955  14.647  24.093  0.00  0.00    +0.000 OA
ATOM     21  C   UNL     1      -1.755  15.986  23.595  0.00  0.00    +0.000 C 
ATOM     22  O   UNL     1      -1.567  16.027  22.167  0.00  0.00    +0.000 OA
ENDBRANCH   8  11
ENDBRANCH   2   5
BRANCH   1  23
ATOM     23  C   UNL     1       4.439   4.521  17.486  0.00  0.00    +0.000 C 
BRANCH  23  24
ATOM     24  C   UNL     1       5.013   3.667  18.654  0.00  0.00    +0.000 C 
ATOM     25  O   UNL     1       5.900   4.036  19.427  0.00  0.00    +0.000 OA
ATOM     26  N   UNL     1       4.509   2.392  18.748  0.00  0.00    +0.000 N 
ATOM     27  H   UNL     1       3.645   2.109  18.277  0.00  0.00    +0.000 HD
BRANCH  26  28
ATOM     28  O   UNL     1       4.958   1.611  19.837  0.00  0.00    +0.000 OA
ATOM     29  H   UNL     1       5.106   2.290  20.531  0.00  0.00    +0.000 HD
ENDBRANCH  26  28
ENDBRANCH  23  24
BRANCH  23  31
ATOM     30  C   UNL     1       5.103   6.052  15.508  0.00  0.00    +0.000 C 
ATOM     31  C   UNL     1       5.521   4.863  16.393  0.00  0.00    +0.000 C 
ATOM     32  C   UNL     1       5.827   3.650  15.476  0.00  0.00    +0.000 C 
BRANCH  31  33
ATOM     33  N   UNL     1       6.888   5.176  17.033  0.00  0.00    +0.000 NA
ATOM     34  H   UNL     1       7.629   4.839  16.412  0.00  0.00    +0.000 HD
BRANCH  33  35
ATOM     35  S   UNL     1       7.245   6.776  17.486  0.00  0.00    +0.000 S 
ATOM     36  C   UNL     1       8.136   6.513  19.003  0.00  0.00    +0.000 C 
ATOM     37  O   UNL     1       8.175   7.300  16.513  0.00  0.00    +0.000 OA
ATOM     38  O   UNL     1       6.005   7.441  17.803  0.00  0.00    +0.000 OA
ENDBRANCH  33  35
ENDBRANCH  31  33
ENDBRANCH  23  31
ENDBRANCH   1  23
TORSDOF 8
ENDMDL
MODEL 6
REMARK VINA RESULT:      -8.0      0.956      1.428
REMARK  Name = 
REMARK  11 active torsions:
REMARK  status: ('A' for Active; 'I' for Inactive)
REMARK    1  A    between atoms: C_1  and  C_2
REMARK    2  A    between atoms: C_2  and  C_3
REMARK    3  A    between atoms: C_2  and  N_4
REMARK    4  A    between atoms: C_2  and  C_9
REMARK    5  A    between atoms: N_4  and  S_5
REMARK    6  A    between atoms: S_5  and  C_6
REMARK    7  A    between atoms: C_9  and  N_10
REMARK    8  A    between atoms: C_9  and  C_31
REMARK    9  A    between atoms: C_11  and  C_13
REMARK   10  A    between atoms: C_16  and  C_17
REMARK   11  A    between atoms: N_33  and  O_34
REMARK                            x       y       z     vdW  Elec       q    Type
REMARK                         _______ _______ _______ _____ _____    ______ ____
ROOT
ATOM      1  N   UNL     1       3.635   5.477  17.774  0.00  0.00    +0.000 N 
ATOM      2  C   UNL     1       2.497   5.439  18.558  0.00  0.00    +0.000 C 
ATOM      3  O   UNL     1       1.880   4.402  18.780  0.00  0.00    +0.000 OA
ATOM      4  H   UNL     1       3.855   6.373  17.361  0.00  0.00    +0.000 HD
ENDROOT
BRANCH   2   5
ATOM      5  C   UNL     1       2.056   6.720  19.181  0.00  0.00    +0.000 A 
ATOM      6  C   UNL     1       2.029   7.880  18.398  0.00  0.00    +0.000 A 
ATOM      7  C   UNL     1       1.570   9.090  18.934  0.00  0.00    +0.000 A 
ATOM      8  C   UNL     1       1.118   9.168  20.262  0.00  0.00    +0.000 A 
ATOM      9  C   UNL     1       1.140   7.995  21.032  0.00  0.00    +0.000 A 
ATOM     10  C   UNL     1       1.599   6.783  20.500  0.00  0.00    +0.000 A 
BRANCH   8  11
ATOM     11  C   UNL     1       0.661  10.441  20.824  0.00  0.00    +0.000 A 
ATOM     12  C   UNL     1      -0.027  10.798  21.970  0.00  0.00    +0.000 A 
ATOM     13  C   UNL     1      -0.271  12.195  21.899  0.00  0.00    +0.000 A 
ATOM     14  C   UNL     1      -0.971  13.126  22.693  0.00  0.00    +0.000 A 
ATOM     15  C   UNL     1      -1.054  14.412  22.188  0.00  0.00    +0.000 A 
ATOM     16  C   UNL     1      -0.434  14.799  21.019  0.00  0.00    +0.000 A 
ATOM     17  C   UNL     1       0.321  13.937  20.245  0.00  0.00    +0.000 A 
ATOM     18  C   UNL     1       0.338  12.623  20.717  0.00  0.00    +0.000 A 
ATOM     19  O   UNL     1       0.914  11.565  20.081  0.00  0.00    +0.000 OA
ATOM     20  O   UNL     1      -0.700  16.103  20.710  0.00  0.00    +0.000 OA
ATOM     21  C   UNL     1      -1.734  16.389  21.672  0.00  0.00    +0.000 C 
ATOM     22  O   UNL     1      -1.784  15.423  22.741  0.00  0.00    +0.000 OA
ENDBRANCH   8  11
ENDBRANCH   2   5
BRANCH   1  23
ATOM     23  C   UNL     1       4.095   4.304  16.993  0.00  0.00    +0.000 C 
BRANCH  23  24
ATOM     24  C   UNL     1       4.264   3.058  17.911  0.00  0.00    +0.000 C 
ATOM     25  O   UNL     1       3.723   1.967  17.724  0.00  0.00    +0.000 OA
ATOM     26  N   UNL     1       5.029   3.260  19.034  0.00  0.00    +0.000 N 
ATOM     27  H   UNL     1       5.657   4.063  19.133  0.00  0.00    +0.000 HD
BRANCH  26  28
ATOM     28  O   UNL     1       5.260   2.133  19.856  0.00  0.00    +0.000 OA
ATOM     29  H   UNL     1       6.160   2.312  20.203  0.00  0.00    +0.000 HD
ENDBRANCH  26  28
ENDBRANCH  23  24
BRANCH  23  31
ATOM     30  C   UNL     1       5.222   5.872  15.269  0.00  0.00    +0.000 C 
ATOM     31  C   UNL     1       5.405   4.647  16.186  0.00  0.00    +0.000 C 
ATOM     32  C   UNL     1       5.887   3.453  15.323  0.00  0.00    +0.000 C 
BRANCH  31  33
ATOM     33  N   UNL     1       6.596   4.907  17.129  0.00  0.00    +0.000 NA
ATOM     34  H   UNL     1       7.420   4.420  16.763  0.00  0.00    +0.000 HD
BRANCH  33  35
ATOM     35  S   UNL     1       7.030   6.510  17.497  0.00  0.00    +0.000 S 
ATOM     36  C   UNL     1       7.982   6.276  18.981  0.00  0.00    +0.000 C 
ATOM     37  O   UNL     1       7.931   6.958  16.461  0.00  0.00    +0.000 OA
ATOM     38  O   UNL     1       5.830   7.233  17.841  0.00  0.00    +0.000 OA
ENDBRANCH  33  35
ENDBRANCH  31  33
ENDBRANCH  23  31
ENDBRANCH   1  23
TORSDOF 8
ENDMDL
MODEL 7
REMARK VINA RESULT:      -8.0      1.399      2.452
REMARK  Name = 
REMARK  11 active torsions:
REMARK  status: ('A' for Active; 'I' for Inactive)
REMARK    1  A    between atoms: C_1  and  C_2
REMARK    2  A    between atoms: C_2  and  C_3
REMARK    3  A    between atoms: C_2  and  N_4
REMARK    4  A    between atoms: C_2  and  C_9
REMARK    5  A    between atoms: N_4  and  S_5
REMARK    6  A    between atoms: S_5  and  C_6
REMARK    7  A    between atoms: C_9  and  N_10
REMARK    8  A    between atoms: C_9  and  C_31
REMARK    9  A    between atoms: C_11  and  C_13
REMARK   10  A    between atoms: C_16  and  C_17
REMARK   11  A    between atoms: N_33  and  O_34
REMARK                            x       y       z     vdW  Elec       q    Type
REMARK                         _______ _______ _______ _____ _____    ______ ____
ROOT
ATOM      1  N   UNL     1       4.303   6.207  18.346  0.00  0.00    +0.000 N 
ATOM      2  C   UNL     1       2.924   6.244  18.257  0.00  0.00    +0.000 C 
ATOM      3  O   UNL     1       2.277   5.409  17.635  0.00  0.00    +0.000 OA
ATOM      4  H   UNL     1       4.756   7.088  18.551  0.00  0.00    +0.000 HD
ENDROOT
BRANCH   2   5
ATOM      5  C   UNL     1       2.225   7.333  19.000  0.00  0.00    +0.000 A 
ATOM      6  C   UNL     1       1.909   7.139  20.349  0.00  0.00    +0.000 A 
ATOM      7  C   UNL     1       1.301   8.158  21.092  0.00  0.00    +0.000 A 
ATOM      8  C   UNL     1       1.002   9.400  20.507  0.00  0.00    +0.000 A 
ATOM      9  C   UNL     1       1.335   9.586  19.156  0.00  0.00    +0.000 A 
ATOM     10  C   UNL     1       1.943   8.568  18.409  0.00  0.00    +0.000 A 
BRANCH   8  11
ATOM     11  C   UNL     1       0.345  10.455  21.282  0.00  0.00    +0.000 A 
ATOM     12  C   UNL     1      -0.576  10.461  22.315  0.00  0.00    +0.000 A 
ATOM     13  C   UNL     1      -0.915  11.816  22.571  0.00  0.00    +0.000 A 
ATOM     14  C   UNL     1      -1.826  12.471  23.424  0.00  0.00    +0.000 A 
ATOM     15  C   UNL     1      -1.916  13.845  23.275  0.00  0.00    +0.000 A 
ATOM     16  C   UNL     1      -1.118  14.557  22.405  0.00  0.00    +0.000 A 
ATOM     17  C   UNL     1      -0.163  13.964  21.601  0.00  0.00    +0.000 A 
ATOM     18  C   UNL     1      -0.129  12.571  21.698  0.00  0.00    +0.000 A 
ATOM     19  O   UNL     1       0.642  11.746  20.934  0.00  0.00    +0.000 OA
ATOM     20  O   UNL     1      -1.426  15.888  22.407  0.00  0.00    +0.000 OA
ATOM     21  C   UNL     1      -2.644  15.868  23.178  0.00  0.00    +0.000 C 
ATOM     22  O   UNL     1      -2.817  14.643  23.916  0.00  0.00    +0.000 OA
ENDBRANCH   8  11
ENDBRANCH   2   5
BRANCH   1  23
ATOM     23  C   UNL     1       5.120   5.262  17.547  0.00  0.00    +0.000 C 
BRANCH  23  24
ATOM     24  C   UNL     1       4.902   3.797  18.028  0.00  0.00    +0.000 C 
ATOM     25  O   UNL     1       4.421   2.895  17.340  0.00  0.00    +0.000 OA
ATOM     26  N   UNL     1       5.224   3.560  19.342  0.00  0.00    +0.000 N 
ATOM     27  H   UNL     1       5.807   4.202  19.888  0.00  0.00    +0.000 HD
BRANCH  26  28
ATOM     28  O   UNL     1       5.102   2.227  19.794  0.00  0.00    +0.000 OA
ATOM     29  H   UNL     1       5.455   1.718  19.032  0.00  0.00    +0.000 HD
ENDBRANCH  26  28
ENDBRANCH  23  24
BRANCH  23  31
ATOM     30  C   UNL     1       7.339   5.322  18.879  0.00  0.00    +0.000 C 
ATOM     31  C   UNL     1       6.638   5.686  17.557  0.00  0.00    +0.000 C 
ATOM     32  C   UNL     1       6.820   7.205  17.304  0.00  0.00    +0.000 C 
BRANCH  31  33
ATOM     33  N   UNL     1       7.410   5.037  16.391  0.00  0.00    +0.000 NA
ATOM     34  H   UNL     1       7.502   4.033  16.573  0.00  0.00    +0.000 HD
BRANCH  33  35
ATOM     35  S   UNL     1       6.848   5.252  14.801  0.00  0.00    +0.000 S 
ATOM     36  C   UNL     1       6.265   3.616  14.418  0.00  0.00    +0.000 C 
ATOM     37  O   UNL     1       5.699   6.125  14.866  0.00  0.00    +0.000 OA
ATOM     38  O   UNL     1       7.982   5.534  13.956  0.00  0.00    +0.000 OA
ENDBRANCH  33  35
ENDBRANCH  31  33
ENDBRANCH  23  31
ENDBRANCH   1  23
TORSDOF 8
ENDMDL
MODEL 8
REMARK VINA RESULT:      -8.0      1.862      2.789
REMARK  Name = 
REMARK  11 active torsions:
REMARK  status: ('A' for Active; 'I' for Inactive)
REMARK    1  A    between atoms: C_1  and  C_2
REMARK    2  A    between atoms: C_2  and  C_3
REMARK    3  A    between atoms: C_2  and  N_4
REMARK    4  A    between atoms: C_2  and  C_9
REMARK    5  A    between atoms: N_4  and  S_5
REMARK    6  A    between atoms: S_5  and  C_6
REMARK    7  A    between atoms: C_9  and  N_10
REMARK    8  A    between atoms: C_9  and  C_31
REMARK    9  A    between atoms: C_11  and  C_13
REMARK   10  A    between atoms: C_16  and  C_17
REMARK   11  A    between atoms: N_33  and  O_34
REMARK                            x       y       z     vdW  Elec       q    Type
REMARK                         _______ _______ _______ _____ _____    ______ ____
ROOT
ATOM      1  N   UNL     1       4.436   6.274  18.165  0.00  0.00    +0.000 N 
ATOM      2  C   UNL     1       3.055   6.233  18.145  0.00  0.00    +0.000 C 
ATOM      3  O   UNL     1       2.427   5.242  17.787  0.00  0.00    +0.000 OA
ATOM      4  H   UNL     1       4.851   7.196  18.120  0.00  0.00    +0.000 HD
ENDROOT
BRANCH   2   5
ATOM      5  C   UNL     1       2.331   7.443  18.630  0.00  0.00    +0.000 A 
ATOM      6  C   UNL     1       1.955   7.515  19.976  0.00  0.00    +0.000 A 
ATOM      7  C   UNL     1       1.322   8.658  20.480  0.00  0.00    +0.000 A 
ATOM      8  C   UNL     1       1.058   9.762  19.652  0.00  0.00    +0.000 A 
ATOM      9  C   UNL     1       1.451   9.683  18.307  0.00  0.00    +0.000 A 
ATOM     10  C   UNL     1       2.084   8.540  17.800  0.00  0.00    +0.000 A 
BRANCH   8  11
ATOM     11  C   UNL     1       0.375  10.947  20.178  0.00  0.00    +0.000 A 
ATOM     12  C   UNL     1      -0.471  11.176  21.248  0.00  0.00    +0.000 A 
ATOM     13  C   UNL     1      -0.896  12.528  21.169  0.00  0.00    +0.000 A 
ATOM     14  C   UNL     1      -1.795  13.334  21.895  0.00  0.00    +0.000 A 
ATOM     15  C   UNL     1      -2.001  14.611  21.401  0.00  0.00    +0.000 A 
ATOM     16  C   UNL     1      -1.323  15.109  20.309  0.00  0.00    +0.000 A 
ATOM     17  C   UNL     1      -0.381  14.378  19.609  0.00  0.00    +0.000 A 
ATOM     18  C   UNL     1      -0.232  13.066  20.064  0.00  0.00    +0.000 A 
ATOM     19  O   UNL     1       0.547  12.113  19.479  0.00  0.00    +0.000 OA
ATOM     20  O   UNL     1      -1.732  16.373  19.989  0.00  0.00    +0.000 OA
ATOM     21  C   UNL     1      -2.890  16.490  20.840  0.00  0.00    +0.000 C 
ATOM     22  O   UNL     1      -2.917  15.499  21.886  0.00  0.00    +0.000 OA
ENDBRANCH   8  11
ENDBRANCH   2   5
BRANCH   1  23
ATOM     23  C   UNL     1       5.267   5.192  17.584  0.00  0.00    +0.000 C 
BRANCH  23  24
ATOM     24  C   UNL     1       5.033   3.849  18.335  0.00  0.00    +0.000 C 
ATOM     25  O   UNL     1       5.313   3.645  19.518  0.00  0.00    +0.000 OA
ATOM     26  N   UNL     1       4.539   2.827  17.562  0.00  0.00    +0.000 N 
ATOM     27  H   UNL     1       4.104   2.990  16.649  0.00  0.00    +0.000 HD
BRANCH  26  28
ATOM     28  O   UNL     1       4.251   1.612  18.225  0.00  0.00    +0.000 OA
ATOM     29  H   UNL     1       4.479   0.945  17.542  0.00  0.00    +0.000 HD
ENDBRANCH  26  28
ENDBRANCH  23  24
BRANCH  23  31
ATOM     30  C   UNL     1       7.549   5.166  18.806  0.00  0.00    +0.000 C 
ATOM     31  C   UNL     1       6.786   5.612  17.544  0.00  0.00    +0.000 C 
ATOM     32  C   UNL     1       6.964   7.143  17.375  0.00  0.00    +0.000 C 
BRANCH  31  33
ATOM     33  N   UNL     1       7.496   5.033  16.304  0.00  0.00    +0.000 NA
ATOM     34  H   UNL     1       7.631   4.027  16.440  0.00  0.00    +0.000 HD
BRANCH  33  35
ATOM     35  S   UNL     1       6.820   5.289  14.765  0.00  0.00    +0.000 S 
ATOM     36  C   UNL     1       6.227   3.658  14.376  0.00  0.00    +0.000 C 
ATOM     37  O   UNL     1       5.671   6.146  14.938  0.00  0.00    +0.000 OA
ATOM     38  O   UNL     1       7.889   5.608  13.851  0.00  0.00    +0.000 OA
ENDBRANCH  33  35
ENDBRANCH  31  33
ENDBRANCH  23  31
ENDBRANCH   1  23
TORSDOF 8
ENDMDL
MODEL 9
REMARK VINA RESULT:      -7.9      1.858      2.284
REMARK  Name = 
REMARK  11 active torsions:
REMARK  status: ('A' for Active; 'I' for Inactive)
REMARK    1  A    between atoms: C_1  and  C_2
REMARK    2  A    between atoms: C_2  and  C_3
REMARK    3  A    between atoms: C_2  and  N_4
REMARK    4  A    between atoms: C_2  and  C_9
REMARK    5  A    between atoms: N_4  and  S_5
REMARK    6  A    between atoms: S_5  and  C_6
REMARK    7  A    between atoms: C_9  and  N_10
REMARK    8  A    between atoms: C_9  and  C_31
REMARK    9  A    between atoms: C_11  and  C_13
REMARK   10  A    between atoms: C_16  and  C_17
REMARK   11  A    between atoms: N_33  and  O_34
REMARK                            x       y       z     vdW  Elec       q    Type
REMARK                         _______ _______ _______ _____ _____    ______ ____
ROOT
ATOM      1  N   UNL     1       2.741   5.761  17.746  0.00  0.00    +0.000 N 
ATOM      2  C   UNL     1       3.044   6.154  19.036  0.00  0.00    +0.000 C 
ATOM      3  O   UNL     1       3.976   5.674  19.674  0.00  0.00    +0.000 OA
ATOM      4  H   UNL     1       1.789   5.927  17.447  0.00  0.00    +0.000 HD
ENDROOT
BRANCH   2   5
ATOM      5  C   UNL     1       2.213   7.242  19.628  0.00  0.00    +0.000 A 
ATOM      6  C   UNL     1       1.945   8.383  18.864  0.00  0.00    +0.000 A 
ATOM      7  C   UNL     1       1.124   9.401  19.367  0.00  0.00    +0.000 A 
ATOM      8  C   UNL     1       0.544   9.297  20.643  0.00  0.00    +0.000 A 
ATOM      9  C   UNL     1       0.811   8.143  21.394  0.00  0.00    +0.000 A 
ATOM     10  C   UNL     1       1.633   7.123  20.894  0.00  0.00    +0.000 A 
BRANCH   8  11
ATOM     11  C   UNL     1      -0.295  10.375  21.173  0.00  0.00    +0.000 A 
ATOM     12  C   UNL     1      -0.665  10.771  22.446  0.00  0.00    +0.000 A 
ATOM     13  C   UNL     1      -1.597  11.834  22.303  0.00  0.00    +0.000 A 
ATOM     14  C   UNL     1      -2.381  12.597  23.192  0.00  0.00    +0.000 A 
ATOM     15  C   UNL     1      -3.265  13.489  22.608  0.00  0.00    +0.000 A 
ATOM     16  C   UNL     1      -3.337  13.688  21.245  0.00  0.00    +0.000 A 
ATOM     17  C   UNL     1      -2.537  13.012  20.342  0.00  0.00    +0.000 A 
ATOM     18  C   UNL     1      -1.702  12.059  20.929  0.00  0.00    +0.000 A 
ATOM     19  O   UNL     1      -0.902  11.188  20.252  0.00  0.00    +0.000 OA
ATOM     20  O   UNL     1      -4.313  14.583  20.913  0.00  0.00    +0.000 OA
ATOM     21  C   UNL     1      -4.982  14.716  22.183  0.00  0.00    +0.000 C 
ATOM     22  O   UNL     1      -4.190  14.228  23.284  0.00  0.00    +0.000 OA
ENDBRANCH   8  11
ENDBRANCH   2   5
BRANCH   1  23
ATOM     23  C   UNL     1       3.401   4.602  17.099  0.00  0.00    +0.000 C 
BRANCH  23  24
ATOM     24  C   UNL     1       3.339   3.345  18.014  0.00  0.00    +0.000 C 
ATOM     25  O   UNL     1       4.291   2.891  18.653  0.00  0.00    +0.000 OA
ATOM     26  N   UNL     1       2.132   2.690  18.026  0.00  0.00    +0.000 N 
ATOM     27  H   UNL     1       1.269   3.126  17.688  0.00  0.00    +0.000 HD
BRANCH  26  28
ATOM     28  O   UNL     1       2.019   1.584  18.898  0.00  0.00    +0.000 OA
ATOM     29  H   UNL     1       1.947   2.019  19.775  0.00  0.00    +0.000 HD
ENDBRANCH  26  28
ENDBRANCH  23  24
BRANCH  23  31
ATOM     30  C   UNL     1       4.991   6.419  16.166  0.00  0.00    +0.000 C 
ATOM     31  C   UNL     1       4.872   4.966  16.662  0.00  0.00    +0.000 C 
ATOM     32  C   UNL     1       5.401   4.021  15.553  0.00  0.00    +0.000 C 
BRANCH  31  33
ATOM     33  N   UNL     1       5.870   4.752  17.817  0.00  0.00    +0.000 NA
ATOM     34  H   UNL     1       5.876   3.759  18.069  0.00  0.00    +0.000 HD
BRANCH  33  35
ATOM     35  S   UNL     1       7.477   5.277  17.633  0.00  0.00    +0.000 S 
ATOM     36  C   UNL     1       7.840   5.853  19.276  0.00  0.00    +0.000 C 
ATOM     37  O   UNL     1       8.286   4.105  17.389  0.00  0.00    +0.000 OA
ATOM     38  O   UNL     1       7.480   6.414  16.747  0.00  0.00    +0.000 OA
ENDBRANCH  33  35
ENDBRANCH  31  33
ENDBRANCH  23  31
ENDBRANCH   1  23
TORSDOF 8
ENDMDL
