MODEL 1
REMARK VINA RESULT:      -5.1      0.000      0.000
REMARK  Name = 
REMARK  8 active torsions:
REMARK  status: ('A' for Active; 'I' for Inactive)
REMARK    1  A    between atoms: C_1  and  N_2
REMARK    2  A    between atoms: N_2  and  C_3
REMARK    3  A    between atoms: N_2  and  C_4
REMARK    4  A    between atoms: N_2  and  C_5
REMARK    5  A    between atoms: C_5  and  C_6
REMARK    6  A    between atoms: C_6  and  C_7
REMARK    7  A    between atoms: C_6  and  N_11
REMARK    8  A    between atoms: C_7  and  C_8
REMARK                            x       y       z     vdW  Elec       q    Type
REMARK                         _______ _______ _______ _____ _____    ______ ____
ROOT
ATOM      1  C   UNL     1       6.256   5.742  17.273  0.00  0.00    +0.000 C 
ENDROOT
BRANCH   1   2
ATOM      2  N   UNL     1       6.761   7.049  16.841  0.00  0.00    +0.000 N 
ATOM      3  C   UNL     1       7.700   7.765  17.531  0.00  0.00    +0.000 C 
ATOM      4  O   UNL     1       8.242   7.377  18.550  0.00  0.00    +0.000 OA
ATOM      5  H   UNL     1       6.181   7.534  16.148  0.00  0.00    +0.000 HD
ENDBRANCH   1   2
BRANCH   1   6
ATOM      6  C   UNL     1       4.707   5.689  17.076  0.00  0.00    +0.000 C 
BRANCH   6   8
ATOM      7  C   UNL     1       4.430   4.682  19.380  0.00  0.00    +0.000 C 
ATOM      8  N   UNL     1       3.869   4.735  17.975  0.00  0.00    +0.000 N 
ATOM      9  C   UNL     1       3.785   3.333  17.380  0.00  0.00    +0.000 C 
ATOM     10  C   UNL     1       2.447   5.310  18.026  0.00  0.00    +0.000 C 
ENDBRANCH   6   8
ENDBRANCH   1   6
BRANCH   1  11
ATOM     11  C   UNL     1       7.106   4.671  16.601  0.00  0.00    +0.000 C 
BRANCH  11  12
ATOM     12  C   UNL     1       6.990   4.643  15.085  0.00  0.00    +0.000 C 
ATOM     13  O   UNL     1       7.719   5.475  14.491  0.00  0.00    +0.000 OA
ATOM     14  O   UNL     1       6.249   3.736  14.618  0.00  0.00    +0.000 OA
ENDBRANCH  11  12
ENDBRANCH   1  11
TORSDOF 5
ENDMDL
MODEL 2
REMARK VINA RESULT:      -5.0      1.906      2.513
REMARK  Name = 
REMARK  8 active torsions:
REMARK  status: ('A' for Active; 'I' for Inactive)
REMARK    1  A    between atoms: C_1  and  N_2
REMARK    2  A    between atoms: N_2  and  C_3
REMARK    3  A    between atoms: N_2  and  C_4
REMARK    4  A    between atoms: N_2  and  C_5
REMARK    5  A    between atoms: C_5  and  C_6
REMARK    6  A    between atoms: C_6  and  C_7
REMARK    7  A    between atoms: C_6  and  N_11
REMARK    8  A    between atoms: C_7  and  C_8
REMARK                            x       y       z     vdW  Elec       q    Type
REMARK                         _______ _______ _______ _____ _____    ______ ____
ROOT
ATOM      1  C   UNL     1       5.023   4.140  17.329  0.00  0.00    +0.000 C 
ENDROOT
BRANCH   1   2
ATOM      2  N   UNL     1       5.470   5.467  17.763  0.00  0.00    +0.000 N 
ATOM      3  C   UNL     1       6.098   5.704  18.955  0.00  0.00    +0.000 C 
ATOM      4  O   UNL     1       6.385   4.837  19.759  0.00  0.00    +0.000 OA
ATOM      5  H   UNL     1       5.047   6.256  17.263  0.00  0.00    +0.000 HD
ENDBRANCH   1   2
BRANCH   1   6
ATOM      6  C   UNL     1       3.472   4.034  17.486  0.00  0.00    +0.000 C 
BRANCH   6   8
ATOM      7  C   UNL     1       1.592   2.654  18.466  0.00  0.00    +0.000 C 
ATOM      8  N   UNL     1       2.892   3.369  18.767  0.00  0.00    +0.000 N 
ATOM      9  C   UNL     1       2.695   4.387  19.888  0.00  0.00    +0.000 C 
ATOM     10  C   UNL     1       3.929   2.343  19.242  0.00  0.00    +0.000 C 
ENDBRANCH   6   8
ENDBRANCH   1   6
BRANCH   1  11
ATOM     11  C   UNL     1       5.630   3.872  15.957  0.00  0.00    +0.000 C 
BRANCH  11  12
ATOM     12  C   UNL     1       6.851   4.721  15.639  0.00  0.00    +0.000 C 
ATOM     13  O   UNL     1       6.641   5.651  14.821  0.00  0.00    +0.000 OA
ATOM     14  O   UNL     1       7.890   4.439  16.296  0.00  0.00    +0.000 OA
ENDBRANCH  11  12
ENDBRANCH   1  11
TORSDOF 5
ENDMDL
MODEL 3
REMARK VINA RESULT:      -5.0      0.941      1.380
REMARK  Name = 
REMARK  8 active torsions:
REMARK  status: ('A' for Active; 'I' for Inactive)
REMARK    1  A    between atoms: C_1  and  N_2
REMARK    2  A    between atoms: N_2  and  C_3
REMARK    3  A    between atoms: N_2  and  C_4
REMARK    4  A    between atoms: N_2  and  C_5
REMARK    5  A    between atoms: C_5  and  C_6
REMARK    6  A    between atoms: C_6  and  C_7
REMARK    7  A    between atoms: C_6  and  N_11
REMARK    8  A    between atoms: C_7  and  C_8
REMARK                            x       y       z     vdW  Elec       q    Type
REMARK                         _______ _______ _______ _____ _____    ______ ____
ROOT
ATOM      1  C   UNL     1       5.666   5.972  16.659  0.00  0.00    +0.000 C 
ENDROOT
BRANCH   1   2
ATOM      2  N   UNL     1       6.510   7.170  16.712  0.00  0.00    +0.000 N 
ATOM      3  C   UNL     1       7.512   7.352  17.625  0.00  0.00    +0.000 C 
ATOM      4  O   UNL     1       7.833   6.526  18.460  0.00  0.00    +0.000 OA
ATOM      5  H   UNL     1       6.140   7.988  16.217  0.00  0.00    +0.000 HD
ENDBRANCH   1   2
BRANCH   1   6
ATOM      6  C   UNL     1       4.379   6.201  17.514  0.00  0.00    +0.000 C 
BRANCH   6   8
ATOM      7  C   UNL     1       5.010   4.181  18.899  0.00  0.00    +0.000 C 
ATOM      8  N   UNL     1       3.864   5.045  18.418  0.00  0.00    +0.000 N 
ATOM      9  C   UNL     1       2.818   4.195  17.701  0.00  0.00    +0.000 C 
ATOM     10  C   UNL     1       3.188   5.698  19.630  0.00  0.00    +0.000 C 
ENDBRANCH   6   8
ENDBRANCH   1   6
BRANCH   1  11
ATOM     11  C   UNL     1       5.501   5.587  15.194  0.00  0.00    +0.000 C 
BRANCH  11  12
ATOM     12  C   UNL     1       6.673   4.810  14.616  0.00  0.00    +0.000 C 
ATOM     13  O   UNL     1       6.372   3.687  14.143  0.00  0.00    +0.000 OA
ATOM     14  O   UNL     1       7.774   5.425  14.606  0.00  0.00    +0.000 OA
ENDBRANCH  11  12
ENDBRANCH   1  11
TORSDOF 5
ENDMDL
MODEL 4
REMARK VINA RESULT:      -5.0      1.397      1.438
REMARK  Name = 
REMARK  8 active torsions:
REMARK  status: ('A' for Active; 'I' for Inactive)
REMARK    1  A    between atoms: C_1  and  N_2
REMARK    2  A    between atoms: N_2  and  C_3
REMARK    3  A    between atoms: N_2  and  C_4
REMARK    4  A    between atoms: N_2  and  C_5
REMARK    5  A    between atoms: C_5  and  C_6
REMARK    6  A    between atoms: C_6  and  C_7
REMARK    7  A    between atoms: C_6  and  N_11
REMARK    8  A    between atoms: C_7  and  C_8
REMARK                            x       y       z     vdW  Elec       q    Type
REMARK                         _______ _______ _______ _____ _____    ______ ____
ROOT
ATOM      1  C   UNL     1       5.427   5.325  16.966  0.00  0.00    +0.000 C 
ENDROOT
BRANCH   1   2
ATOM      2  N   UNL     1       6.444   6.160  17.614  0.00  0.00    +0.000 N 
ATOM      3  C   UNL     1       7.549   5.658  18.244  0.00  0.00    +0.000 C 
ATOM      4  O   UNL     1       7.824   4.473  18.299  0.00  0.00    +0.000 OA
ATOM      5  H   UNL     1       6.153   7.122  17.819  0.00  0.00    +0.000 HD
ENDBRANCH   1   2
BRANCH   1   6
ATOM      6  C   UNL     1       4.057   5.513  17.692  0.00  0.00    +0.000 C 
BRANCH   6   8
ATOM      7  C   UNL     1       4.351   3.513  19.212  0.00  0.00    +0.000 C 
ATOM      8  N   UNL     1       3.375   4.274  18.340  0.00  0.00    +0.000 N 
ATOM      9  C   UNL     1       2.769   3.351  17.287  0.00  0.00    +0.000 C 
ATOM     10  C   UNL     1       2.232   4.804  19.215  0.00  0.00    +0.000 C 
ENDBRANCH   6   8
ENDBRANCH   1   6
BRANCH   1  11
ATOM     11  C   UNL     1       5.494   5.593  15.468  0.00  0.00    +0.000 C 
BRANCH  11  12
ATOM     12  C   UNL     1       6.611   4.853  14.750  0.00  0.00    +0.000 C 
ATOM     13  O   UNL     1       7.722   5.438  14.773  0.00  0.00    +0.000 OA
ATOM     14  O   UNL     1       6.303   3.715  14.302  0.00  0.00    +0.000 OA
ENDBRANCH  11  12
ENDBRANCH   1  11
TORSDOF 5
ENDMDL
MODEL 5
REMARK VINA RESULT:      -5.0      2.401      3.682
REMARK  Name = 
REMARK  8 active torsions:
REMARK  status: ('A' for Active; 'I' for Inactive)
REMARK    1  A    between atoms: C_1  and  N_2
REMARK    2  A    between atoms: N_2  and  C_3
REMARK    3  A    between atoms: N_2  and  C_4
REMARK    4  A    between atoms: N_2  and  C_5
REMARK    5  A    between atoms: C_5  and  C_6
REMARK    6  A    between atoms: C_6  and  C_7
REMARK    7  A    between atoms: C_6  and  N_11
REMARK    8  A    between atoms: C_7  and  C_8
REMARK                            x       y       z     vdW  Elec       q    Type
REMARK                         _______ _______ _______ _____ _____    ______ ____
ROOT
ATOM      1  C   UNL     1       4.812   4.187  17.943  0.00  0.00    +0.000 C 
ENDROOT
BRANCH   1   2
ATOM      2  N   UNL     1       5.300   3.365  19.056  0.00  0.00    +0.000 N 
ATOM      3  C   UNL     1       4.531   2.444  19.712  0.00  0.00    +0.000 C 
ATOM      4  O   UNL     1       3.379   2.182  19.418  0.00  0.00    +0.000 OA
ATOM      5  H   UNL     1       6.156   3.703  19.506  0.00  0.00    +0.000 HD
ENDBRANCH   1   2
BRANCH   1   6
ATOM      6  C   UNL     1       4.407   5.599  18.476  0.00  0.00    +0.000 C 
BRANCH   6   8
ATOM      7  C   UNL     1       2.560   7.326  18.418  0.00  0.00    +0.000 C 
ATOM      8  N   UNL     1       2.906   5.892  18.758  0.00  0.00    +0.000 N 
ATOM      9  C   UNL     1       2.535   5.581  20.205  0.00  0.00    +0.000 C 
ATOM     10  C   UNL     1       2.094   4.955  17.854  0.00  0.00    +0.000 C 
ENDBRANCH   6   8
ENDBRANCH   1   6
BRANCH   1  11
ATOM     11  C   UNL     1       5.840   4.105  16.822  0.00  0.00    +0.000 C 
BRANCH  11  12
ATOM     12  C   UNL     1       7.136   4.845  17.108  0.00  0.00    +0.000 C 
ATOM     13  O   UNL     1       7.357   5.823  16.351  0.00  0.00    +0.000 OA
ATOM     14  O   UNL     1       7.777   4.440  18.115  0.00  0.00    +0.000 OA
ENDBRANCH  11  12
ENDBRANCH   1  11
TORSDOF 5
ENDMDL
MODEL 6
REMARK VINA RESULT:      -5.0      2.462      3.859
REMARK  Name = 
REMARK  8 active torsions:
REMARK  status: ('A' for Active; 'I' for Inactive)
REMARK    1  A    between atoms: C_1  and  N_2
REMARK    2  A    between atoms: N_2  and  C_3
REMARK    3  A    between atoms: N_2  and  C_4
REMARK    4  A    between atoms: N_2  and  C_5
REMARK    5  A    between atoms: C_5  and  C_6
REMARK    6  A    between atoms: C_6  and  C_7
REMARK    7  A    between atoms: C_6  and  N_11
REMARK    8  A    between atoms: C_7  and  C_8
REMARK                            x       y       z     vdW  Elec       q    Type
REMARK                         _______ _______ _______ _____ _____    ______ ____
ROOT
ATOM      1  C   UNL     1       4.811   4.182  18.090  0.00  0.00    +0.000 C 
ENDROOT
BRANCH   1   2
ATOM      2  N   UNL     1       5.290   3.296  19.156  0.00  0.00    +0.000 N 
ATOM      3  C   UNL     1       4.485   2.419  19.830  0.00  0.00    +0.000 C 
ATOM      4  O   UNL     1       3.303   2.254  19.592  0.00  0.00    +0.000 OA
ATOM      5  H   UNL     1       6.192   3.555  19.568  0.00  0.00    +0.000 HD
ENDBRANCH   1   2
BRANCH   1   6
ATOM      6  C   UNL     1       4.346   5.539  18.710  0.00  0.00    +0.000 C 
BRANCH   6   8
ATOM      7  C   UNL     1       2.048   4.928  17.849  0.00  0.00    +0.000 C 
ATOM      8  N   UNL     1       2.825   5.862  18.752  0.00  0.00    +0.000 N 
ATOM      9  C   UNL     1       2.549   7.316  18.382  0.00  0.00    +0.000 C 
ATOM     10  C   UNL     1       2.368   5.651  20.201  0.00  0.00    +0.000 C 
ENDBRANCH   6   8
ENDBRANCH   1   6
BRANCH   1  11
ATOM     11  C   UNL     1       5.876   4.213  17.001  0.00  0.00    +0.000 C 
BRANCH  11  12
ATOM     12  C   UNL     1       7.150   4.946  17.393  0.00  0.00    +0.000 C 
ATOM     13  O   UNL     1       7.800   4.402  18.319  0.00  0.00    +0.000 OA
ATOM     14  O   UNL     1       7.433   5.950  16.684  0.00  0.00    +0.000 OA
ENDBRANCH  11  12
ENDBRANCH   1  11
TORSDOF 5
ENDMDL
MODEL 7
REMARK VINA RESULT:      -4.9      1.436      2.128
REMARK  Name = 
REMARK  8 active torsions:
REMARK  status: ('A' for Active; 'I' for Inactive)
REMARK    1  A    between atoms: C_1  and  N_2
REMARK    2  A    between atoms: N_2  and  C_3
REMARK    3  A    between atoms: N_2  and  C_4
REMARK    4  A    between atoms: N_2  and  C_5
REMARK    5  A    between atoms: C_5  and  C_6
REMARK    6  A    between atoms: C_6  and  C_7
REMARK    7  A    between atoms: C_6  and  N_11
REMARK    8  A    between atoms: C_7  and  C_8
REMARK                            x       y       z     vdW  Elec       q    Type
REMARK                         _______ _______ _______ _____ _____    ______ ____
ROOT
ATOM      1  C   UNL     1       5.395   5.311  17.098  0.00  0.00    +0.000 C 
ENDROOT
BRANCH   1   2
ATOM      2  N   UNL     1       6.395   6.171  17.739  0.00  0.00    +0.000 N 
ATOM      3  C   UNL     1       7.526   5.697  18.346  0.00  0.00    +0.000 C 
ATOM      4  O   UNL     1       7.839   4.521  18.382  0.00  0.00    +0.000 OA
ATOM      5  H   UNL     1       6.078   7.120  17.961  0.00  0.00    +0.000 HD
ENDBRANCH   1   2
BRANCH   1   6
ATOM      6  C   UNL     1       4.017   5.489  17.814  0.00  0.00    +0.000 C 
BRANCH   6   8
ATOM      7  C   UNL     1       2.587   3.444  17.403  0.00  0.00    +0.000 C 
ATOM      8  N   UNL     1       3.335   4.244  18.448  0.00  0.00    +0.000 N 
ATOM      9  C   UNL     1       2.402   4.635  19.591  0.00  0.00    +0.000 C 
ATOM     10  C   UNL     1       4.456   3.375  19.033  0.00  0.00    +0.000 C 
ENDBRANCH   6   8
ENDBRANCH   1   6
BRANCH   1  11
ATOM     11  C   UNL     1       5.466   5.558  15.597  0.00  0.00    +0.000 C 
BRANCH  11  12
ATOM     12  C   UNL     1       6.589   4.812  14.894  0.00  0.00    +0.000 C 
ATOM     13  O   UNL     1       6.246   3.722  14.373  0.00  0.00    +0.000 OA
ATOM     14  O   UNL     1       7.693   5.420  14.847  0.00  0.00    +0.000 OA
ENDBRANCH  11  12
ENDBRANCH   1  11
TORSDOF 5
ENDMDL
MODEL 8
REMARK VINA RESULT:      -4.9      1.690      3.299
REMARK  Name = 
REMARK  8 active torsions:
REMARK  status: ('A' for Active; 'I' for Inactive)
REMARK    1  A    between atoms: C_1  and  N_2
REMARK    2  A    between atoms: N_2  and  C_3
REMARK    3  A    between atoms: N_2  and  C_4
REMARK    4  A    between atoms: N_2  and  C_5
REMARK    5  A    between atoms: C_5  and  C_6
REMARK    6  A    between atoms: C_6  and  C_7
REMARK    7  A    between atoms: C_6  and  N_11
REMARK    8  A    between atoms: C_7  and  C_8
REMARK                            x       y       z     vdW  Elec       q    Type
REMARK                         _______ _______ _______ _____ _____    ______ ____
ROOT
ATOM      1  C   UNL     1       5.253   4.717  17.446  0.00  0.00    +0.000 C 
ENDROOT
BRANCH   1   2
ATOM      2  N   UNL     1       6.297   4.036  16.674  0.00  0.00    +0.000 N 
ATOM      3  C   UNL     1       6.240   3.851  15.319  0.00  0.00    +0.000 C 
ATOM      4  O   UNL     1       5.340   4.265  14.611  0.00  0.00    +0.000 OA
ATOM      5  H   UNL     1       6.941   3.458  17.223  0.00  0.00    +0.000 HD
ENDBRANCH   1   2
BRANCH   1   6
ATOM      6  C   UNL     1       4.807   3.807  18.636  0.00  0.00    +0.000 C 
BRANCH   6   8
ATOM      7  C   UNL     1       3.550   1.618  18.482  0.00  0.00    +0.000 C 
ATOM      8  N   UNL     1       3.412   3.122  18.573  0.00  0.00    +0.000 N 
ATOM      9  C   UNL     1       2.577   3.654  17.411  0.00  0.00    +0.000 C 
ATOM     10  C   UNL     1       2.685   3.479  19.876  0.00  0.00    +0.000 C 
ENDBRANCH   6   8
ENDBRANCH   1   6
BRANCH   1  11
ATOM     11  C   UNL     1       5.751   6.122  17.759  0.00  0.00    +0.000 C 
BRANCH  11  12
ATOM     12  C   UNL     1       7.262   6.279  17.689  0.00  0.00    +0.000 C 
ATOM     13  O   UNL     1       7.683   6.812  16.633  0.00  0.00    +0.000 OA
ATOM     14  O   UNL     1       7.888   5.938  18.730  0.00  0.00    +0.000 OA
ENDBRANCH  11  12
ENDBRANCH   1  11
TORSDOF 5
ENDMDL
MODEL 9
REMARK VINA RESULT:      -4.9      1.675      3.404
REMARK  Name = 
REMARK  8 active torsions:
REMARK  status: ('A' for Active; 'I' for Inactive)
REMARK    1  A    between atoms: C_1  and  N_2
REMARK    2  A    between atoms: N_2  and  C_3
REMARK    3  A    between atoms: N_2  and  C_4
REMARK    4  A    between atoms: N_2  and  C_5
REMARK    5  A    between atoms: C_5  and  C_6
REMARK    6  A    between atoms: C_6  and  C_7
REMARK    7  A    between atoms: C_6  and  N_11
REMARK    8  A    between atoms: C_7  and  C_8
REMARK                            x       y       z     vdW  Elec       q    Type
REMARK                         _______ _______ _______ _____ _____    ______ ____
ROOT
ATOM      1  C   UNL     1       5.213   4.724  17.394  0.00  0.00    +0.000 C 
ENDROOT
BRANCH   1   2
ATOM      2  N   UNL     1       6.253   4.022  16.635  0.00  0.00    +0.000 N 
ATOM      3  C   UNL     1       6.212   3.844  15.279  0.00  0.00    +0.000 C 
ATOM      4  O   UNL     1       5.334   4.282  14.559  0.00  0.00    +0.000 OA
ATOM      5  H   UNL     1       6.874   3.426  17.192  0.00  0.00    +0.000 HD
ENDBRANCH   1   2
BRANCH   1   6
ATOM      6  C   UNL     1       4.781   3.853  18.617  0.00  0.00    +0.000 C 
BRANCH   6   8
ATOM      7  C   UNL     1       2.454   3.930  17.629  0.00  0.00    +0.000 C 
ATOM      8  N   UNL     1       3.351   3.240  18.634  0.00  0.00    +0.000 N 
ATOM      9  C   UNL     1       2.733   3.293  20.028  0.00  0.00    +0.000 C 
ATOM     10  C   UNL     1       3.498   1.764  18.241  0.00  0.00    +0.000 C 
ENDBRANCH   6   8
ENDBRANCH   1   6
BRANCH   1  11
ATOM     11  C   UNL     1       5.708   6.141  17.656  0.00  0.00    +0.000 C 
BRANCH  11  12
ATOM     12  C   UNL     1       7.220   6.291  17.621  0.00  0.00    +0.000 C 
ATOM     13  O   UNL     1       7.667   6.830  16.579  0.00  0.00    +0.000 OA
ATOM     14  O   UNL     1       7.821   5.936  18.672  0.00  0.00    +0.000 OA
ENDBRANCH  11  12
ENDBRANCH   1  11
TORSDOF 5
ENDMDL
