MODEL 1
REMARK VINA RESULT:      -8.0      0.000      0.000
REMARK  Name = 
REMARK  4 active torsions:
REMARK  status: ('A' for Active; 'I' for Inactive)
REMARK    1  A    between atoms: C_1  and  C_2
REMARK    2  A    between atoms: N_7  and  C_8
REMARK    3  A    between atoms: C_13  and  N_14
REMARK    4  A    between atoms: C_15  and  C_17
REMARK                            x       y       z     vdW  Elec       q    Type
REMARK                         _______ _______ _______ _____ _____    ______ ____
ROOT
ATOM      1  C   UNL     1       4.083   6.151  17.992  0.00  0.00    +0.000 A 
ATOM      2  C   UNL     1       3.640   5.726  19.249  0.00  0.00    +0.000 A 
ATOM      3  C   UNL     1       2.693   6.457  19.982  0.00  0.00    +0.000 A 
ATOM      4  C   UNL     1       2.146   7.645  19.469  0.00  0.00    +0.000 A 
ATOM      5  C   UNL     1       1.182   8.423  20.139  0.00  0.00    +0.000 A 
ATOM      6  C   UNL     1       0.681   9.573  19.529  0.00  0.00    +0.000 A 
ATOM      7  N   UNL     1       1.108   9.980  18.324  0.00  0.00    +0.000 NA
ATOM      8  C   UNL     1       2.033   9.232  17.690  0.00  0.00    +0.000 A 
ATOM      9  C   UNL     1       2.581   8.070  18.203  0.00  0.00    +0.000 A 
ATOM     10  C   UNL     1       3.526   7.326  17.482  0.00  0.00    +0.000 A 
ENDROOT
BRANCH   1  17
ATOM     11  C   UNL     1       7.168   6.730  17.712  0.00  0.00    +0.000 C 
ATOM     12  C   UNL     1       6.267   6.016  16.698  0.00  0.00    +0.000 C 
ATOM     13  C   UNL     1       7.024   4.819  16.129  0.00  0.00    +0.000 C 
ATOM     14  C   UNL     1       5.936   3.848  15.727  0.00  0.00    +0.000 C 
ATOM     15  C   UNL     1       4.825   4.147  16.702  0.00  0.00    +0.000 C 
ATOM     16  O   UNL     1       3.875   3.396  16.869  0.00  0.00    +0.000 OA
ATOM     17  N   UNL     1       5.053   5.425  17.244  0.00  0.00    +0.000 N 
ENDBRANCH   1  17
BRANCH   6  18
ATOM     18  N   UNL     1      -0.282  10.339  20.202  0.00  0.00    +0.000 N 
ATOM     19  C   UNL     1       0.014  11.320  21.125  0.00  0.00    +0.000 C 
ATOM     20  O   UNL     1       1.111  11.721  21.484  0.00  0.00    +0.000 OA
ATOM     21  H   UNL     1      -1.251  10.133  20.005  0.00  0.00    +0.000 HD
BRANCH  19  22
ATOM     22  C   UNL     1      -1.198  11.879  21.788  0.00  0.00    +0.000 C 
ATOM     23  C   UNL     1      -1.514  11.382  23.186  0.00  0.00    +0.000 C 
ATOM     24  C   UNL     1      -1.091  12.799  22.969  0.00  0.00    +0.000 C 
ATOM     25  F   UNL     1      -2.074  13.759  23.119  0.00  0.00    +0.000 F 
ENDBRANCH  19  22
ENDBRANCH   6  18
TORSDOF 3
ENDMDL
MODEL 2
REMARK VINA RESULT:      -7.7      1.275      1.893
REMARK  Name = 
REMARK  4 active torsions:
REMARK  status: ('A' for Active; 'I' for Inactive)
REMARK    1  A    between atoms: C_1  and  C_2
REMARK    2  A    between atoms: N_7  and  C_8
REMARK    3  A    between atoms: C_13  and  N_14
REMARK    4  A    between atoms: C_15  and  C_17
REMARK                            x       y       z     vdW  Elec       q    Type
REMARK                         _______ _______ _______ _____ _____    ______ ____
ROOT
ATOM      1  C   UNL     1       3.726   6.567  17.854  0.00  0.00    +0.000 A 
ATOM      2  C   UNL     1       3.427   7.753  17.176  0.00  0.00    +0.000 A 
ATOM      3  C   UNL     1       2.534   8.698  17.702  0.00  0.00    +0.000 A 
ATOM      4  C   UNL     1       1.913   8.488  18.945  0.00  0.00    +0.000 A 
ATOM      5  C   UNL     1       1.019   9.395  19.543  0.00  0.00    +0.000 A 
ATOM      6  C   UNL     1       0.477   9.105  20.796  0.00  0.00    +0.000 A 
ATOM      7  N   UNL     1       0.764   7.966  21.444  0.00  0.00    +0.000 NA
ATOM      8  C   UNL     1       1.618   7.099  20.864  0.00  0.00    +0.000 A 
ATOM      9  C   UNL     1       2.218   7.302  19.634  0.00  0.00    +0.000 A 
ATOM     10  C   UNL     1       3.116   6.369  19.095  0.00  0.00    +0.000 A 
ENDROOT
BRANCH   1  17
ATOM     11  C   UNL     1       6.877   6.623  17.823  0.00  0.00    +0.000 C 
ATOM     12  C   UNL     1       5.957   5.902  16.832  0.00  0.00    +0.000 C 
ATOM     13  C   UNL     1       6.550   4.530  16.522  0.00  0.00    +0.000 C 
ATOM     14  C   UNL     1       5.352   3.683  16.150  0.00  0.00    +0.000 C 
ATOM     15  C   UNL     1       4.230   4.295  16.949  0.00  0.00    +0.000 C 
ATOM     16  O   UNL     1       3.159   3.733  17.119  0.00  0.00    +0.000 OA
ATOM     17  N   UNL     1       4.620   5.595  17.324  0.00  0.00    +0.000 N 
ENDBRANCH   1  17
BRANCH   6  18
ATOM     18  N   UNL     1      -0.409  10.017  21.385  0.00  0.00    +0.000 N 
ATOM     19  C   UNL     1      -0.414  10.338  22.727  0.00  0.00    +0.000 C 
ATOM     20  O   UNL     1       0.339   9.945  23.606  0.00  0.00    +0.000 OA
ATOM     21  H   UNL     1      -1.097  10.443  20.781  0.00  0.00    +0.000 HD
BRANCH  19  22
ATOM     22  C   UNL     1      -1.548  11.227  23.108  0.00  0.00    +0.000 C 
ATOM     23  C   UNL     1      -1.290  12.721  23.092  0.00  0.00    +0.000 C 
ATOM     24  C   UNL     1      -2.224  12.109  22.099  0.00  0.00    +0.000 C 
ATOM     25  F   UNL     1      -3.569  12.371  22.282  0.00  0.00    +0.000 F 
ENDBRANCH  19  22
ENDBRANCH   6  18
TORSDOF 3
ENDMDL
MODEL 3
REMARK VINA RESULT:      -7.6      1.367      1.929
REMARK  Name = 
REMARK  4 active torsions:
REMARK  status: ('A' for Active; 'I' for Inactive)
REMARK    1  A    between atoms: C_1  and  C_2
REMARK    2  A    between atoms: N_7  and  C_8
REMARK    3  A    between atoms: C_13  and  N_14
REMARK    4  A    between atoms: C_15  and  C_17
REMARK                            x       y       z     vdW  Elec       q    Type
REMARK                         _______ _______ _______ _____ _____    ______ ____
ROOT
ATOM      1  C   UNL     1       3.566   6.208  18.256  0.00  0.00    +0.000 A 
ATOM      2  C   UNL     1       3.227   5.738  19.529  0.00  0.00    +0.000 A 
ATOM      3  C   UNL     1       2.385   6.465  20.383  0.00  0.00    +0.000 A 
ATOM      4  C   UNL     1       1.841   7.697  19.981  0.00  0.00    +0.000 A 
ATOM      5  C   UNL     1       0.979   8.475  20.776  0.00  0.00    +0.000 A 
ATOM      6  C   UNL     1       0.470   9.672  20.271  0.00  0.00    +0.000 A 
ATOM      7  N   UNL     1       0.797  10.123  19.051  0.00  0.00    +0.000 NA
ATOM      8  C   UNL     1       1.626   9.374  18.296  0.00  0.00    +0.000 A 
ATOM      9  C   UNL     1       2.172   8.169  18.699  0.00  0.00    +0.000 A 
ATOM     10  C   UNL     1       3.012   7.427  17.857  0.00  0.00    +0.000 A 
ENDROOT
BRANCH   1  17
ATOM     11  C   UNL     1       3.090   3.389  16.932  0.00  0.00    +0.000 C 
ATOM     12  C   UNL     1       4.439   4.033  17.270  0.00  0.00    +0.000 C 
ATOM     13  C   UNL     1       5.410   3.770  16.122  0.00  0.00    +0.000 C 
ATOM     14  C   UNL     1       6.384   4.925  16.188  0.00  0.00    +0.000 C 
ATOM     15  C   UNL     1       5.555   6.049  16.755  0.00  0.00    +0.000 C 
ATOM     16  O   UNL     1       5.913   7.217  16.717  0.00  0.00    +0.000 OA
ATOM     17  N   UNL     1       4.430   5.486  17.385  0.00  0.00    +0.000 N 
ENDBRANCH   1  17
BRANCH   6  18
ATOM     18  N   UNL     1      -0.392  10.438  21.069  0.00  0.00    +0.000 N 
ATOM     19  C   UNL     1      -0.292  10.542  22.441  0.00  0.00    +0.000 C 
ATOM     20  O   UNL     1       0.546  10.050  23.182  0.00  0.00    +0.000 OA
ATOM     21  H   UNL     1      -1.143  10.922  20.598  0.00  0.00    +0.000 HD
BRANCH  19  22
ATOM     22  C   UNL     1      -1.417  11.308  23.049  0.00  0.00    +0.000 C 
ATOM     23  C   UNL     1      -1.278  12.816  23.102  0.00  0.00    +0.000 C 
ATOM     24  C   UNL     1      -2.305  12.186  22.219  0.00  0.00    +0.000 C 
ATOM     25  F   UNL     1      -3.622  12.322  22.619  0.00  0.00    +0.000 F 
ENDBRANCH  19  22
ENDBRANCH   6  18
TORSDOF 3
ENDMDL
MODEL 4
REMARK VINA RESULT:      -7.6      2.847      3.691
REMARK  Name = 
REMARK  4 active torsions:
REMARK  status: ('A' for Active; 'I' for Inactive)
REMARK    1  A    between atoms: C_1  and  C_2
REMARK    2  A    between atoms: N_7  and  C_8
REMARK    3  A    between atoms: C_13  and  N_14
REMARK    4  A    between atoms: C_15  and  C_17
REMARK                            x       y       z     vdW  Elec       q    Type
REMARK                         _______ _______ _______ _____ _____    ______ ____
ROOT
ATOM      1  C   UNL     1       2.976   5.592  18.886  0.00  0.00    +0.000 A 
ATOM      2  C   UNL     1       3.320   6.241  17.696  0.00  0.00    +0.000 A 
ATOM      3  C   UNL     1       2.982   7.582  17.464  0.00  0.00    +0.000 A 
ATOM      4  C   UNL     1       2.288   8.328  18.432  0.00  0.00    +0.000 A 
ATOM      5  C   UNL     1       1.928   9.680  18.277  0.00  0.00    +0.000 A 
ATOM      6  C   UNL     1       1.265  10.339  19.312  0.00  0.00    +0.000 A 
ATOM      7  N   UNL     1       0.934   9.714  20.452  0.00  0.00    +0.000 NA
ATOM      8  C   UNL     1       1.279   8.419  20.593  0.00  0.00    +0.000 A 
ATOM      9  C   UNL     1       1.949   7.683  19.633  0.00  0.00    +0.000 A 
ATOM     10  C   UNL     1       2.298   6.342  19.850  0.00  0.00    +0.000 A 
ENDROOT
BRANCH   1  17
ATOM     11  C   UNL     1       1.196   3.039  18.388  0.00  0.00    +0.000 C 
ATOM     12  C   UNL     1       2.317   3.195  19.421  0.00  0.00    +0.000 C 
ATOM     13  C   UNL     1       3.140   1.910  19.449  0.00  0.00    +0.000 C 
ATOM     14  C   UNL     1       4.511   2.357  19.909  0.00  0.00    +0.000 C 
ATOM     15  C   UNL     1       4.607   3.771  19.396  0.00  0.00    +0.000 C 
ATOM     16  O   UNL     1       5.664   4.382  19.341  0.00  0.00    +0.000 OA
ATOM     17  N   UNL     1       3.302   4.228  19.128  0.00  0.00    +0.000 N 
ENDBRANCH   1  17
BRANCH   6  18
ATOM     18  N   UNL     1       0.913  11.687  19.149  0.00  0.00    +0.000 N 
ATOM     19  C   UNL     1      -0.320  12.119  18.709  0.00  0.00    +0.000 C 
ATOM     20  O   UNL     1      -1.306  11.453  18.432  0.00  0.00    +0.000 OA
ATOM     21  H   UNL     1       1.627  12.373  19.351  0.00  0.00    +0.000 HD
BRANCH  19  22
ATOM     22  C   UNL     1      -0.377  13.594  18.496  0.00  0.00    +0.000 C 
ATOM     23  C   UNL     1      -0.753  14.451  19.688  0.00  0.00    +0.000 C 
ATOM     24  C   UNL     1       0.628  14.514  19.124  0.00  0.00    +0.000 C 
ATOM     25  F   UNL     1       0.954  15.667  18.434  0.00  0.00    +0.000 F 
ENDBRANCH  19  22
ENDBRANCH   6  18
TORSDOF 3
ENDMDL
MODEL 5
REMARK VINA RESULT:      -7.5      1.062      1.643
REMARK  Name = 
REMARK  4 active torsions:
REMARK  status: ('A' for Active; 'I' for Inactive)
REMARK    1  A    between atoms: C_1  and  C_2
REMARK    2  A    between atoms: N_7  and  C_8
REMARK    3  A    between atoms: C_13  and  N_14
REMARK    4  A    between atoms: C_15  and  C_17
REMARK                            x       y       z     vdW  Elec       q    Type
REMARK                         _______ _______ _______ _____ _____    ______ ____
ROOT
ATOM      1  C   UNL     1       3.806   6.339  18.110  0.00  0.00    +0.000 A 
ATOM      2  C   UNL     1       3.369   5.932  19.374  0.00  0.00    +0.000 A 
ATOM      3  C   UNL     1       2.442   6.684  20.111  0.00  0.00    +0.000 A 
ATOM      4  C   UNL     1       1.909   7.877  19.593  0.00  0.00    +0.000 A 
ATOM      5  C   UNL     1       0.966   8.676  20.266  0.00  0.00    +0.000 A 
ATOM      6  C   UNL     1       0.477   9.829  19.652  0.00  0.00    +0.000 A 
ATOM      7  N   UNL     1       0.898  10.219  18.439  0.00  0.00    +0.000 NA
ATOM      8  C   UNL     1       1.804   9.451  17.802  0.00  0.00    +0.000 A 
ATOM      9  C   UNL     1       2.338   8.284  18.319  0.00  0.00    +0.000 A 
ATOM     10  C   UNL     1       3.263   7.518  17.595  0.00  0.00    +0.000 A 
ENDROOT
BRANCH   1  17
ATOM     11  C   UNL     1       3.469   3.478  16.831  0.00  0.00    +0.000 C 
ATOM     12  C   UNL     1       4.775   4.136  17.290  0.00  0.00    +0.000 C 
ATOM     13  C   UNL     1       5.862   3.838  16.260  0.00  0.00    +0.000 C 
ATOM     14  C   UNL     1       6.825   4.997  16.392  0.00  0.00    +0.000 C 
ATOM     15  C   UNL     1       5.942   6.136  16.833  0.00  0.00    +0.000 C 
ATOM     16  O   UNL     1       6.304   7.303  16.796  0.00  0.00    +0.000 OA
ATOM     17  N   UNL     1       4.756   5.591  17.358  0.00  0.00    +0.000 N 
ENDBRANCH   1  17
BRANCH   6  18
ATOM     18  N   UNL     1      -0.466  10.616  20.329  0.00  0.00    +0.000 N 
ATOM     19  C   UNL     1      -0.145  11.684  21.140  0.00  0.00    +0.000 C 
ATOM     20  O   UNL     1       0.957  12.154  21.380  0.00  0.00    +0.000 OA
ATOM     21  H   UNL     1      -1.437  10.359  20.223  0.00  0.00    +0.000 HD
BRANCH  19  22
ATOM     22  C   UNL     1      -1.329  12.256  21.843  0.00  0.00    +0.000 C 
ATOM     23  C   UNL     1      -1.724  11.620  23.162  0.00  0.00    +0.000 C 
ATOM     24  C   UNL     1      -1.185  13.014  23.130  0.00  0.00    +0.000 C 
ATOM     25  F   UNL     1      -2.093  14.026  23.379  0.00  0.00    +0.000 F 
ENDBRANCH  19  22
ENDBRANCH   6  18
TORSDOF 3
ENDMDL
MODEL 6
REMARK VINA RESULT:      -7.5      2.940      3.548
REMARK  Name = 
REMARK  4 active torsions:
REMARK  status: ('A' for Active; 'I' for Inactive)
REMARK    1  A    between atoms: C_1  and  C_2
REMARK    2  A    between atoms: N_7  and  C_8
REMARK    3  A    between atoms: C_13  and  N_14
REMARK    4  A    between atoms: C_15  and  C_17
REMARK                            x       y       z     vdW  Elec       q    Type
REMARK                         _______ _______ _______ _____ _____    ______ ____
ROOT
ATOM      1  C   UNL     1       2.577   5.283  19.517  0.00  0.00    +0.000 A 
ATOM      2  C   UNL     1       1.934   5.722  20.680  0.00  0.00    +0.000 A 
ATOM      3  C   UNL     1       1.483   7.042  20.818  0.00  0.00    +0.000 A 
ATOM      4  C   UNL     1       1.653   7.974  19.780  0.00  0.00    +0.000 A 
ATOM      5  C   UNL     1       1.214   9.310  19.841  0.00  0.00    +0.000 A 
ATOM      6  C   UNL     1       1.406  10.149  18.742  0.00  0.00    +0.000 A 
ATOM      7  N   UNL     1       2.024   9.727  17.629  0.00  0.00    +0.000 NA
ATOM      8  C   UNL     1       2.445   8.447  17.579  0.00  0.00    +0.000 A 
ATOM      9  C   UNL     1       2.289   7.535  18.607  0.00  0.00    +0.000 A 
ATOM     10  C   UNL     1       2.731   6.210  18.484  0.00  0.00    +0.000 A 
ENDROOT
BRANCH   1  17
ATOM     11  C   UNL     1       0.990   2.744  18.533  0.00  0.00    +0.000 C 
ATOM     12  C   UNL     1       2.202   2.769  19.471  0.00  0.00    +0.000 C 
ATOM     13  C   UNL     1       3.136   1.622  19.094  0.00  0.00    +0.000 C 
ATOM     14  C   UNL     1       4.504   2.097  19.533  0.00  0.00    +0.000 C 
ATOM     15  C   UNL     1       4.413   3.595  19.397  0.00  0.00    +0.000 C 
ATOM     16  O   UNL     1       5.397   4.319  19.409  0.00  0.00    +0.000 OA
ATOM     17  N   UNL     1       3.051   3.949  19.370  0.00  0.00    +0.000 N 
ENDBRANCH   1  17
BRANCH   6  18
ATOM     18  N   UNL     1       0.962  11.477  18.810  0.00  0.00    +0.000 N 
ATOM     19  C   UNL     1      -0.330  11.877  18.540  0.00  0.00    +0.000 C 
ATOM     20  O   UNL     1      -1.295  11.188  18.248  0.00  0.00    +0.000 OA
ATOM     21  H   UNL     1       1.648  12.178  19.053  0.00  0.00    +0.000 HD
BRANCH  19  22
ATOM     22  C   UNL     1      -0.494  13.359  18.553  0.00  0.00    +0.000 C 
ATOM     23  C   UNL     1      -0.772  14.013  19.893  0.00  0.00    +0.000 C 
ATOM     24  C   UNL     1       0.527  14.254  19.194  0.00  0.00    +0.000 C 
ATOM     25  F   UNL     1       0.703  15.512  18.648  0.00  0.00    +0.000 F 
ENDBRANCH  19  22
ENDBRANCH   6  18
TORSDOF 3
ENDMDL
MODEL 7
REMARK VINA RESULT:      -7.4      1.834      2.945
REMARK  Name = 
REMARK  4 active torsions:
REMARK  status: ('A' for Active; 'I' for Inactive)
REMARK    1  A    between atoms: C_1  and  C_2
REMARK    2  A    between atoms: N_7  and  C_8
REMARK    3  A    between atoms: C_13  and  N_14
REMARK    4  A    between atoms: C_15  and  C_17
REMARK                            x       y       z     vdW  Elec       q    Type
REMARK                         _______ _______ _______ _____ _____    ______ ____
ROOT
ATOM      1  C   UNL     1       2.600   7.161  18.447  0.00  0.00    +0.000 A 
ATOM      2  C   UNL     1       2.159   8.202  17.624  0.00  0.00    +0.000 A 
ATOM      3  C   UNL     1       1.402   9.270  18.127  0.00  0.00    +0.000 A 
ATOM      4  C   UNL     1       1.068   9.336  19.491  0.00  0.00    +0.000 A 
ATOM      5  C   UNL     1       0.325  10.381  20.070  0.00  0.00    +0.000 A 
ATOM      6  C   UNL     1       0.071  10.367  21.442  0.00  0.00    +0.000 A 
ATOM      7  N   UNL     1       0.493   9.367  22.231  0.00  0.00    +0.000 NA
ATOM      8  C   UNL     1       1.201   8.368  21.668  0.00  0.00    +0.000 A 
ATOM      9  C   UNL     1       1.517   8.297  20.323  0.00  0.00    +0.000 A 
ATOM     10  C   UNL     1       2.276   7.239  19.804  0.00  0.00    +0.000 A 
ENDROOT
BRANCH   1  17
ATOM     11  C   UNL     1       1.585   4.289  17.641  0.00  0.00    +0.000 C 
ATOM     12  C   UNL     1       2.987   4.669  18.128  0.00  0.00    +0.000 C 
ATOM     13  C   UNL     1       4.017   3.911  17.293  0.00  0.00    +0.000 C 
ATOM     14  C   UNL     1       5.248   4.790  17.336  0.00  0.00    +0.000 C 
ATOM     15  C   UNL     1       4.680   6.179  17.475  0.00  0.00    +0.000 C 
ATOM     16  O   UNL     1       5.346   7.186  17.282  0.00  0.00    +0.000 OA
ATOM     17  N   UNL     1       3.359   6.066  17.946  0.00  0.00    +0.000 N 
ENDBRANCH   1  17
BRANCH   6  18
ATOM     18  N   UNL     1      -0.666  11.415  22.011  0.00  0.00    +0.000 N 
ATOM     19  C   UNL     1      -0.214  12.714  22.115  0.00  0.00    +0.000 C 
ATOM     20  O   UNL     1       0.839  13.188  21.716  0.00  0.00    +0.000 OA
ATOM     21  H   UNL     1      -1.577  11.185  22.384  0.00  0.00    +0.000 HD
BRANCH  19  22
ATOM     22  C   UNL     1      -1.141  13.592  22.885  0.00  0.00    +0.000 C 
ATOM     23  C   UNL     1      -2.182  14.360  22.096  0.00  0.00    +0.000 C 
ATOM     24  C   UNL     1      -2.599  13.263  23.021  0.00  0.00    +0.000 C 
ATOM     25  F   UNL     1      -3.235  13.654  24.185  0.00  0.00    +0.000 F 
ENDBRANCH  19  22
ENDBRANCH   6  18
TORSDOF 3
ENDMDL
MODEL 8
REMARK VINA RESULT:      -7.4      3.554      8.944
REMARK  Name = 
REMARK  4 active torsions:
REMARK  status: ('A' for Active; 'I' for Inactive)
REMARK    1  A    between atoms: C_1  and  C_2
REMARK    2  A    between atoms: N_7  and  C_8
REMARK    3  A    between atoms: C_13  and  N_14
REMARK    4  A    between atoms: C_15  and  C_17
REMARK                            x       y       z     vdW  Elec       q    Type
REMARK                         _______ _______ _______ _____ _____    ______ ____
ROOT
ATOM      1  C   UNL     1       0.397  10.238  20.095  0.00  0.00    +0.000 A 
ATOM      2  C   UNL     1       0.820  10.774  18.875  0.00  0.00    +0.000 A 
ATOM      3  C   UNL     1       1.696  10.079  18.028  0.00  0.00    +0.000 A 
ATOM      4  C   UNL     1       2.173   8.804  18.377  0.00  0.00    +0.000 A 
ATOM      5  C   UNL     1       3.042   8.040  17.574  0.00  0.00    +0.000 A 
ATOM      6  C   UNL     1       3.435   6.771  17.998  0.00  0.00    +0.000 A 
ATOM      7  N   UNL     1       3.029   6.259  19.170  0.00  0.00    +0.000 NA
ATOM      8  C   UNL     1       2.201   6.996  19.935  0.00  0.00    +0.000 A 
ATOM      9  C   UNL     1       1.743   8.257  19.597  0.00  0.00    +0.000 A 
ATOM     10  C   UNL     1       0.864   8.965  20.430  0.00  0.00    +0.000 A 
ENDROOT
BRANCH   1  17
ATOM     11  C   UNL     1      -2.301  11.704  19.386  0.00  0.00    +0.000 C 
ATOM     12  C   UNL     1      -1.351  12.029  20.544  0.00  0.00    +0.000 C 
ATOM     13  C   UNL     1      -2.181  12.332  21.788  0.00  0.00    +0.000 C 
ATOM     14  C   UNL     1      -1.269  11.969  22.940  0.00  0.00    +0.000 C 
ATOM     15  C   UNL     1      -0.412  10.866  22.372  0.00  0.00    +0.000 C 
ATOM     16  O   UNL     1       0.271  10.134  23.073  0.00  0.00    +0.000 OA
ATOM     17  N   UNL     1      -0.482  10.939  20.968  0.00  0.00    +0.000 N 
ENDBRANCH   1  17
BRANCH   6  18
ATOM     18  N   UNL     1       4.297   6.017  17.189  0.00  0.00    +0.000 N 
ATOM     19  C   UNL     1       5.600   6.368  16.905  0.00  0.00    +0.000 C 
ATOM     20  O   UNL     1       6.235   7.328  17.313  0.00  0.00    +0.000 OA
ATOM     21  H   UNL     1       3.919   5.175  16.778  0.00  0.00    +0.000 HD
BRANCH  19  22
ATOM     22  C   UNL     1       6.242   5.462  15.911  0.00  0.00    +0.000 C 
ATOM     23  C   UNL     1       7.203   4.418  16.446  0.00  0.00    +0.000 C 
ATOM     24  C   UNL     1       5.899   4.002  15.846  0.00  0.00    +0.000 C 
ATOM     25  F   UNL     1       5.964   3.387  14.609  0.00  0.00    +0.000 F 
ENDBRANCH  19  22
ENDBRANCH   6  18
TORSDOF 3
ENDMDL
MODEL 9
REMARK VINA RESULT:      -7.4      3.408      8.999
REMARK  Name = 
REMARK  4 active torsions:
REMARK  status: ('A' for Active; 'I' for Inactive)
REMARK    1  A    between atoms: C_1  and  C_2
REMARK    2  A    between atoms: N_7  and  C_8
REMARK    3  A    between atoms: C_13  and  N_14
REMARK    4  A    between atoms: C_15  and  C_17
REMARK                            x       y       z     vdW  Elec       q    Type
REMARK                         _______ _______ _______ _____ _____    ______ ____
ROOT
ATOM      1  C   UNL     1       0.134  10.353  20.217  0.00  0.00    +0.000 A 
ATOM      2  C   UNL     1       0.581  10.803  18.971  0.00  0.00    +0.000 A 
ATOM      3  C   UNL     1       1.480  10.056  18.196  0.00  0.00    +0.000 A 
ATOM      4  C   UNL     1       1.957   8.813  18.646  0.00  0.00    +0.000 A 
ATOM      5  C   UNL     1       2.848   8.000  17.919  0.00  0.00    +0.000 A 
ATOM      6  C   UNL     1       3.239   6.768  18.443  0.00  0.00    +0.000 A 
ATOM      7  N   UNL     1       2.811   6.338  19.639  0.00  0.00    +0.000 NA
ATOM      8  C   UNL     1       1.961   7.122  20.331  0.00  0.00    +0.000 A 
ATOM      9  C   UNL     1       1.503   8.352  19.893  0.00  0.00    +0.000 A 
ATOM     10  C   UNL     1       0.602   9.111  20.653  0.00  0.00    +0.000 A 
ENDROOT
BRANCH   1  17
ATOM     11  C   UNL     1      -2.542  11.768  19.340  0.00  0.00    +0.000 C 
ATOM     12  C   UNL     1      -1.624  12.168  20.500  0.00  0.00    +0.000 C 
ATOM     13  C   UNL     1      -2.488  12.550  21.699  0.00  0.00    +0.000 C 
ATOM     14  C   UNL     1      -1.609  12.263  22.896  0.00  0.00    +0.000 C 
ATOM     15  C   UNL     1      -0.737  11.127  22.425  0.00  0.00    +0.000 C 
ATOM     16  O   UNL     1      -0.075  10.443  23.191  0.00  0.00    +0.000 OA
ATOM     17  N   UNL     1      -0.768  11.109  21.018  0.00  0.00    +0.000 N 
ENDBRANCH   1  17
BRANCH   6  18
ATOM     18  N   UNL     1       4.123   5.964  17.709  0.00  0.00    +0.000 N 
ATOM     19  C   UNL     1       3.824   4.696  17.255  0.00  0.00    +0.000 C 
ATOM     20  O   UNL     1       2.775   4.079  17.359  0.00  0.00    +0.000 OA
ATOM     21  H   UNL     1       5.043   6.341  17.528  0.00  0.00    +0.000 HD
BRANCH  19  22
ATOM     22  C   UNL     1       4.991   4.014  16.625  0.00  0.00    +0.000 C 
ATOM     23  C   UNL     1       5.301   4.364  15.183  0.00  0.00    +0.000 C 
ATOM     24  C   UNL     1       6.241   4.766  16.274  0.00  0.00    +0.000 C 
ATOM     25  F   UNL     1       7.437   4.076  16.334  0.00  0.00    +0.000 F 
ENDBRANCH  19  22
ENDBRANCH   6  18
TORSDOF 3
ENDMDL
