MODEL 1
REMARK VINA RESULT:      -7.9      0.000      0.000
REMARK  Name = 
REMARK  6 active torsions:
REMARK  status: ('A' for Active; 'I' for Inactive)
REMARK    1  A    between atoms: C_1  and  C_2
REMARK    2  A    between atoms: C_2  and  O_3
REMARK    3  A    between atoms: O_3  and  C_4
REMARK    4  A    between atoms: C_8  and  C_9
REMARK    5  A    between atoms: N_19  and  C_20
REMARK    6  A    between atoms: C_23  and  O_24
REMARK                            x       y       z     vdW  Elec       q    Type
REMARK                         _______ _______ _______ _____ _____    ______ ____
ROOT
ATOM      1  C   UNL     1       5.161   4.074  16.575  0.00  0.00    +0.000 C 
ATOM      2  N   UNL     1       4.618   4.025  15.217  0.00  0.00    +0.000 N 
ATOM      3  C   UNL     1       5.590   4.059  14.201  0.00  0.00    +0.000 A 
ATOM      4  C   UNL     1       5.300   3.550  12.930  0.00  0.00    +0.000 A 
ATOM      5  C   UNL     1       6.206   3.704  11.874  0.00  0.00    +0.000 A 
ATOM      6  C   UNL     1       7.403   4.390  12.069  0.00  0.00    +0.000 A 
ATOM      7  C   UNL     1       7.694   4.921  13.321  0.00  0.00    +0.000 A 
ATOM      8  C   UNL     1       6.785   4.760  14.376  0.00  0.00    +0.000 A 
ATOM      9  C   UNL     1       7.028   5.425  15.670  0.00  0.00    +0.000 C 
ATOM     10  O   UNL     1       7.980   6.196  15.766  0.00  0.00    +0.000 OA
ATOM     11  N   UNL     1       6.112   5.175  16.685  0.00  0.00    +0.000 N 
ATOM     12  H   UNL     1       3.986   3.235  15.101  0.00  0.00    +0.000 HD
ENDROOT
BRANCH   1  17
ATOM     13  C   UNL     1       2.379   3.130  19.057  0.00  0.00    +0.000 A 
ATOM     14  C   UNL     1       1.589   4.283  18.983  0.00  0.00    +0.000 A 
ATOM     15  C   UNL     1       2.000   5.390  18.248  0.00  0.00    +0.000 A 
ATOM     16  C   UNL     1       3.184   5.331  17.520  0.00  0.00    +0.000 A 
ATOM     17  C   UNL     1       3.969   4.163  17.521  0.00  0.00    +0.000 A 
ATOM     18  C   UNL     1       3.583   3.082  18.346  0.00  0.00    +0.000 A 
BRANCH  18  19
ATOM     19  O   UNL     1       4.378   1.967  18.415  0.00  0.00    +0.000 OA
ATOM     20  H   UNL     1       4.113   1.351  17.702  0.00  0.00    +0.000 HD
ENDBRANCH  18  19
BRANCH  13  21
ATOM     21  O   UNL     1       1.807   2.154  19.821  0.00  0.00    +0.000 OA
BRANCH  21  23
ATOM     22  C   UNL     1       2.295   2.909  22.002  0.00  0.00    +0.000 C 
ATOM     23  C   UNL     1       1.179   2.531  21.043  0.00  0.00    +0.000 C 
ENDBRANCH  21  23
ENDBRANCH  13  21
ENDBRANCH   1  17
BRANCH  11  24
ATOM     24  C   UNL     1       6.191   5.977  17.893  0.00  0.00    +0.000 C 
ATOM     25  C   UNL     1       6.545   5.445  19.262  0.00  0.00    +0.000 C 
ATOM     26  C   UNL     1       7.517   6.314  18.533  0.00  0.00    +0.000 C 
ENDBRANCH  11  24
TORSDOF 5
ENDMDL
MODEL 2
REMARK VINA RESULT:      -7.7      0.881      1.030
REMARK  Name = 
REMARK  6 active torsions:
REMARK  status: ('A' for Active; 'I' for Inactive)
REMARK    1  A    between atoms: C_1  and  C_2
REMARK    2  A    between atoms: C_2  and  O_3
REMARK    3  A    between atoms: O_3  and  C_4
REMARK    4  A    between atoms: C_8  and  C_9
REMARK    5  A    between atoms: N_19  and  C_20
REMARK    6  A    between atoms: C_23  and  O_24
REMARK                            x       y       z     vdW  Elec       q    Type
REMARK                         _______ _______ _______ _____ _____    ______ ____
ROOT
ATOM      1  C   UNL     1       5.351   4.426  16.884  0.00  0.00    +0.000 C 
ATOM      2  N   UNL     1       4.637   4.259  15.618  0.00  0.00    +0.000 N 
ATOM      3  C   UNL     1       5.472   4.118  14.495  0.00  0.00    +0.000 A 
ATOM      4  C   UNL     1       4.998   3.489  13.338  0.00  0.00    +0.000 A 
ATOM      5  C   UNL     1       5.768   3.468  12.169  0.00  0.00    +0.000 A 
ATOM      6  C   UNL     1       7.011   4.096  12.134  0.00  0.00    +0.000 A 
ATOM      7  C   UNL     1       7.484   4.746  13.270  0.00  0.00    +0.000 A 
ATOM      8  C   UNL     1       6.711   4.760  14.439  0.00  0.00    +0.000 A 
ATOM      9  C   UNL     1       7.148   5.549  15.605  0.00  0.00    +0.000 C 
ATOM     10  O   UNL     1       8.140   6.266  15.493  0.00  0.00    +0.000 OA
ATOM     11  N   UNL     1       6.358   5.472  16.747  0.00  0.00    +0.000 N 
ATOM     12  H   UNL     1       3.958   3.502  15.675  0.00  0.00    +0.000 HD
ENDROOT
BRANCH   1  17
ATOM     13  C   UNL     1       3.072   4.039  19.958  0.00  0.00    +0.000 A 
ATOM     14  C   UNL     1       2.137   5.046  19.693  0.00  0.00    +0.000 A 
ATOM     15  C   UNL     1       2.300   5.913  18.618  0.00  0.00    +0.000 A 
ATOM     16  C   UNL     1       3.373   5.739  17.750  0.00  0.00    +0.000 A 
ATOM     17  C   UNL     1       4.295   4.694  17.951  0.00  0.00    +0.000 A 
ATOM     18  C   UNL     1       4.165   3.881  19.099  0.00  0.00    +0.000 A 
BRANCH  18  19
ATOM     19  O   UNL     1       5.099   2.908  19.348  0.00  0.00    +0.000 OA
ATOM     20  H   UNL     1       5.674   2.819  18.561  0.00  0.00    +0.000 HD
ENDBRANCH  18  19
BRANCH  13  21
ATOM     21  O   UNL     1       2.738   3.291  21.051  0.00  0.00    +0.000 OA
BRANCH  21  23
ATOM     22  C   UNL     1       1.174   2.040  19.804  0.00  0.00    +0.000 C 
ATOM     23  C   UNL     1       1.422   2.750  21.124  0.00  0.00    +0.000 C 
ENDBRANCH  21  23
ENDBRANCH  13  21
ENDBRANCH   1  17
BRANCH  11  24
ATOM     24  C   UNL     1       6.629   6.398  17.832  0.00  0.00    +0.000 C 
ATOM     25  C   UNL     1       7.760   6.260  18.824  0.00  0.00    +0.000 C 
ATOM     26  C   UNL     1       7.809   7.339  17.792  0.00  0.00    +0.000 C 
ENDBRANCH  11  24
TORSDOF 5
ENDMDL
MODEL 3
REMARK VINA RESULT:      -7.1      1.712      2.278
REMARK  Name = 
REMARK  6 active torsions:
REMARK  status: ('A' for Active; 'I' for Inactive)
REMARK    1  A    between atoms: C_1  and  C_2
REMARK    2  A    between atoms: C_2  and  O_3
REMARK    3  A    between atoms: O_3  and  C_4
REMARK    4  A    between atoms: C_8  and  C_9
REMARK    5  A    between atoms: N_19  and  C_20
REMARK    6  A    between atoms: C_23  and  O_24
REMARK                            x       y       z     vdW  Elec       q    Type
REMARK                         _______ _______ _______ _____ _____    ______ ____
ROOT
ATOM      1  C   UNL     1       5.469   4.001  17.108  0.00  0.00    +0.000 C 
ATOM      2  N   UNL     1       4.754   3.899  15.835  0.00  0.00    +0.000 N 
ATOM      3  C   UNL     1       5.575   4.000  14.699  0.00  0.00    +0.000 A 
ATOM      4  C   UNL     1       5.157   3.460  13.477  0.00  0.00    +0.000 A 
ATOM      5  C   UNL     1       5.898   3.676  12.308  0.00  0.00    +0.000 A 
ATOM      6  C   UNL     1       7.053   4.455  12.343  0.00  0.00    +0.000 A 
ATOM      7  C   UNL     1       7.467   5.018  13.545  0.00  0.00    +0.000 A 
ATOM      8  C   UNL     1       6.723   4.794  14.713  0.00  0.00    +0.000 A 
ATOM      9  C   UNL     1       7.085   5.487  15.963  0.00  0.00    +0.000 C 
ATOM     10  O   UNL     1       7.977   6.331  15.933  0.00  0.00    +0.000 OA
ATOM     11  N   UNL     1       6.336   5.174  17.093  0.00  0.00    +0.000 N 
ATOM     12  H   UNL     1       4.176   3.061  15.804  0.00  0.00    +0.000 HD
ENDROOT
BRANCH   1  17
ATOM     13  C   UNL     1       2.614   5.102  19.439  0.00  0.00    +0.000 A 
ATOM     14  C   UNL     1       2.718   4.118  20.428  0.00  0.00    +0.000 A 
ATOM     15  C   UNL     1       3.602   3.053  20.292  0.00  0.00    +0.000 A 
ATOM     16  C   UNL     1       4.445   2.995  19.187  0.00  0.00    +0.000 A 
ATOM     17  C   UNL     1       4.412   4.004  18.206  0.00  0.00    +0.000 A 
ATOM     18  C   UNL     1       3.445   5.029  18.315  0.00  0.00    +0.000 A 
BRANCH  18  19
ATOM     19  O   UNL     1       3.350   5.976  17.328  0.00  0.00    +0.000 OA
ATOM     20  H   UNL     1       2.418   6.265  17.261  0.00  0.00    +0.000 HD
ENDBRANCH  18  19
BRANCH  13  21
ATOM     21  O   UNL     1       1.697   6.064  19.753  0.00  0.00    +0.000 OA
BRANCH  21  23
ATOM     22  C   UNL     1       1.212   7.974  21.050  0.00  0.00    +0.000 C 
ATOM     23  C   UNL     1       2.164   7.381  20.025  0.00  0.00    +0.000 C 
ENDBRANCH  21  23
ENDBRANCH  13  21
ENDBRANCH   1  17
BRANCH  11  24
ATOM     24  C   UNL     1       6.513   5.990  18.281  0.00  0.00    +0.000 C 
ATOM     25  C   UNL     1       7.326   5.590  19.490  0.00  0.00    +0.000 C 
ATOM     26  C   UNL     1       7.827   6.668  18.585  0.00  0.00    +0.000 C 
ENDBRANCH  11  24
TORSDOF 5
ENDMDL
MODEL 4
REMARK VINA RESULT:      -6.9      0.889      1.094
REMARK  Name = 
REMARK  6 active torsions:
REMARK  status: ('A' for Active; 'I' for Inactive)
REMARK    1  A    between atoms: C_1  and  C_2
REMARK    2  A    between atoms: C_2  and  O_3
REMARK    3  A    between atoms: O_3  and  C_4
REMARK    4  A    between atoms: C_8  and  C_9
REMARK    5  A    between atoms: N_19  and  C_20
REMARK    6  A    between atoms: C_23  and  O_24
REMARK                            x       y       z     vdW  Elec       q    Type
REMARK                         _______ _______ _______ _____ _____    ______ ____
ROOT
ATOM      1  C   UNL     1       5.319   3.901  16.434  0.00  0.00    +0.000 C 
ATOM      2  N   UNL     1       4.770   3.729  15.088  0.00  0.00    +0.000 N 
ATOM      3  C   UNL     1       5.717   3.841  14.056  0.00  0.00    +0.000 A 
ATOM      4  C   UNL     1       5.477   3.248  12.811  0.00  0.00    +0.000 A 
ATOM      5  C   UNL     1       6.344   3.469  11.733  0.00  0.00    +0.000 A 
ATOM      6  C   UNL     1       7.449   4.305  11.881  0.00  0.00    +0.000 A 
ATOM      7  C   UNL     1       7.687   4.920  13.106  0.00  0.00    +0.000 A 
ATOM      8  C   UNL     1       6.818   4.691  14.182  0.00  0.00    +0.000 A 
ATOM      9  C   UNL     1       6.993   5.433  15.444  0.00  0.00    +0.000 C 
ATOM     10  O   UNL     1       7.843   6.320  15.493  0.00  0.00    +0.000 OA
ATOM     11  N   UNL     1       6.127   5.115  16.484  0.00  0.00    +0.000 N 
ATOM     12  H   UNL     1       4.239   2.863  15.015  0.00  0.00    +0.000 HD
ENDROOT
BRANCH   1  17
ATOM     13  C   UNL     1       3.105   3.195  19.498  0.00  0.00    +0.000 A 
ATOM     14  C   UNL     1       1.859   3.576  18.988  0.00  0.00    +0.000 A 
ATOM     15  C   UNL     1       1.746   4.162  17.732  0.00  0.00    +0.000 A 
ATOM     16  C   UNL     1       2.879   4.314  16.938  0.00  0.00    +0.000 A 
ATOM     17  C   UNL     1       4.138   3.881  17.396  0.00  0.00    +0.000 A 
ATOM     18  C   UNL     1       4.248   3.373  18.710  0.00  0.00    +0.000 A 
BRANCH  18  19
ATOM     19  O   UNL     1       5.480   3.017  19.196  0.00  0.00    +0.000 OA
ATOM     20  H   UNL     1       6.053   2.770  18.442  0.00  0.00    +0.000 HD
ENDBRANCH  18  19
BRANCH  13  21
ATOM     21  O   UNL     1       3.012   2.637  20.741  0.00  0.00    +0.000 OA
BRANCH  21  23
ATOM     22  C   UNL     1       1.204   2.313  22.221  0.00  0.00    +0.000 C 
ATOM     23  C   UNL     1       2.240   3.311  21.729  0.00  0.00    +0.000 C 
ENDBRANCH  21  23
ENDBRANCH  13  21
ENDBRANCH   1  17
BRANCH  11  24
ATOM     24  C   UNL     1       6.121   5.969  17.658  0.00  0.00    +0.000 C 
ATOM     25  C   UNL     1       6.595   7.404  17.685  0.00  0.00    +0.000 C 
ATOM     26  C   UNL     1       5.136   7.105  17.803  0.00  0.00    +0.000 C 
ENDBRANCH  11  24
TORSDOF 5
ENDMDL
MODEL 5
REMARK VINA RESULT:      -6.8      4.119      6.016
REMARK  Name = 
REMARK  6 active torsions:
REMARK  status: ('A' for Active; 'I' for Inactive)
REMARK    1  A    between atoms: C_1  and  C_2
REMARK    2  A    between atoms: C_2  and  O_3
REMARK    3  A    between atoms: O_3  and  C_4
REMARK    4  A    between atoms: C_8  and  C_9
REMARK    5  A    between atoms: N_19  and  C_20
REMARK    6  A    between atoms: C_23  and  O_24
REMARK                            x       y       z     vdW  Elec       q    Type
REMARK                         _______ _______ _______ _____ _____    ______ ____
ROOT
ATOM      1  C   UNL     1       2.367   6.706  18.367  0.00  0.00    +0.000 C 
ATOM      2  N   UNL     1       3.624   7.203  17.806  0.00  0.00    +0.000 N 
ATOM      3  C   UNL     1       4.360   6.243  17.089  0.00  0.00    +0.000 A 
ATOM      4  C   UNL     1       5.288   6.645  16.121  0.00  0.00    +0.000 A 
ATOM      5  C   UNL     1       6.126   5.710  15.502  0.00  0.00    +0.000 A 
ATOM      6  C   UNL     1       6.063   4.365  15.860  0.00  0.00    +0.000 A 
ATOM      7  C   UNL     1       5.163   3.955  16.837  0.00  0.00    +0.000 A 
ATOM      8  C   UNL     1       4.323   4.895  17.451  0.00  0.00    +0.000 A 
ATOM      9  C   UNL     1       3.455   4.491  18.572  0.00  0.00    +0.000 C 
ATOM     10  O   UNL     1       3.560   3.350  19.017  0.00  0.00    +0.000 OA
ATOM     11  N   UNL     1       2.610   5.464  19.094  0.00  0.00    +0.000 N 
ATOM     12  H   UNL     1       3.473   8.046  17.254  0.00  0.00    +0.000 HD
ENDROOT
BRANCH   1  17
ATOM     13  C   UNL     1       1.079  10.155  19.478  0.00  0.00    +0.000 A 
ATOM     14  C   UNL     1       1.034   9.961  20.863  0.00  0.00    +0.000 A 
ATOM     15  C   UNL     1       1.292   8.714  21.422  0.00  0.00    +0.000 A 
ATOM     16  C   UNL     1       1.666   7.655  20.601  0.00  0.00    +0.000 A 
ATOM     17  C   UNL     1       1.785   7.835  19.210  0.00  0.00    +0.000 A 
ATOM     18  C   UNL     1       1.430   9.083  18.650  0.00  0.00    +0.000 A 
BRANCH  18  19
ATOM     19  O   UNL     1       1.469   9.249  17.289  0.00  0.00    +0.000 OA
ATOM     20  H   UNL     1       1.629   8.378  16.873  0.00  0.00    +0.000 HD
ENDBRANCH  18  19
BRANCH  13  21
ATOM     21  O   UNL     1       0.800  11.444  19.122  0.00  0.00    +0.000 OA
BRANCH  21  23
ATOM     22  C   UNL     1       2.563  12.681  18.159  0.00  0.00    +0.000 C 
ATOM     23  C   UNL     1       1.758  12.453  19.428  0.00  0.00    +0.000 C 
ENDBRANCH  21  23
ENDBRANCH  13  21
ENDBRANCH   1  17
BRANCH  11  24
ATOM     24  C   UNL     1       1.908   5.172  20.331  0.00  0.00    +0.000 C 
ATOM     25  C   UNL     1       0.862   4.094  20.496  0.00  0.00    +0.000 C 
ATOM     26  C   UNL     1       2.203   3.926  21.132  0.00  0.00    +0.000 C 
ENDBRANCH  11  24
TORSDOF 5
ENDMDL
MODEL 6
REMARK VINA RESULT:      -6.5      2.391      6.964
REMARK  Name = 
REMARK  6 active torsions:
REMARK  status: ('A' for Active; 'I' for Inactive)
REMARK    1  A    between atoms: C_1  and  C_2
REMARK    2  A    between atoms: C_2  and  O_3
REMARK    3  A    between atoms: O_3  and  C_4
REMARK    4  A    between atoms: C_8  and  C_9
REMARK    5  A    between atoms: N_19  and  C_20
REMARK    6  A    between atoms: C_23  and  O_24
REMARK                            x       y       z     vdW  Elec       q    Type
REMARK                         _______ _______ _______ _____ _____    ______ ____
ROOT
ATOM      1  C   UNL     1       4.380   6.089  18.052  0.00  0.00    +0.000 C 
ATOM      2  N   UNL     1       3.582   7.129  17.401  0.00  0.00    +0.000 N 
ATOM      3  C   UNL     1       2.781   7.880  18.280  0.00  0.00    +0.000 A 
ATOM      4  C   UNL     1       2.354   9.164  17.921  0.00  0.00    +0.000 A 
ATOM      5  C   UNL     1       1.444   9.865  18.722  0.00  0.00    +0.000 A 
ATOM      6  C   UNL     1       0.931   9.282  19.878  0.00  0.00    +0.000 A 
ATOM      7  C   UNL     1       1.328   7.997  20.234  0.00  0.00    +0.000 A 
ATOM      8  C   UNL     1       2.243   7.302  19.431  0.00  0.00    +0.000 A 
ATOM      9  C   UNL     1       2.573   5.897  19.733  0.00  0.00    +0.000 C 
ATOM     10  O   UNL     1       1.958   5.327  20.631  0.00  0.00    +0.000 OA
ATOM     11  N   UNL     1       3.529   5.290  18.926  0.00  0.00    +0.000 N 
ATOM     12  H   UNL     1       4.163   7.730  16.821  0.00  0.00    +0.000 HD
ENDROOT
BRANCH   1  17
ATOM     13  C   UNL     1       6.721   5.135  15.153  0.00  0.00    +0.000 A 
ATOM     14  C   UNL     1       6.082   3.976  14.699  0.00  0.00    +0.000 A 
ATOM     15  C   UNL     1       4.995   3.441  15.381  0.00  0.00    +0.000 A 
ATOM     16  C   UNL     1       4.489   4.101  16.496  0.00  0.00    +0.000 A 
ATOM     17  C   UNL     1       5.068   5.305  16.940  0.00  0.00    +0.000 A 
ATOM     18  C   UNL     1       6.228   5.784  16.291  0.00  0.00    +0.000 A 
BRANCH  18  19
ATOM     19  O   UNL     1       6.847   6.915  16.759  0.00  0.00    +0.000 OA
ATOM     20  H   UNL     1       7.305   6.696  17.596  0.00  0.00    +0.000 HD
ENDBRANCH  18  19
BRANCH  13  21
ATOM     21  O   UNL     1       7.763   5.505  14.351  0.00  0.00    +0.000 OA
BRANCH  21  23
ATOM     22  C   UNL     1       8.217   6.134  12.124  0.00  0.00    +0.000 C 
ATOM     23  C   UNL     1       7.819   4.980  13.029  0.00  0.00    +0.000 C 
ENDBRANCH  21  23
ENDBRANCH  13  21
ENDBRANCH   1  17
BRANCH  11  24
ATOM     24  C   UNL     1       3.719   3.855  19.048  0.00  0.00    +0.000 C 
ATOM     25  C   UNL     1       4.680   3.189  20.004  0.00  0.00    +0.000 C 
ATOM     26  C   UNL     1       3.209   3.090  20.245  0.00  0.00    +0.000 C 
ENDBRANCH  11  24
TORSDOF 5
ENDMDL
MODEL 7
REMARK VINA RESULT:      -6.5      3.829      5.912
REMARK  Name = 
REMARK  6 active torsions:
REMARK  status: ('A' for Active; 'I' for Inactive)
REMARK    1  A    between atoms: C_1  and  C_2
REMARK    2  A    between atoms: C_2  and  O_3
REMARK    3  A    between atoms: O_3  and  C_4
REMARK    4  A    between atoms: C_8  and  C_9
REMARK    5  A    between atoms: N_19  and  C_20
REMARK    6  A    between atoms: C_23  and  O_24
REMARK                            x       y       z     vdW  Elec       q    Type
REMARK                         _______ _______ _______ _____ _____    ______ ____
ROOT
ATOM      1  C   UNL     1       2.825   6.309  19.089  0.00  0.00    +0.000 C 
ATOM      2  N   UNL     1       1.646   5.441  19.116  0.00  0.00    +0.000 N 
ATOM      3  C   UNL     1       1.934   4.068  19.023  0.00  0.00    +0.000 A 
ATOM      4  C   UNL     1       1.021   3.123  19.504  0.00  0.00    +0.000 A 
ATOM      5  C   UNL     1       1.230   1.754  19.293  0.00  0.00    +0.000 A 
ATOM      6  C   UNL     1       2.341   1.316  18.575  0.00  0.00    +0.000 A 
ATOM      7  C   UNL     1       3.244   2.246  18.071  0.00  0.00    +0.000 A 
ATOM      8  C   UNL     1       3.032   3.614  18.290  0.00  0.00    +0.000 A 
ATOM      9  C   UNL     1       3.915   4.610  17.655  0.00  0.00    +0.000 C 
ATOM     10  O   UNL     1       4.765   4.220  16.857  0.00  0.00    +0.000 OA
ATOM     11  N   UNL     1       3.677   5.945  17.962  0.00  0.00    +0.000 N 
ATOM     12  H   UNL     1       1.058   5.646  19.921  0.00  0.00    +0.000 HD
ENDROOT
BRANCH   1  17
ATOM     13  C   UNL     1       1.165   9.622  20.118  0.00  0.00    +0.000 A 
ATOM     14  C   UNL     1       1.095  10.254  18.871  0.00  0.00    +0.000 A 
ATOM     15  C   UNL     1       1.677   9.684  17.743  0.00  0.00    +0.000 A 
ATOM     16  C   UNL     1       2.283   8.436  17.838  0.00  0.00    +0.000 A 
ATOM     17  C   UNL     1       2.313   7.744  19.063  0.00  0.00    +0.000 A 
ATOM     18  C   UNL     1       1.798   8.378  20.217  0.00  0.00    +0.000 A 
BRANCH  18  19
ATOM     19  O   UNL     1       1.888   7.748  21.431  0.00  0.00    +0.000 OA
ATOM     20  H   UNL     1       2.352   6.895  21.307  0.00  0.00    +0.000 HD
ENDBRANCH  18  19
BRANCH  13  21
ATOM     21  O   UNL     1       0.533  10.332  21.099  0.00  0.00    +0.000 OA
BRANCH  21  23
ATOM     22  C   UNL     1      -0.395   9.799  23.201  0.00  0.00    +0.000 C 
ATOM     23  C   UNL     1      -0.629   9.770  21.699  0.00  0.00    +0.000 C 
ENDBRANCH  21  23
ENDBRANCH  13  21
ENDBRANCH   1  17
BRANCH  11  24
ATOM     24  C   UNL     1       4.374   6.960  17.192  0.00  0.00    +0.000 C 
ATOM     25  C   UNL     1       5.874   7.134  17.149  0.00  0.00    +0.000 C 
ATOM     26  C   UNL     1       5.156   6.611  15.948  0.00  0.00    +0.000 C 
ENDBRANCH  11  24
TORSDOF 5
ENDMDL
MODEL 8
REMARK VINA RESULT:      -6.4      3.526      5.438
REMARK  Name = 
REMARK  6 active torsions:
REMARK  status: ('A' for Active; 'I' for Inactive)
REMARK    1  A    between atoms: C_1  and  C_2
REMARK    2  A    between atoms: C_2  and  O_3
REMARK    3  A    between atoms: O_3  and  C_4
REMARK    4  A    between atoms: C_8  and  C_9
REMARK    5  A    between atoms: N_19  and  C_20
REMARK    6  A    between atoms: C_23  and  O_24
REMARK                            x       y       z     vdW  Elec       q    Type
REMARK                         _______ _______ _______ _____ _____    ______ ____
ROOT
ATOM      1  C   UNL     1       2.777   6.197  17.864  0.00  0.00    +0.000 C 
ATOM      2  N   UNL     1       4.175   6.621  17.779  0.00  0.00    +0.000 N 
ATOM      3  C   UNL     1       4.978   5.809  16.959  0.00  0.00    +0.000 A 
ATOM      4  C   UNL     1       6.154   6.319  16.397  0.00  0.00    +0.000 A 
ATOM      5  C   UNL     1       7.034   5.484  15.698  0.00  0.00    +0.000 A 
ATOM      6  C   UNL     1       6.761   4.123  15.572  0.00  0.00    +0.000 A 
ATOM      7  C   UNL     1       5.607   3.598  16.146  0.00  0.00    +0.000 A 
ATOM      8  C   UNL     1       4.728   4.440  16.841  0.00  0.00    +0.000 A 
ATOM      9  C   UNL     1       3.570   3.872  17.556  0.00  0.00    +0.000 C 
ATOM     10  O   UNL     1       3.454   2.650  17.612  0.00  0.00    +0.000 OA
ATOM     11  N   UNL     1       2.713   4.773  18.177  0.00  0.00    +0.000 N 
ATOM     12  H   UNL     1       4.246   7.602  17.515  0.00  0.00    +0.000 HD
ENDROOT
BRANCH   1  17
ATOM     13  C   UNL     1       1.319   9.302  19.605  0.00  0.00    +0.000 A 
ATOM     14  C   UNL     1       1.177   8.804  20.905  0.00  0.00    +0.000 A 
ATOM     15  C   UNL     1       1.427   7.467  21.194  0.00  0.00    +0.000 A 
ATOM     16  C   UNL     1       1.889   6.620  20.191  0.00  0.00    +0.000 A 
ATOM     17  C   UNL     1       2.104   7.105  18.887  0.00  0.00    +0.000 A 
ATOM     18  C   UNL     1       1.758   8.443  18.591  0.00  0.00    +0.000 A 
BRANCH  18  19
ATOM     19  O   UNL     1       1.892   8.907  17.308  0.00  0.00    +0.000 OA
ATOM     20  H   UNL     1       1.190   8.507  16.756  0.00  0.00    +0.000 HD
ENDBRANCH  18  19
BRANCH  13  21
ATOM     21  O   UNL     1       1.033  10.634  19.521  0.00  0.00    +0.000 OA
BRANCH  21  23
ATOM     22  C   UNL     1      -1.134  10.614  18.589  0.00  0.00    +0.000 C 
ATOM     23  C   UNL     1      -0.302  11.057  19.781  0.00  0.00    +0.000 C 
ENDBRANCH  21  23
ENDBRANCH  13  21
ENDBRANCH   1  17
BRANCH  11  24
ATOM     24  C   UNL     1       1.695   4.248  19.070  0.00  0.00    +0.000 C 
ATOM     25  C   UNL     1       0.839   3.036  18.786  0.00  0.00    +0.000 C 
ATOM     26  C   UNL     1       1.901   2.961  19.833  0.00  0.00    +0.000 C 
ENDBRANCH  11  24
TORSDOF 5
ENDMDL
MODEL 9
REMARK VINA RESULT:      -6.3     10.427     12.497
REMARK  Name = 
REMARK  6 active torsions:
REMARK  status: ('A' for Active; 'I' for Inactive)
REMARK    1  A    between atoms: C_1  and  C_2
REMARK    2  A    between atoms: C_2  and  O_3
REMARK    3  A    between atoms: O_3  and  C_4
REMARK    4  A    between atoms: C_8  and  C_9
REMARK    5  A    between atoms: N_19  and  C_20
REMARK    6  A    between atoms: C_23  and  O_24
REMARK                            x       y       z     vdW  Elec       q    Type
REMARK                         _______ _______ _______ _____ _____    ______ ____
ROOT
ATOM      1  C   UNL     1      -3.278  12.254  20.303  0.00  0.00    +0.000 C 
ATOM      2  N   UNL     1      -3.701  12.599  18.945  0.00  0.00    +0.000 N 
ATOM      3  C   UNL     1      -3.428  11.611  17.983  0.00  0.00    +0.000 A 
ATOM      4  C   UNL     1      -4.164  11.561  16.794  0.00  0.00    +0.000 A 
ATOM      5  C   UNL     1      -3.811  10.674  15.770  0.00  0.00    +0.000 A 
ATOM      6  C   UNL     1      -2.702   9.842  15.912  0.00  0.00    +0.000 A 
ATOM      7  C   UNL     1      -1.947   9.897  17.079  0.00  0.00    +0.000 A 
ATOM      8  C   UNL     1      -2.308  10.785  18.102  0.00  0.00    +0.000 A 
ATOM      9  C   UNL     1      -1.443  10.938  19.287  0.00  0.00    +0.000 C 
ATOM     10  O   UNL     1      -0.362  10.354  19.307  0.00  0.00    +0.000 OA
ATOM     11  N   UNL     1      -1.893  11.795  20.285  0.00  0.00    +0.000 N 
ATOM     12  H   UNL     1      -4.679  12.879  18.924  0.00  0.00    +0.000 HD
ENDROOT
BRANCH   1  17
ATOM     13  C   UNL     1      -4.732  14.626  22.958  0.00  0.00    +0.000 A 
ATOM     14  C   UNL     1      -4.206  15.843  22.508  0.00  0.00    +0.000 A 
ATOM     15  C   UNL     1      -3.305  15.888  21.450  0.00  0.00    +0.000 A 
ATOM     16  C   UNL     1      -2.968  14.715  20.781  0.00  0.00    +0.000 A 
ATOM     17  C   UNL     1      -3.531  13.484  21.167  0.00  0.00    +0.000 A 
ATOM     18  C   UNL     1      -4.372  13.444  22.302  0.00  0.00    +0.000 A 
BRANCH  18  19
ATOM     19  O   UNL     1      -4.868  12.241  22.734  0.00  0.00    +0.000 OA
ATOM     20  H   UNL     1      -4.148  11.748  23.178  0.00  0.00    +0.000 HD
ENDBRANCH  18  19
BRANCH  13  21
ATOM     21  O   UNL     1      -5.599  14.786  24.001  0.00  0.00    +0.000 OA
BRANCH  21  23
ATOM     22  C   UNL     1      -7.724  13.797  24.263  0.00  0.00    +0.000 C 
ATOM     23  C   UNL     1      -6.977  14.999  23.709  0.00  0.00    +0.000 C 
ENDBRANCH  21  23
ENDBRANCH  13  21
ENDBRANCH   1  17
BRANCH  11  24
ATOM     24  C   UNL     1      -0.976  12.142  21.356  0.00  0.00    +0.000 C 
ATOM     25  C   UNL     1      -1.172  11.786  22.811  0.00  0.00    +0.000 C 
ATOM     26  C   UNL     1      -0.106  11.101  22.020  0.00  0.00    +0.000 C 
ENDBRANCH  11  24
TORSDOF 5
ENDMDL
