MODEL 1
REMARK VINA RESULT:      -6.0      0.000      0.000
REMARK  Name = 
REMARK  14 active torsions:
REMARK  status: ('A' for Active; 'I' for Inactive)
REMARK    1  A    between atoms: C_1  and  C_2
REMARK    2  A    between atoms: C_2  and  O_3
REMARK    3  A    between atoms: O_3  and  C_4
REMARK    4  A    between atoms: C_4  and  C_6
REMARK    5  A    between atoms: C_10  and  C_11
REMARK    6  A    between atoms: N_13  and  C_14
REMARK    7  A    between atoms: N_13  and  C_16
REMARK    8  A    between atoms: C_14  and  C_15
REMARK    9  A    between atoms: C_16  and  C_17
REMARK   10  A    between atoms: C_18  and  N_19
REMARK   11  A    between atoms: N_19  and  C_20
REMARK   12  A    between atoms: C_20  and  C_21
REMARK   13  A    between atoms: C_21  and  C_22
REMARK   14  A    between atoms: C_21  and  C_23
REMARK                            x       y       z     vdW  Elec       q    Type
REMARK                         _______ _______ _______ _____ _____    ______ ____
ROOT
ATOM      1  C   UNL     1      -3.623  11.010  17.891  0.00  0.00    +0.000 A 
ATOM      2  N   UNL     1      -2.991  10.153  17.111  0.00  0.00    +0.000 NA
ATOM      3  N   UNL     1      -1.679  10.147  17.482  0.00  0.00    +0.000 NA
ATOM      4  C   UNL     1      -1.560  10.806  18.616  0.00  0.00    +0.000 A 
ATOM      5  C   UNL     1      -0.478  10.919  19.540  0.00  0.00    +0.000 A 
ATOM      6  C   UNL     1      -0.464  11.985  20.408  0.00  0.00    +0.000 A 
ATOM      7  C   UNL     1      -1.741  12.785  20.559  0.00  0.00    +0.000 A 
ATOM      8  C   UNL     1      -1.898  13.865  21.432  0.00  0.00    +0.000 A 
ATOM      9  C   UNL     1      -3.136  14.505  21.582  0.00  0.00    +0.000 A 
ATOM     10  C   UNL     1      -4.207  14.046  20.847  0.00  0.00    +0.000 A 
ATOM     11  N   UNL     1      -4.112  13.022  19.982  0.00  0.00    +0.000 NA
ATOM     12  C   UNL     1      -2.895  12.447  19.831  0.00  0.00    +0.000 A 
ATOM     13  N   UNL     1      -2.737  11.481  18.836  0.00  0.00    +0.000 N 
ENDROOT
BRANCH   5  14
ATOM     14  C   UNL     1       0.672   9.892  19.501  0.00  0.00    +0.000 C 
ATOM     15  O   UNL     1       1.533  10.038  18.623  0.00  0.00    +0.000 OA
ATOM     16  N   UNL     1       0.801   8.863  20.478  0.00  0.00    +0.000 N 
BRANCH  16  17
ATOM     17  C   UNL     1       1.884   7.876  20.314  0.00  0.00    +0.000 C 
ATOM     18  C   UNL     1       1.505   6.447  20.703  0.00  0.00    +0.000 C 
ENDBRANCH  16  17
BRANCH  16  19
ATOM     19  C   UNL     1      -0.172   8.578  21.550  0.00  0.00    +0.000 C 
ATOM     20  C   UNL     1      -0.051   9.288  22.893  0.00  0.00    +0.000 C 
ENDBRANCH  16  19
ENDBRANCH   5  14
BRANCH   1  21
ATOM     21  C   UNL     1      -4.990  11.373  17.667  0.00  0.00    +0.000 C 
ATOM     22  O   UNL     1      -5.393  12.273  16.931  0.00  0.00    +0.000 OA
BRANCH  21  23
ATOM     23  O   UNL     1      -5.816  10.568  18.393  0.00  0.00    +0.000 OA
BRANCH  23  25
ATOM     24  C   UNL     1      -7.335  10.635  20.246  0.00  0.00    +0.000 C 
ATOM     25  C   UNL     1      -7.028  11.189  18.866  0.00  0.00    +0.000 C 
ENDBRANCH  23  25
ENDBRANCH  21  23
ENDBRANCH   1  21
BRANCH   6  26
ATOM     26  N   UNL     1       0.655  12.464  21.130  0.00  0.00    +0.000 N 
ATOM     27  H   UNL     1       0.293  12.914  21.983  0.00  0.00    +0.000 HD
BRANCH  26  28
ATOM     28  C   UNL     1       1.644  13.390  20.550  0.00  0.00    +0.000 C 
BRANCH  28  29
ATOM     29  C   UNL     1       1.336  13.797  19.086  0.00  0.00    +0.000 C 
ATOM     30  C   UNL     1       0.912  15.258  18.933  0.00  0.00    +0.000 C 
ATOM     31  C   UNL     1       2.459  13.466  18.099  0.00  0.00    +0.000 C 
ENDBRANCH  28  29
ENDBRANCH  26  28
ENDBRANCH   6  26
TORSDOF 9
ENDMDL
MODEL 2
REMARK VINA RESULT:      -5.9      2.343      4.537
REMARK  Name = 
REMARK  14 active torsions:
REMARK  status: ('A' for Active; 'I' for Inactive)
REMARK    1  A    between atoms: C_1  and  C_2
REMARK    2  A    between atoms: C_2  and  O_3
REMARK    3  A    between atoms: O_3  and  C_4
REMARK    4  A    between atoms: C_4  and  C_6
REMARK    5  A    between atoms: C_10  and  C_11
REMARK    6  A    between atoms: N_13  and  C_14
REMARK    7  A    between atoms: N_13  and  C_16
REMARK    8  A    between atoms: C_14  and  C_15
REMARK    9  A    between atoms: C_16  and  C_17
REMARK   10  A    between atoms: C_18  and  N_19
REMARK   11  A    between atoms: N_19  and  C_20
REMARK   12  A    between atoms: C_20  and  C_21
REMARK   13  A    between atoms: C_21  and  C_22
REMARK   14  A    between atoms: C_21  and  C_23
REMARK                            x       y       z     vdW  Elec       q    Type
REMARK                         _______ _______ _______ _____ _____    ______ ____
ROOT
ATOM      1  C   UNL     1      -4.445  12.854  21.795  0.00  0.00    +0.000 A 
ATOM      2  N   UNL     1      -3.692  12.943  22.875  0.00  0.00    +0.000 NA
ATOM      3  N   UNL     1      -2.429  12.563  22.531  0.00  0.00    +0.000 NA
ATOM      4  C   UNL     1      -2.361  12.474  21.218  0.00  0.00    +0.000 A 
ATOM      5  C   UNL     1      -1.251  12.332  20.332  0.00  0.00    +0.000 A 
ATOM      6  C   UNL     1      -1.479  11.845  19.067  0.00  0.00    +0.000 A 
ATOM      7  C   UNL     1      -2.911  11.799  18.579  0.00  0.00    +0.000 A 
ATOM      8  C   UNL     1      -3.299  11.374  17.304  0.00  0.00    +0.000 A 
ATOM      9  C   UNL     1      -4.636  11.440  16.892  0.00  0.00    +0.000 A 
ATOM     10  C   UNL     1      -5.574  11.935  17.773  0.00  0.00    +0.000 A 
ATOM     11  N   UNL     1      -5.261  12.344  19.015  0.00  0.00    +0.000 NA
ATOM     12  C   UNL     1      -3.967  12.236  19.398  0.00  0.00    +0.000 A 
ATOM     13  N   UNL     1      -3.644  12.515  20.726  0.00  0.00    +0.000 N 
ENDROOT
BRANCH   5  14
ATOM     14  C   UNL     1       0.172  12.662  20.829  0.00  0.00    +0.000 C 
ATOM     15  O   UNL     1       0.851  11.723  21.265  0.00  0.00    +0.000 OA
ATOM     16  N   UNL     1       0.728  13.969  20.720  0.00  0.00    +0.000 N 
BRANCH  16  17
ATOM     17  C   UNL     1       2.062  14.211  21.296  0.00  0.00    +0.000 C 
ATOM     18  C   UNL     1       3.213  14.127  20.292  0.00  0.00    +0.000 C 
ENDBRANCH  16  17
BRANCH  16  19
ATOM     19  C   UNL     1       0.007  15.165  20.242  0.00  0.00    +0.000 C 
ATOM     20  C   UNL     1      -0.082  15.451  18.748  0.00  0.00    +0.000 C 
ENDBRANCH  16  19
ENDBRANCH   5  14
BRANCH   1  21
ATOM     21  C   UNL     1      -5.866  13.034  21.845  0.00  0.00    +0.000 C 
ATOM     22  O   UNL     1      -6.476  14.074  21.604  0.00  0.00    +0.000 OA
BRANCH  21  23
ATOM     23  O   UNL     1      -6.475  11.868  22.202  0.00  0.00    +0.000 OA
BRANCH  23  25
ATOM     24  C   UNL     1      -7.701  10.451  20.707  0.00  0.00    +0.000 C 
ATOM     25  C   UNL     1      -7.782  11.652  21.632  0.00  0.00    +0.000 C 
ENDBRANCH  23  25
ENDBRANCH  21  23
ENDBRANCH   1  21
BRANCH   6  26
ATOM     26  N   UNL     1      -0.508  11.308  18.188  0.00  0.00    +0.000 N 
ATOM     27  H   UNL     1      -0.868  11.431  17.230  0.00  0.00    +0.000 HD
BRANCH  26  28
ATOM     28  C   UNL     1      -0.024   9.920  18.284  0.00  0.00    +0.000 C 
BRANCH  28  29
ATOM     29  C   UNL     1       1.449   9.738  17.838  0.00  0.00    +0.000 C 
ATOM     30  C   UNL     1       2.330  10.956  18.118  0.00  0.00    +0.000 C 
ATOM     31  C   UNL     1       2.111   8.469  18.381  0.00  0.00    +0.000 C 
ENDBRANCH  28  29
ENDBRANCH  26  28
ENDBRANCH   6  26
TORSDOF 9
ENDMDL
MODEL 3
REMARK VINA RESULT:      -5.8      2.200      7.069
REMARK  Name = 
REMARK  14 active torsions:
REMARK  status: ('A' for Active; 'I' for Inactive)
REMARK    1  A    between atoms: C_1  and  C_2
REMARK    2  A    between atoms: C_2  and  O_3
REMARK    3  A    between atoms: O_3  and  C_4
REMARK    4  A    between atoms: C_4  and  C_6
REMARK    5  A    between atoms: C_10  and  C_11
REMARK    6  A    between atoms: N_13  and  C_14
REMARK    7  A    between atoms: N_13  and  C_16
REMARK    8  A    between atoms: C_14  and  C_15
REMARK    9  A    between atoms: C_16  and  C_17
REMARK   10  A    between atoms: C_18  and  N_19
REMARK   11  A    between atoms: N_19  and  C_20
REMARK   12  A    between atoms: C_20  and  C_21
REMARK   13  A    between atoms: C_21  and  C_22
REMARK   14  A    between atoms: C_21  and  C_23
REMARK                            x       y       z     vdW  Elec       q    Type
REMARK                         _______ _______ _______ _____ _____    ______ ____
ROOT
ATOM      1  C   UNL     1      -0.489  11.523  19.870  0.00  0.00    +0.000 A 
ATOM      2  N   UNL     1      -0.298  12.188  20.993  0.00  0.00    +0.000 NA
ATOM      3  N   UNL     1      -1.440  12.881  21.263  0.00  0.00    +0.000 NA
ATOM      4  C   UNL     1      -2.388  12.461  20.451  0.00  0.00    +0.000 A 
ATOM      5  C   UNL     1      -3.799  12.680  20.441  0.00  0.00    +0.000 A 
ATOM      6  C   UNL     1      -4.486  12.484  19.268  0.00  0.00    +0.000 A 
ATOM      7  C   UNL     1      -3.779  11.740  18.155  0.00  0.00    +0.000 A 
ATOM      8  C   UNL     1      -4.359  11.423  16.922  0.00  0.00    +0.000 A 
ATOM      9  C   UNL     1      -3.672  10.657  15.972  0.00  0.00    +0.000 A 
ATOM     10  C   UNL     1      -2.402  10.216  16.274  0.00  0.00    +0.000 A 
ATOM     11  N   UNL     1      -1.789  10.502  17.436  0.00  0.00    +0.000 NA
ATOM     12  C   UNL     1      -2.463  11.274  18.321  0.00  0.00    +0.000 A 
ATOM     13  N   UNL     1      -1.795  11.705  19.467  0.00  0.00    +0.000 N 
ENDROOT
BRANCH   5  14
ATOM     14  C   UNL     1      -4.501  13.191  21.716  0.00  0.00    +0.000 C 
ATOM     15  O   UNL     1      -4.950  12.340  22.495  0.00  0.00    +0.000 OA
ATOM     16  N   UNL     1      -4.565  14.577  22.041  0.00  0.00    +0.000 N 
BRANCH  16  17
ATOM     17  C   UNL     1      -5.328  14.979  23.236  0.00  0.00    +0.000 C 
ATOM     18  C   UNL     1      -6.843  15.019  23.039  0.00  0.00    +0.000 C 
ENDBRANCH  16  17
BRANCH  16  19
ATOM     19  C   UNL     1      -4.089  15.678  21.181  0.00  0.00    +0.000 C 
ATOM     20  C   UNL     1      -5.048  16.344  20.201  0.00  0.00    +0.000 C 
ENDBRANCH  16  19
ENDBRANCH   5  14
BRANCH   1  21
ATOM     21  C   UNL     1       0.571  10.813  19.219  0.00  0.00    +0.000 C 
ATOM     22  O   UNL     1       1.490  11.311  18.570  0.00  0.00    +0.000 OA
BRANCH  21  23
ATOM     23  O   UNL     1       0.431   9.472  19.419  0.00  0.00    +0.000 OA
BRANCH  23  25
ATOM     24  C   UNL     1       0.080   8.473  21.569  0.00  0.00    +0.000 C 
ATOM     25  C   UNL     1       1.121   8.942  20.569  0.00  0.00    +0.000 C 
ENDBRANCH  23  25
ENDBRANCH  21  23
ENDBRANCH   1  21
BRANCH   6  26
ATOM     26  N   UNL     1      -5.779  12.973  18.961  0.00  0.00    +0.000 N 
ATOM     27  H   UNL     1      -5.966  13.755  19.606  0.00  0.00    +0.000 HD
BRANCH  26  28
ATOM     28  C   UNL     1      -6.979  12.120  18.971  0.00  0.00    +0.000 C 
BRANCH  28  29
ATOM     29  C   UNL     1      -6.890  10.925  19.956  0.00  0.00    +0.000 C 
ATOM     30  C   UNL     1      -7.909  10.992  21.095  0.00  0.00    +0.000 C 
ATOM     31  C   UNL     1      -6.944   9.554  19.277  0.00  0.00    +0.000 C 
ENDBRANCH  28  29
ENDBRANCH  26  28
ENDBRANCH   6  26
TORSDOF 9
ENDMDL
MODEL 4
REMARK VINA RESULT:      -5.7      1.847      4.591
REMARK  Name = 
REMARK  14 active torsions:
REMARK  status: ('A' for Active; 'I' for Inactive)
REMARK    1  A    between atoms: C_1  and  C_2
REMARK    2  A    between atoms: C_2  and  O_3
REMARK    3  A    between atoms: O_3  and  C_4
REMARK    4  A    between atoms: C_4  and  C_6
REMARK    5  A    between atoms: C_10  and  C_11
REMARK    6  A    between atoms: N_13  and  C_14
REMARK    7  A    between atoms: N_13  and  C_16
REMARK    8  A    between atoms: C_14  and  C_15
REMARK    9  A    between atoms: C_16  and  C_17
REMARK   10  A    between atoms: C_18  and  N_19
REMARK   11  A    between atoms: N_19  and  C_20
REMARK   12  A    between atoms: C_20  and  C_21
REMARK   13  A    between atoms: C_21  and  C_22
REMARK   14  A    between atoms: C_21  and  C_23
REMARK                            x       y       z     vdW  Elec       q    Type
REMARK                         _______ _______ _______ _____ _____    ______ ____
ROOT
ATOM      1  C   UNL     1      -4.179  12.696  20.433  0.00  0.00    +0.000 A 
ATOM      2  N   UNL     1      -3.660  12.975  21.613  0.00  0.00    +0.000 NA
ATOM      3  N   UNL     1      -2.353  12.588  21.592  0.00  0.00    +0.000 NA
ATOM      4  C   UNL     1      -2.020  12.300  20.350  0.00  0.00    +0.000 A 
ATOM      5  C   UNL     1      -0.754  12.060  19.736  0.00  0.00    +0.000 A 
ATOM      6  C   UNL     1      -0.721  11.377  18.544  0.00  0.00    +0.000 A 
ATOM      7  C   UNL     1      -2.026  11.209  17.794  0.00  0.00    +0.000 A 
ATOM      8  C   UNL     1      -2.147  10.580  16.551  0.00  0.00    +0.000 A 
ATOM      9  C   UNL     1      -3.374  10.538  15.875  0.00  0.00    +0.000 A 
ATOM     10  C   UNL     1      -4.470  11.132  16.462  0.00  0.00    +0.000 A 
ATOM     11  N   UNL     1      -4.416  11.738  17.661  0.00  0.00    +0.000 NA
ATOM     12  C   UNL     1      -3.225  11.732  18.307  0.00  0.00    +0.000 A 
ATOM     13  N   UNL     1      -3.178  12.223  19.612  0.00  0.00    +0.000 N 
ENDROOT
BRANCH   5  14
ATOM     14  C   UNL     1       0.538  12.509  20.449  0.00  0.00    +0.000 C 
ATOM     15  O   UNL     1       0.956  11.793  21.369  0.00  0.00    +0.000 OA
ATOM     16  N   UNL     1       1.280  13.648  20.023  0.00  0.00    +0.000 N 
BRANCH  16  17
ATOM     17  C   UNL     1       2.457  14.050  20.815  0.00  0.00    +0.000 C 
ATOM     18  C   UNL     1       2.169  15.091  21.897  0.00  0.00    +0.000 C 
ENDBRANCH  16  17
BRANCH  16  19
ATOM     19  C   UNL     1       0.869  14.585  18.960  0.00  0.00    +0.000 C 
ATOM     20  C   UNL     1      -0.257  15.579  19.218  0.00  0.00    +0.000 C 
ENDBRANCH  16  19
ENDBRANCH   5  14
BRANCH   1  21
ATOM     21  C   UNL     1      -5.580  12.834  20.169  0.00  0.00    +0.000 C 
ATOM     22  O   UNL     1      -6.110  13.718  19.497  0.00  0.00    +0.000 OA
BRANCH  21  23
ATOM     23  O   UNL     1      -6.274  11.830  20.774  0.00  0.00    +0.000 OA
BRANCH  23  25
ATOM     24  C   UNL     1      -6.818  10.060  19.252  0.00  0.00    +0.000 C 
ATOM     25  C   UNL     1      -7.353  11.268  20.000  0.00  0.00    +0.000 C 
ENDBRANCH  23  25
ENDBRANCH  21  23
ENDBRANCH   1  21
BRANCH   6  26
ATOM     26  N   UNL     1       0.408  10.743  17.972  0.00  0.00    +0.000 N 
ATOM     27  H   UNL     1       0.457  11.046  16.988  0.00  0.00    +0.000 HD
BRANCH  26  28
ATOM     28  C   UNL     1       0.589   9.281  17.974  0.00  0.00    +0.000 C 
BRANCH  28  29
ATOM     29  C   UNL     1       1.808   8.802  18.804  0.00  0.00    +0.000 C 
ATOM     30  C   UNL     1       1.470   8.480  20.260  0.00  0.00    +0.000 C 
ATOM     31  C   UNL     1       2.576   7.641  18.168  0.00  0.00    +0.000 C 
ENDBRANCH  28  29
ENDBRANCH  26  28
ENDBRANCH   6  26
TORSDOF 9
ENDMDL
MODEL 5
REMARK VINA RESULT:      -5.7      2.473      6.782
REMARK  Name = 
REMARK  14 active torsions:
REMARK  status: ('A' for Active; 'I' for Inactive)
REMARK    1  A    between atoms: C_1  and  C_2
REMARK    2  A    between atoms: C_2  and  O_3
REMARK    3  A    between atoms: O_3  and  C_4
REMARK    4  A    between atoms: C_4  and  C_6
REMARK    5  A    between atoms: C_10  and  C_11
REMARK    6  A    between atoms: N_13  and  C_14
REMARK    7  A    between atoms: N_13  and  C_16
REMARK    8  A    between atoms: C_14  and  C_15
REMARK    9  A    between atoms: C_16  and  C_17
REMARK   10  A    between atoms: C_18  and  N_19
REMARK   11  A    between atoms: N_19  and  C_20
REMARK   12  A    between atoms: C_20  and  C_21
REMARK   13  A    between atoms: C_21  and  C_22
REMARK   14  A    between atoms: C_21  and  C_23
REMARK                            x       y       z     vdW  Elec       q    Type
REMARK                         _______ _______ _______ _____ _____    ______ ____
ROOT
ATOM      1  C   UNL     1       0.638  10.657  19.845  0.00  0.00    +0.000 A 
ATOM      2  N   UNL     1       1.111  11.191  20.956  0.00  0.00    +0.000 NA
ATOM      3  N   UNL     1       0.155  12.028  21.451  0.00  0.00    +0.000 NA
ATOM      4  C   UNL     1      -0.964  11.826  20.787  0.00  0.00    +0.000 A 
ATOM      5  C   UNL     1      -2.303  12.260  21.026  0.00  0.00    +0.000 A 
ATOM      6  C   UNL     1      -3.189  12.268  19.976  0.00  0.00    +0.000 A 
ATOM      7  C   UNL     1      -2.797  11.517  18.721  0.00  0.00    +0.000 A 
ATOM      8  C   UNL     1      -3.608  11.394  17.588  0.00  0.00    +0.000 A 
ATOM      9  C   UNL     1      -3.215  10.611  16.495  0.00  0.00    +0.000 A 
ATOM     10  C   UNL     1      -2.003   9.956  16.555  0.00  0.00    +0.000 A 
ATOM     11  N   UNL     1      -1.177  10.049  17.611  0.00  0.00    +0.000 NA
ATOM     12  C   UNL     1      -1.567  10.842  18.638  0.00  0.00    +0.000 A 
ATOM     13  N   UNL     1      -0.666  11.070  19.678  0.00  0.00    +0.000 N 
ENDROOT
BRANCH   5  14
ATOM     14  C   UNL     1      -2.703  12.768  22.427  0.00  0.00    +0.000 C 
ATOM     15  O   UNL     1      -3.243  11.957  23.191  0.00  0.00    +0.000 OA
ATOM     16  N   UNL     1      -2.394  14.087  22.870  0.00  0.00    +0.000 N 
BRANCH  16  17
ATOM     17  C   UNL     1      -2.888  14.512  24.192  0.00  0.00    +0.000 C 
ATOM     18  C   UNL     1      -4.260  15.187  24.171  0.00  0.00    +0.000 C 
ENDBRANCH  16  17
BRANCH  16  19
ATOM     19  C   UNL     1      -1.779  15.142  22.043  0.00  0.00    +0.000 C 
ATOM     20  C   UNL     1      -2.627  15.908  21.035  0.00  0.00    +0.000 C 
ENDBRANCH  16  19
ENDBRANCH   5  14
BRANCH   1  21
ATOM     21  C   UNL     1       1.452   9.846  18.989  0.00  0.00    +0.000 C 
ATOM     22  O   UNL     1       2.131  10.243  18.043  0.00  0.00    +0.000 OA
BRANCH  21  23
ATOM     23  O   UNL     1       1.377   8.539  19.367  0.00  0.00    +0.000 OA
BRANCH  23  25
ATOM     24  C   UNL     1       2.648   6.515  19.544  0.00  0.00    +0.000 C 
ATOM     25  C   UNL     1       2.201   7.628  18.613  0.00  0.00    +0.000 C 
ENDBRANCH  23  25
ENDBRANCH  21  23
ENDBRANCH   1  21
BRANCH   6  26
ATOM     26  N   UNL     1      -4.414  12.974  19.918  0.00  0.00    +0.000 N 
ATOM     27  H   UNL     1      -4.228  13.929  20.256  0.00  0.00    +0.000 HD
BRANCH  26  28
ATOM     28  C   UNL     1      -5.635  12.513  20.601  0.00  0.00    +0.000 C 
BRANCH  28  29
ATOM     29  C   UNL     1      -6.441  11.458  19.801  0.00  0.00    +0.000 C 
ATOM     30  C   UNL     1      -7.498  10.732  20.635  0.00  0.00    +0.000 C 
ATOM     31  C   UNL     1      -7.064  11.999  18.511  0.00  0.00    +0.000 C 
ENDBRANCH  28  29
ENDBRANCH  26  28
ENDBRANCH   6  26
TORSDOF 9
ENDMDL
MODEL 6
REMARK VINA RESULT:      -5.7      2.354      4.989
REMARK  Name = 
REMARK  14 active torsions:
REMARK  status: ('A' for Active; 'I' for Inactive)
REMARK    1  A    between atoms: C_1  and  C_2
REMARK    2  A    between atoms: C_2  and  O_3
REMARK    3  A    between atoms: O_3  and  C_4
REMARK    4  A    between atoms: C_4  and  C_6
REMARK    5  A    between atoms: C_10  and  C_11
REMARK    6  A    between atoms: N_13  and  C_14
REMARK    7  A    between atoms: N_13  and  C_16
REMARK    8  A    between atoms: C_14  and  C_15
REMARK    9  A    between atoms: C_16  and  C_17
REMARK   10  A    between atoms: C_18  and  N_19
REMARK   11  A    between atoms: N_19  and  C_20
REMARK   12  A    between atoms: C_20  and  C_21
REMARK   13  A    between atoms: C_21  and  C_22
REMARK   14  A    between atoms: C_21  and  C_23
REMARK                            x       y       z     vdW  Elec       q    Type
REMARK                         _______ _______ _______ _____ _____    ______ ____
ROOT
ATOM      1  C   UNL     1      -5.501  12.654  19.019  0.00  0.00    +0.000 A 
ATOM      2  N   UNL     1      -5.864  13.345  20.082  0.00  0.00    +0.000 NA
ATOM      3  N   UNL     1      -4.807  13.367  20.942  0.00  0.00    +0.000 NA
ATOM      4  C   UNL     1      -3.746  12.904  20.315  0.00  0.00    +0.000 A 
ATOM      5  C   UNL     1      -2.360  12.909  20.659  0.00  0.00    +0.000 A 
ATOM      6  C   UNL     1      -1.528  12.004  20.046  0.00  0.00    +0.000 A 
ATOM      7  C   UNL     1      -2.051  11.286  18.820  0.00  0.00    +0.000 A 
ATOM      8  C   UNL     1      -1.311  10.374  18.061  0.00  0.00    +0.000 A 
ATOM      9  C   UNL     1      -1.831   9.813  16.888  0.00  0.00    +0.000 A 
ATOM     10  C   UNL     1      -3.099  10.179  16.489  0.00  0.00    +0.000 A 
ATOM     11  N   UNL     1      -3.862  11.040  17.185  0.00  0.00    +0.000 NA
ATOM     12  C   UNL     1      -3.346  11.538  18.334  0.00  0.00    +0.000 A 
ATOM     13  N   UNL     1      -4.171  12.316  19.147  0.00  0.00    +0.000 N 
ENDROOT
BRANCH   5  14
ATOM     14  C   UNL     1      -1.846  13.874  21.747  0.00  0.00    +0.000 C 
ATOM     15  O   UNL     1      -1.292  14.913  21.367  0.00  0.00    +0.000 OA
ATOM     16  N   UNL     1      -2.068  13.637  23.135  0.00  0.00    +0.000 N 
BRANCH  16  17
ATOM     17  C   UNL     1      -1.470  14.570  24.107  0.00  0.00    +0.000 C 
ATOM     18  C   UNL     1      -2.404  15.685  24.575  0.00  0.00    +0.000 C 
ENDBRANCH  16  17
BRANCH  16  19
ATOM     19  C   UNL     1      -2.692  12.427  23.704  0.00  0.00    +0.000 C 
ATOM     20  C   UNL     1      -4.055  12.522  24.379  0.00  0.00    +0.000 C 
ENDBRANCH  16  19
ENDBRANCH   5  14
BRANCH   1  21
ATOM     21  C   UNL     1      -6.431  12.307  17.986  0.00  0.00    +0.000 C 
ATOM     22  O   UNL     1      -7.218  11.361  18.004  0.00  0.00    +0.000 OA
BRANCH  21  23
ATOM     23  O   UNL     1      -6.332  13.185  16.949  0.00  0.00    +0.000 OA
BRANCH  23  25
ATOM     24  C   UNL     1      -6.912  15.504  17.124  0.00  0.00    +0.000 C 
ATOM     25  C   UNL     1      -7.429  14.111  16.814  0.00  0.00    +0.000 C 
ENDBRANCH  23  25
ENDBRANCH  21  23
ENDBRANCH   1  21
BRANCH   6  26
ATOM     26  N   UNL     1      -0.241  11.614  20.489  0.00  0.00    +0.000 N 
ATOM     27  H   UNL     1       0.186  11.065  19.728  0.00  0.00    +0.000 HD
BRANCH  26  28
ATOM     28  C   UNL     1      -0.021  10.856  21.733  0.00  0.00    +0.000 C 
BRANCH  28  29
ATOM     29  C   UNL     1       0.498   9.414  21.504  0.00  0.00    +0.000 C 
ATOM     30  C   UNL     1      -0.561   8.336  21.740  0.00  0.00    +0.000 C 
ATOM     31  C   UNL     1       1.174   9.203  20.146  0.00  0.00    +0.000 C 
ENDBRANCH  28  29
ENDBRANCH  26  28
ENDBRANCH   6  26
TORSDOF 9
ENDMDL
MODEL 7
REMARK VINA RESULT:      -5.6      1.214      1.552
REMARK  Name = 
REMARK  14 active torsions:
REMARK  status: ('A' for Active; 'I' for Inactive)
REMARK    1  A    between atoms: C_1  and  C_2
REMARK    2  A    between atoms: C_2  and  O_3
REMARK    3  A    between atoms: O_3  and  C_4
REMARK    4  A    between atoms: C_4  and  C_6
REMARK    5  A    between atoms: C_10  and  C_11
REMARK    6  A    between atoms: N_13  and  C_14
REMARK    7  A    between atoms: N_13  and  C_16
REMARK    8  A    between atoms: C_14  and  C_15
REMARK    9  A    between atoms: C_16  and  C_17
REMARK   10  A    between atoms: C_18  and  N_19
REMARK   11  A    between atoms: N_19  and  C_20
REMARK   12  A    between atoms: C_20  and  C_21
REMARK   13  A    between atoms: C_21  and  C_22
REMARK   14  A    between atoms: C_21  and  C_23
REMARK                            x       y       z     vdW  Elec       q    Type
REMARK                         _______ _______ _______ _____ _____    ______ ____
ROOT
ATOM      1  C   UNL     1      -3.509  10.689  17.983  0.00  0.00    +0.000 A 
ATOM      2  N   UNL     1      -3.083   9.780  17.126  0.00  0.00    +0.000 NA
ATOM      3  N   UNL     1      -1.720   9.781  17.166  0.00  0.00    +0.000 NA
ATOM      4  C   UNL     1      -1.331  10.505  18.195  0.00  0.00    +0.000 A 
ATOM      5  C   UNL     1      -0.056  10.661  18.819  0.00  0.00    +0.000 A 
ATOM      6  C   UNL     1       0.165  11.776  19.591  0.00  0.00    +0.000 A 
ATOM      7  C   UNL     1      -1.039  12.598  20.000  0.00  0.00    +0.000 A 
ATOM      8  C   UNL     1      -0.983  13.730  20.819  0.00  0.00    +0.000 A 
ATOM      9  C   UNL     1      -2.149  14.391  21.226  0.00  0.00    +0.000 A 
ATOM     10  C   UNL     1      -3.366  13.902  20.803  0.00  0.00    +0.000 A 
ATOM     11  N   UNL     1      -3.480  12.827  20.004  0.00  0.00    +0.000 NA
ATOM     12  C   UNL     1      -2.335  12.230  19.597  0.00  0.00    +0.000 A 
ATOM     13  N   UNL     1      -2.421  11.206  18.653  0.00  0.00    +0.000 N 
ENDROOT
BRANCH   5  14
ATOM     14  C   UNL     1       1.053   9.620  18.563  0.00  0.00    +0.000 C 
ATOM     15  O   UNL     1       1.671   9.702  17.494  0.00  0.00    +0.000 OA
ATOM     16  N   UNL     1       1.423   8.652  19.542  0.00  0.00    +0.000 N 
BRANCH  16  17
ATOM     17  C   UNL     1       2.436   7.645  19.179  0.00  0.00    +0.000 C 
ATOM     18  C   UNL     1       2.256   6.289  19.861  0.00  0.00    +0.000 C 
ENDBRANCH  16  17
BRANCH  16  19
ATOM     19  C   UNL     1       0.745   8.446  20.836  0.00  0.00    +0.000 C 
ATOM     20  C   UNL     1       1.271   9.138  22.088  0.00  0.00    +0.000 C 
ENDBRANCH  16  19
ENDBRANCH   5  14
BRANCH   1  21
ATOM     21  C   UNL     1      -4.891  11.054  18.077  0.00  0.00    +0.000 C 
ATOM     22  O   UNL     1      -5.742  10.506  18.777  0.00  0.00    +0.000 OA
BRANCH  21  23
ATOM     23  O   UNL     1      -5.152  12.119  17.268  0.00  0.00    +0.000 OA
BRANCH  23  25
ATOM     24  C   UNL     1      -6.622  13.998  17.035  0.00  0.00    +0.000 C 
ATOM     25  C   UNL     1      -6.542  12.487  17.158  0.00  0.00    +0.000 C 
ENDBRANCH  23  25
ENDBRANCH  21  23
ENDBRANCH   1  21
BRANCH   6  26
ATOM     26  N   UNL     1       1.425  12.284  19.989  0.00  0.00    +0.000 N 
ATOM     27  H   UNL     1       1.257  12.915  20.787  0.00  0.00    +0.000 HD
BRANCH  26  28
ATOM     28  C   UNL     1       2.325  12.998  19.068  0.00  0.00    +0.000 C 
BRANCH  28  29
ATOM     29  C   UNL     1       2.277  14.541  19.214  0.00  0.00    +0.000 C 
ATOM     30  C   UNL     1       2.820  15.047  20.551  0.00  0.00    +0.000 C 
ATOM     31  C   UNL     1       2.933  15.297  18.056  0.00  0.00    +0.000 C 
ENDBRANCH  28  29
ENDBRANCH  26  28
ENDBRANCH   6  26
TORSDOF 9
ENDMDL
MODEL 8
REMARK VINA RESULT:      -5.6      2.915      4.871
REMARK  Name = 
REMARK  14 active torsions:
REMARK  status: ('A' for Active; 'I' for Inactive)
REMARK    1  A    between atoms: C_1  and  C_2
REMARK    2  A    between atoms: C_2  and  O_3
REMARK    3  A    between atoms: O_3  and  C_4
REMARK    4  A    between atoms: C_4  and  C_6
REMARK    5  A    between atoms: C_10  and  C_11
REMARK    6  A    between atoms: N_13  and  C_14
REMARK    7  A    between atoms: N_13  and  C_16
REMARK    8  A    between atoms: C_14  and  C_15
REMARK    9  A    between atoms: C_16  and  C_17
REMARK   10  A    between atoms: C_18  and  N_19
REMARK   11  A    between atoms: N_19  and  C_20
REMARK   12  A    between atoms: C_20  and  C_21
REMARK   13  A    between atoms: C_21  and  C_22
REMARK   14  A    between atoms: C_21  and  C_23
REMARK                            x       y       z     vdW  Elec       q    Type
REMARK                         _______ _______ _______ _____ _____    ______ ____
ROOT
ATOM      1  C   UNL     1      -6.010  12.246  20.773  0.00  0.00    +0.000 A 
ATOM      2  N   UNL     1      -6.093  12.424  22.077  0.00  0.00    +0.000 NA
ATOM      3  N   UNL     1      -4.824  12.440  22.574  0.00  0.00    +0.000 NA
ATOM      4  C   UNL     1      -3.979  12.509  21.566  0.00  0.00    +0.000 A 
ATOM      5  C   UNL     1      -2.576  12.767  21.516  0.00  0.00    +0.000 A 
ATOM      6  C   UNL     1      -1.873  12.370  20.404  0.00  0.00    +0.000 A 
ATOM      7  C   UNL     1      -2.666  11.986  19.173  0.00  0.00    +0.000 A 
ATOM      8  C   UNL     1      -2.097  11.606  17.953  0.00  0.00    +0.000 A 
ATOM      9  C   UNL     1      -2.892  11.348  16.829  0.00  0.00    +0.000 A 
ATOM     10  C   UNL     1      -4.260  11.476  16.947  0.00  0.00    +0.000 A 
ATOM     11  N   UNL     1      -4.863  11.823  18.096  0.00  0.00    +0.000 NA
ATOM     12  C   UNL     1      -4.071  12.032  19.175  0.00  0.00    +0.000 A 
ATOM     13  N   UNL     1      -4.680  12.250  20.411  0.00  0.00    +0.000 N 
ENDROOT
BRANCH   5  14
ATOM     14  C   UNL     1      -1.875  13.418  22.727  0.00  0.00    +0.000 C 
ATOM     15  O   UNL     1      -1.014  12.748  23.311  0.00  0.00    +0.000 OA
ATOM     16  N   UNL     1      -2.135  14.764  23.118  0.00  0.00    +0.000 N 
BRANCH  16  17
ATOM     17  C   UNL     1      -1.482  15.275  24.336  0.00  0.00    +0.000 C 
ATOM     18  C   UNL     1      -2.352  15.224  25.592  0.00  0.00    +0.000 C 
ENDBRANCH  16  17
BRANCH  16  19
ATOM     19  C   UNL     1      -3.153  15.646  22.515  0.00  0.00    +0.000 C 
ATOM     20  C   UNL     1      -2.780  16.543  21.341  0.00  0.00    +0.000 C 
ENDBRANCH  16  19
ENDBRANCH   5  14
BRANCH   1  21
ATOM     21  C   UNL     1      -7.171  12.026  19.962  0.00  0.00    +0.000 C 
ATOM     22  O   UNL     1      -7.604  12.780  19.092  0.00  0.00    +0.000 OA
BRANCH  21  23
ATOM     23  O   UNL     1      -7.752  10.836  20.286  0.00  0.00    +0.000 OA
BRANCH  23  25
ATOM     24  C   UNL     1      -7.550   8.460  20.526  0.00  0.00    +0.000 C 
ATOM     25  C   UNL     1      -7.137   9.669  19.705  0.00  0.00    +0.000 C 
ENDBRANCH  23  25
ENDBRANCH  21  23
ENDBRANCH   1  21
BRANCH   6  26
ATOM     26  N   UNL     1      -0.470  12.212  20.311  0.00  0.00    +0.000 N 
ATOM     27  H   UNL     1      -0.120  12.059  21.268  0.00  0.00    +0.000 HD
BRANCH  26  28
ATOM     28  C   UNL     1       0.409  13.221  19.695  0.00  0.00    +0.000 C 
BRANCH  28  29
ATOM     29  C   UNL     1      -0.041  14.682  19.950  0.00  0.00    +0.000 C 
ATOM     30  C   UNL     1       0.810  15.412  20.990  0.00  0.00    +0.000 C 
ATOM     31  C   UNL     1      -0.162  15.527  18.678  0.00  0.00    +0.000 C 
ENDBRANCH  28  29
ENDBRANCH  26  28
ENDBRANCH   6  26
TORSDOF 9
ENDMDL
MODEL 9
REMARK VINA RESULT:      -5.6      2.321      6.806
REMARK  Name = 
REMARK  14 active torsions:
REMARK  status: ('A' for Active; 'I' for Inactive)
REMARK    1  A    between atoms: C_1  and  C_2
REMARK    2  A    between atoms: C_2  and  O_3
REMARK    3  A    between atoms: O_3  and  C_4
REMARK    4  A    between atoms: C_4  and  C_6
REMARK    5  A    between atoms: C_10  and  C_11
REMARK    6  A    between atoms: N_13  and  C_14
REMARK    7  A    between atoms: N_13  and  C_16
REMARK    8  A    between atoms: C_14  and  C_15
REMARK    9  A    between atoms: C_16  and  C_17
REMARK   10  A    between atoms: C_18  and  N_19
REMARK   11  A    between atoms: N_19  and  C_20
REMARK   12  A    between atoms: C_20  and  C_21
REMARK   13  A    between atoms: C_21  and  C_22
REMARK   14  A    between atoms: C_21  and  C_23
REMARK                            x       y       z     vdW  Elec       q    Type
REMARK                         _______ _______ _______ _____ _____    ______ ____
ROOT
ATOM      1  C   UNL     1      -0.257  12.104  20.531  0.00  0.00    +0.000 A 
ATOM      2  N   UNL     1      -0.006  13.084  21.378  0.00  0.00    +0.000 NA
ATOM      3  N   UNL     1      -1.094  13.906  21.393  0.00  0.00    +0.000 NA
ATOM      4  C   UNL     1      -2.078  13.311  20.751  0.00  0.00    +0.000 A 
ATOM      5  C   UNL     1      -3.470  13.614  20.653  0.00  0.00    +0.000 A 
ATOM      6  C   UNL     1      -4.183  13.093  19.600  0.00  0.00    +0.000 A 
ATOM      7  C   UNL     1      -3.542  11.979  18.800  0.00  0.00    +0.000 A 
ATOM      8  C   UNL     1      -4.158  11.318  17.732  0.00  0.00    +0.000 A 
ATOM      9  C   UNL     1      -3.537  10.237  17.092  0.00  0.00    +0.000 A 
ATOM     10  C   UNL     1      -2.298   9.831  17.538  0.00  0.00    +0.000 A 
ATOM     11  N   UNL     1      -1.653  10.437  18.549  0.00  0.00    +0.000 NA
ATOM     12  C   UNL     1      -2.261  11.502  19.125  0.00  0.00    +0.000 A 
ATOM     13  N   UNL     1      -1.551  12.236  20.075  0.00  0.00    +0.000 N 
ENDROOT
BRANCH   5  14
ATOM     14  C   UNL     1      -4.120  14.561  21.682  0.00  0.00    +0.000 C 
ATOM     15  O   UNL     1      -4.512  15.661  21.272  0.00  0.00    +0.000 OA
ATOM     16  N   UNL     1      -4.346  14.170  23.034  0.00  0.00    +0.000 N 
BRANCH  16  17
ATOM     17  C   UNL     1      -4.897  15.169  23.967  0.00  0.00    +0.000 C 
ATOM     18  C   UNL     1      -3.846  15.935  24.770  0.00  0.00    +0.000 C 
ENDBRANCH  16  17
BRANCH  16  19
ATOM     19  C   UNL     1      -3.902  12.899  23.639  0.00  0.00    +0.000 C 
ATOM     20  C   UNL     1      -4.658  12.322  24.830  0.00  0.00    +0.000 C 
ENDBRANCH  16  19
ENDBRANCH   5  14
BRANCH   1  21
ATOM     21  C   UNL     1       0.744  11.147  20.162  0.00  0.00    +0.000 C 
ATOM     22  O   UNL     1       1.269  11.034  19.055  0.00  0.00    +0.000 OA
BRANCH  21  23
ATOM     23  O   UNL     1       1.052  10.354  21.226  0.00  0.00    +0.000 OA
BRANCH  23  25
ATOM     24  C   UNL     1      -0.434   9.448  22.875  0.00  0.00    +0.000 C 
ATOM     25  C   UNL     1       0.134   9.271  21.478  0.00  0.00    +0.000 C 
ENDBRANCH  23  25
ENDBRANCH  21  23
ENDBRANCH   1  21
BRANCH   6  26
ATOM     26  N   UNL     1      -5.441  13.545  19.135  0.00  0.00    +0.000 N 
ATOM     27  H   UNL     1      -5.442  14.572  19.217  0.00  0.00    +0.000 HD
BRANCH  26  28
ATOM     28  C   UNL     1      -6.718  13.074  19.699  0.00  0.00    +0.000 C 
BRANCH  28  29
ATOM     29  C   UNL     1      -6.567  11.889  20.687  0.00  0.00    +0.000 C 
ATOM     30  C   UNL     1      -7.213  12.141  22.050  0.00  0.00    +0.000 C 
ATOM     31  C   UNL     1      -7.030  10.544  20.121  0.00  0.00    +0.000 C 
ENDBRANCH  28  29
ENDBRANCH  26  28
ENDBRANCH   6  26
TORSDOF 9
ENDMDL
