MODEL 1
REMARK VINA RESULT:      -7.9      0.000      0.000
REMARK  Name = 
REMARK  7 active torsions:
REMARK  status: ('A' for Active; 'I' for Inactive)
REMARK    1  A    between atoms: C_3  and  C_4
REMARK    2  A    between atoms: C_4  and  N_5
REMARK    3  A    between atoms: C_11  and  C_12
REMARK    4  A    between atoms: N_16  and  C_17
REMARK    5  A    between atoms: C_21  and  N_22
REMARK    6  A    between atoms: N_22  and  C_23
REMARK    7  A    between atoms: C_23  and  C_24
REMARK                            x       y       z     vdW  Elec       q    Type
REMARK                         _______ _______ _______ _____ _____    ______ ____
ROOT
ATOM      1  C   UNL     1       4.806   3.627  19.246  0.00  0.00    +0.000 A 
ATOM      2  N   UNL     1       5.156   2.472  19.797  0.00  0.00    +0.000 NA
ATOM      3  N   UNL     1       4.015   1.781  20.078  0.00  0.00    +0.000 NA
ATOM      4  N   UNL     1       2.955   2.489  19.748  0.00  0.00    +0.000 NA
ATOM      5  N   UNL     1       3.421   3.661  19.269  0.00  0.00    +0.000 N 
ENDROOT
BRANCH   5   6
ATOM      6  C   UNL     1       2.489   4.691  18.873  0.00  0.00    +0.000 C 
ATOM      7  C   UNL     1       1.142   4.524  19.558  0.00  0.00    +0.000 C 
ATOM      8  O   UNL     1       1.204   5.240  20.797  0.00  0.00    +0.000 OA
ATOM      9  C   UNL     1       2.154   6.316  20.638  0.00  0.00    +0.000 C 
ATOM     10  C   UNL     1       1.427   7.659  20.451  0.00  0.00    +0.000 C 
ATOM     11  C   UNL     1       2.140   8.239  19.232  0.00  0.00    +0.000 C 
ATOM     12  O   UNL     1       2.433   7.095  18.407  0.00  0.00    +0.000 OA
ATOM     13  C   UNL     1       2.895   6.084  19.323  0.00  0.00    +0.000 C 
BRANCH  10  14
ATOM     14  N   UNL     1       1.468   8.478  21.668  0.00  0.00    +0.000 NA
ATOM     15  H   UNL     1       2.371   8.405  22.129  0.00  0.00    +0.000 HD
BRANCH  14  16
ATOM     16  C   UNL     1       1.123   9.882  21.440  0.00  0.00    +0.000 C 
BRANCH  16  17
ATOM     17  C   UNL     1      -0.410  10.043  21.302  0.00  0.00    +0.000 C 
ATOM     18  C   UNL     1      -0.995  10.866  22.462  0.00  0.00    +0.000 C 
ATOM     19  C   UNL     1      -0.635  12.347  22.380  0.00  0.00    +0.000 C 
ATOM     20  C   UNL     1      -1.019  12.958  21.035  0.00  0.00    +0.000 C 
ATOM     21  C   UNL     1      -0.518  12.146  19.845  0.00  0.00    +0.000 C 
ATOM     22  C   UNL     1      -0.850  10.661  19.963  0.00  0.00    +0.000 C 
ENDBRANCH  16  17
ENDBRANCH  14  16
ENDBRANCH  10  14
ENDBRANCH   5   6
BRANCH   1  27
ATOM     23  C   UNL     1       7.297   6.412  18.473  0.00  0.00    +0.000 A 
ATOM     24  C   UNL     1       7.197   6.439  17.084  0.00  0.00    +0.000 A 
ATOM     25  C   UNL     1       6.442   5.471  16.414  0.00  0.00    +0.000 A 
ATOM     26  C   UNL     1       5.788   4.496  17.179  0.00  0.00    +0.000 A 
ATOM     27  C   UNL     1       5.770   4.524  18.586  0.00  0.00    +0.000 A 
ATOM     28  C   UNL     1       6.590   5.462  19.221  0.00  0.00    +0.000 A 
BRANCH  25  29
ATOM     29  C   UNL     1       6.287   5.494  14.908  0.00  0.00    +0.000 C 
BRANCH  29  30
ATOM     30  N   UNL     1       7.043   4.502  14.134  0.00  0.00    +0.000 NA
ATOM     31  C   UNL     1       7.932   5.043  13.104  0.00  0.00    +0.000 C 
ATOM     32  C   UNL     1       7.179   4.886  11.797  0.00  0.00    +0.000 C 
ATOM     33  C   UNL     1       6.357   3.626  11.994  0.00  0.00    +0.000 C 
ATOM     34  C   UNL     1       6.251   3.442  13.506  0.00  0.00    +0.000 C 
ENDBRANCH  29  30
ENDBRANCH  25  29
ENDBRANCH   1  27
TORSDOF 7
ENDMDL
MODEL 2
REMARK VINA RESULT:      -7.7      0.629      1.067
REMARK  Name = 
REMARK  7 active torsions:
REMARK  status: ('A' for Active; 'I' for Inactive)
REMARK    1  A    between atoms: C_3  and  C_4
REMARK    2  A    between atoms: C_4  and  N_5
REMARK    3  A    between atoms: C_11  and  C_12
REMARK    4  A    between atoms: N_16  and  C_17
REMARK    5  A    between atoms: C_21  and  N_22
REMARK    6  A    between atoms: N_22  and  C_23
REMARK    7  A    between atoms: C_23  and  C_24
REMARK                            x       y       z     vdW  Elec       q    Type
REMARK                         _______ _______ _______ _____ _____    ______ ____
ROOT
ATOM      1  C   UNL     1       4.762   3.759  19.442  0.00  0.00    +0.000 A 
ATOM      2  N   UNL     1       5.112   2.695  20.151  0.00  0.00    +0.000 NA
ATOM      3  N   UNL     1       3.973   2.050  20.528  0.00  0.00    +0.000 NA
ATOM      4  N   UNL     1       2.912   2.702  20.099  0.00  0.00    +0.000 NA
ATOM      5  N   UNL     1       3.377   3.795  19.459  0.00  0.00    +0.000 N 
ENDROOT
BRANCH   5   6
ATOM      6  C   UNL     1       2.443   4.757  18.919  0.00  0.00    +0.000 C 
ATOM      7  C   UNL     1       1.089   4.673  19.605  0.00  0.00    +0.000 C 
ATOM      8  O   UNL     1       1.134   5.547  20.739  0.00  0.00    +0.000 OA
ATOM      9  C   UNL     1       2.079   6.598  20.449  0.00  0.00    +0.000 C 
ATOM     10  C   UNL     1       1.347   7.900  20.078  0.00  0.00    +0.000 C 
ATOM     11  C   UNL     1       2.072   8.319  18.800  0.00  0.00    +0.000 C 
ATOM     12  O   UNL     1       2.381   7.077  18.138  0.00  0.00    +0.000 OA
ATOM     13  C   UNL     1       2.837   6.200  19.185  0.00  0.00    +0.000 C 
BRANCH  10  14
ATOM     14  N   UNL     1       1.370   8.873  21.176  0.00  0.00    +0.000 NA
ATOM     15  H   UNL     1       2.116   9.552  21.049  0.00  0.00    +0.000 HD
BRANCH  14  16
ATOM     16  C   UNL     1       0.090   9.553  21.382  0.00  0.00    +0.000 C 
BRANCH  16  17
ATOM     17  C   UNL     1       0.308  11.079  21.525  0.00  0.00    +0.000 C 
ATOM     18  C   UNL     1       1.129  11.640  20.352  0.00  0.00    +0.000 C 
ATOM     19  C   UNL     1       0.344  11.677  19.043  0.00  0.00    +0.000 C 
ATOM     20  C   UNL     1      -0.978  12.425  19.186  0.00  0.00    +0.000 C 
ATOM     21  C   UNL     1      -1.807  11.951  20.376  0.00  0.00    +0.000 C 
ATOM     22  C   UNL     1      -0.997  11.881  21.668  0.00  0.00    +0.000 C 
ENDBRANCH  16  17
ENDBRANCH  14  16
ENDBRANCH  10  14
ENDBRANCH   5   6
BRANCH   1  27
ATOM     23  C   UNL     1       7.341   6.339  18.322  0.00  0.00    +0.000 A 
ATOM     24  C   UNL     1       7.147   6.283  16.943  0.00  0.00    +0.000 A 
ATOM     25  C   UNL     1       6.298   5.320  16.391  0.00  0.00    +0.000 A 
ATOM     26  C   UNL     1       5.646   4.436  17.261  0.00  0.00    +0.000 A 
ATOM     27  C   UNL     1       5.726   4.554  18.661  0.00  0.00    +0.000 A 
ATOM     28  C   UNL     1       6.636   5.482  19.177  0.00  0.00    +0.000 A 
BRANCH  25  29
ATOM     29  C   UNL     1       6.041   5.254  14.900  0.00  0.00    +0.000 C 
BRANCH  29  30
ATOM     30  N   UNL     1       6.885   4.352  14.106  0.00  0.00    +0.000 NA
ATOM     31  C   UNL     1       7.915   4.998  13.291  0.00  0.00    +0.000 C 
ATOM     32  C   UNL     1       7.349   5.042  11.885  0.00  0.00    +0.000 C 
ATOM     33  C   UNL     1       6.491   3.795  11.793  0.00  0.00    +0.000 C 
ATOM     34  C   UNL     1       6.173   3.412  13.237  0.00  0.00    +0.000 C 
ENDBRANCH  29  30
ENDBRANCH  25  29
ENDBRANCH   1  27
TORSDOF 7
ENDMDL
MODEL 3
REMARK VINA RESULT:      -7.6      3.367      6.205
REMARK  Name = 
REMARK  7 active torsions:
REMARK  status: ('A' for Active; 'I' for Inactive)
REMARK    1  A    between atoms: C_3  and  C_4
REMARK    2  A    between atoms: C_4  and  N_5
REMARK    3  A    between atoms: C_11  and  C_12
REMARK    4  A    between atoms: N_16  and  C_17
REMARK    5  A    between atoms: C_21  and  N_22
REMARK    6  A    between atoms: N_22  and  C_23
REMARK    7  A    between atoms: C_23  and  C_24
REMARK                            x       y       z     vdW  Elec       q    Type
REMARK                         _______ _______ _______ _____ _____    ______ ____
ROOT
ATOM      1  C   UNL     1       1.660   7.887  20.257  0.00  0.00    +0.000 A 
ATOM      2  N   UNL     1       1.277   7.290  21.377  0.00  0.00    +0.000 NA
ATOM      3  N   UNL     1       0.202   7.969  21.866  0.00  0.00    +0.000 NA
ATOM      4  N   UNL     1      -0.080   9.000  21.097  0.00  0.00    +0.000 NA
ATOM      5  N   UNL     1       0.843   8.996  20.113  0.00  0.00    +0.000 N 
ENDROOT
BRANCH   5   6
ATOM      6  C   UNL     1       0.839  10.053  19.127  0.00  0.00    +0.000 C 
ATOM      7  C   UNL     1       0.514   9.526  17.738  0.00  0.00    +0.000 C 
ATOM      8  O   UNL     1      -0.911   9.563  17.593  0.00  0.00    +0.000 OA
ATOM      9  C   UNL     1      -1.413  10.619  18.439  0.00  0.00    +0.000 C 
ATOM     10  C   UNL     1      -1.777  11.858  17.602  0.00  0.00    +0.000 C 
ATOM     11  C   UNL     1      -1.090  12.979  18.379  0.00  0.00    +0.000 C 
ATOM     12  O   UNL     1       0.124  12.382  18.876  0.00  0.00    +0.000 OA
ATOM     13  C   UNL     1      -0.266  11.074  19.337  0.00  0.00    +0.000 C 
BRANCH  10  14
ATOM     14  N   UNL     1      -3.227  11.995  17.427  0.00  0.00    +0.000 NA
ATOM     15  H   UNL     1      -3.570  11.370  16.703  0.00  0.00    +0.000 HD
BRANCH  14  16
ATOM     16  C   UNL     1      -3.986  11.809  18.666  0.00  0.00    +0.000 C 
BRANCH  16  17
ATOM     17  C   UNL     1      -5.419  12.371  18.507  0.00  0.00    +0.000 C 
ATOM     18  C   UNL     1      -6.393  11.292  18.007  0.00  0.00    +0.000 C 
ATOM     19  C   UNL     1      -6.712  10.242  19.067  0.00  0.00    +0.000 C 
ATOM     20  C   UNL     1      -7.217  10.869  20.363  0.00  0.00    +0.000 C 
ATOM     21  C   UNL     1      -6.321  11.992  20.874  0.00  0.00    +0.000 C 
ATOM     22  C   UNL     1      -5.979  13.012  19.790  0.00  0.00    +0.000 C 
ENDBRANCH  16  17
ENDBRANCH  14  16
ENDBRANCH  10  14
ENDBRANCH   5   6
BRANCH   1  27
ATOM     23  C   UNL     1       3.735   7.020  17.174  0.00  0.00    +0.000 A 
ATOM     24  C   UNL     1       4.156   5.740  17.526  0.00  0.00    +0.000 A 
ATOM     25  C   UNL     1       3.886   5.236  18.801  0.00  0.00    +0.000 A 
ATOM     26  C   UNL     1       3.174   6.046  19.696  0.00  0.00    +0.000 A 
ATOM     27  C   UNL     1       2.629   7.290  19.322  0.00  0.00    +0.000 A 
ATOM     28  C   UNL     1       2.977   7.792  18.064  0.00  0.00    +0.000 A 
BRANCH  25  29
ATOM     29  C   UNL     1       4.301   3.836  19.202  0.00  0.00    +0.000 C 
BRANCH  29  30
ATOM     30  N   UNL     1       3.281   2.781  19.135  0.00  0.00    +0.000 NA
ATOM     31  C   UNL     1       2.463   2.765  17.922  0.00  0.00    +0.000 C 
ATOM     32  C   UNL     1       1.157   3.436  18.305  0.00  0.00    +0.000 C 
ATOM     33  C   UNL     1       0.972   3.072  19.766  0.00  0.00    +0.000 C 
ATOM     34  C   UNL     1       2.365   2.707  20.275  0.00  0.00    +0.000 C 
ENDBRANCH  29  30
ENDBRANCH  25  29
ENDBRANCH   1  27
TORSDOF 7
ENDMDL
MODEL 4
REMARK VINA RESULT:      -7.6      3.204      5.744
REMARK  Name = 
REMARK  7 active torsions:
REMARK  status: ('A' for Active; 'I' for Inactive)
REMARK    1  A    between atoms: C_3  and  C_4
REMARK    2  A    between atoms: C_4  and  N_5
REMARK    3  A    between atoms: C_11  and  C_12
REMARK    4  A    between atoms: N_16  and  C_17
REMARK    5  A    between atoms: C_21  and  N_22
REMARK    6  A    between atoms: N_22  and  C_23
REMARK    7  A    between atoms: C_23  and  C_24
REMARK                            x       y       z     vdW  Elec       q    Type
REMARK                         _______ _______ _______ _____ _____    ______ ____
ROOT
ATOM      1  C   UNL     1       1.806   7.839  20.079  0.00  0.00    +0.000 A 
ATOM      2  N   UNL     1       1.336   7.276  21.184  0.00  0.00    +0.000 NA
ATOM      3  N   UNL     1       0.295   8.034  21.629  0.00  0.00    +0.000 NA
ATOM      4  N   UNL     1       0.120   9.079  20.848  0.00  0.00    +0.000 NA
ATOM      5  N   UNL     1       1.078   9.005  19.901  0.00  0.00    +0.000 N 
ENDROOT
BRANCH   5   6
ATOM      6  C   UNL     1       1.191  10.055  18.915  0.00  0.00    +0.000 C 
ATOM      7  C   UNL     1      -0.020  10.095  17.996  0.00  0.00    +0.000 C 
ATOM      8  O   UNL     1      -0.990  10.953  18.609  0.00  0.00    +0.000 OA
ATOM      9  C   UNL     1      -0.280  11.911  19.422  0.00  0.00    +0.000 C 
ATOM     10  C   UNL     1      -0.220  13.280  18.720  0.00  0.00    +0.000 C 
ATOM     11  C   UNL     1       1.260  13.637  18.847  0.00  0.00    +0.000 C 
ATOM     12  O   UNL     1       1.946  12.376  18.724  0.00  0.00    +0.000 OA
ATOM     13  C   UNL     1       1.173  11.452  19.512  0.00  0.00    +0.000 C 
BRANCH  10  14
ATOM     14  N   UNL     1      -1.163  14.238  19.307  0.00  0.00    +0.000 NA
ATOM     15  H   UNL     1      -1.608  14.802  18.588  0.00  0.00    +0.000 HD
BRANCH  14  16
ATOM     16  C   UNL     1      -2.172  13.615  20.166  0.00  0.00    +0.000 C 
BRANCH  16  17
ATOM     17  C   UNL     1      -2.133  14.241  21.581  0.00  0.00    +0.000 C 
ATOM     18  C   UNL     1      -3.525  14.235  22.235  0.00  0.00    +0.000 C 
ATOM     19  C   UNL     1      -3.980  12.839  22.651  0.00  0.00    +0.000 C 
ATOM     20  C   UNL     1      -2.958  12.144  23.546  0.00  0.00    +0.000 C 
ATOM     21  C   UNL     1      -1.544  12.175  22.975  0.00  0.00    +0.000 C 
ATOM     22  C   UNL     1      -1.120  13.571  22.527  0.00  0.00    +0.000 C 
ENDBRANCH  16  17
ENDBRANCH  14  16
ENDBRANCH  10  14
ENDBRANCH   5   6
BRANCH   1  27
ATOM     23  C   UNL     1       3.878   6.759  17.063  0.00  0.00    +0.000 A 
ATOM     24  C   UNL     1       4.265   5.489  17.485  0.00  0.00    +0.000 A 
ATOM     25  C   UNL     1       3.974   5.061  18.783  0.00  0.00    +0.000 A 
ATOM     26  C   UNL     1       3.277   5.935  19.628  0.00  0.00    +0.000 A 
ATOM     27  C   UNL     1       2.766   7.169  19.185  0.00  0.00    +0.000 A 
ATOM     28  C   UNL     1       3.134   7.595  17.905  0.00  0.00    +0.000 A 
BRANCH  25  29
ATOM     29  C   UNL     1       4.352   3.674  19.261  0.00  0.00    +0.000 C 
BRANCH  29  30
ATOM     30  N   UNL     1       3.315   2.635  19.211  0.00  0.00    +0.000 NA
ATOM     31  C   UNL     1       2.500   2.609  17.996  0.00  0.00    +0.000 C 
ATOM     32  C   UNL     1       1.204   3.307  18.363  0.00  0.00    +0.000 C 
ATOM     33  C   UNL     1       1.009   2.975  19.830  0.00  0.00    +0.000 C 
ATOM     34  C   UNL     1       2.395   2.596  20.350  0.00  0.00    +0.000 C 
ENDBRANCH  29  30
ENDBRANCH  25  29
ENDBRANCH   1  27
TORSDOF 7
ENDMDL
MODEL 5
REMARK VINA RESULT:      -7.5      4.283      7.449
REMARK  Name = 
REMARK  7 active torsions:
REMARK  status: ('A' for Active; 'I' for Inactive)
REMARK    1  A    between atoms: C_3  and  C_4
REMARK    2  A    between atoms: C_4  and  N_5
REMARK    3  A    between atoms: C_11  and  C_12
REMARK    4  A    between atoms: N_16  and  C_17
REMARK    5  A    between atoms: C_21  and  N_22
REMARK    6  A    between atoms: N_22  and  C_23
REMARK    7  A    between atoms: C_23  and  C_24
REMARK                            x       y       z     vdW  Elec       q    Type
REMARK                         _______ _______ _______ _____ _____    ______ ____
ROOT
ATOM      1  C   UNL     1       0.927   9.542  21.536  0.00  0.00    +0.000 A 
ATOM      2  N   UNL     1       1.263   9.153  22.758  0.00  0.00    +0.000 NA
ATOM      3  N   UNL     1       0.414   9.757  23.637  0.00  0.00    +0.000 NA
ATOM      4  N   UNL     1      -0.427  10.542  22.998  0.00  0.00    +0.000 NA
ATOM      5  N   UNL     1      -0.098  10.461  21.692  0.00  0.00    +0.000 N 
ENDROOT
BRANCH   5   6
ATOM      6  C   UNL     1      -0.810  11.266  20.726  0.00  0.00    +0.000 C 
ATOM      7  C   UNL     1      -1.755  12.248  21.399  0.00  0.00    +0.000 C 
ATOM      8  O   UNL     1      -1.010  13.446  21.654  0.00  0.00    +0.000 OA
ATOM      9  C   UNL     1       0.035  13.534  20.663  0.00  0.00    +0.000 C 
ATOM     10  C   UNL     1      -0.330  14.564  19.579  0.00  0.00    +0.000 C 
ATOM     11  C   UNL     1      -0.050  13.786  18.295  0.00  0.00    +0.000 C 
ATOM     12  O   UNL     1      -0.425  12.430  18.606  0.00  0.00    +0.000 OA
ATOM     13  C   UNL     1       0.090  12.196  19.931  0.00  0.00    +0.000 C 
BRANCH  10  14
ATOM     14  N   UNL     1       0.414  15.818  19.743  0.00  0.00    +0.000 NA
ATOM     15  H   UNL     1      -0.129  16.501  20.264  0.00  0.00    +0.000 HD
BRANCH  14  16
ATOM     16  C   UNL     1       1.733  15.642  20.352  0.00  0.00    +0.000 C 
BRANCH  16  17
ATOM     17  C   UNL     1       2.741  16.651  19.752  0.00  0.00    +0.000 C 
ATOM     18  C   UNL     1       4.178  16.349  20.210  0.00  0.00    +0.000 C 
ATOM     19  C   UNL     1       4.754  15.090  19.567  0.00  0.00    +0.000 C 
ATOM     20  C   UNL     1       4.670  15.133  18.044  0.00  0.00    +0.000 C 
ATOM     21  C   UNL     1       3.278  15.492  17.532  0.00  0.00    +0.000 C 
ATOM     22  C   UNL     1       2.700  16.729  18.215  0.00  0.00    +0.000 C 
ENDBRANCH  16  17
ENDBRANCH  14  16
ENDBRANCH  10  14
ENDBRANCH   5   6
BRANCH   1  27
ATOM     23  C   UNL     1       1.609   8.523  17.922  0.00  0.00    +0.000 A 
ATOM     24  C   UNL     1       2.191   7.275  18.135  0.00  0.00    +0.000 A 
ATOM     25  C   UNL     1       2.482   6.847  19.433  0.00  0.00    +0.000 A 
ATOM     26  C   UNL     1       2.160   7.699  20.499  0.00  0.00    +0.000 A 
ATOM     27  C   UNL     1       1.458   8.906  20.318  0.00  0.00    +0.000 A 
ATOM     28  C   UNL     1       1.245   9.334  19.005  0.00  0.00    +0.000 A 
BRANCH  25  29
ATOM     29  C   UNL     1       3.083   5.483  19.699  0.00  0.00    +0.000 C 
BRANCH  29  30
ATOM     30  N   UNL     1       2.313   4.554  20.536  0.00  0.00    +0.000 NA
ATOM     31  C   UNL     1       2.892   3.221  20.704  0.00  0.00    +0.000 C 
ATOM     32  C   UNL     1       2.139   2.328  19.736  0.00  0.00    +0.000 C 
ATOM     33  C   UNL     1       0.746   2.929  19.688  0.00  0.00    +0.000 C 
ATOM     34  C   UNL     1       0.909   4.372  20.162  0.00  0.00    +0.000 C 
ENDBRANCH  29  30
ENDBRANCH  25  29
ENDBRANCH   1  27
TORSDOF 7
ENDMDL
MODEL 6
REMARK VINA RESULT:      -7.5      3.612      6.462
REMARK  Name = 
REMARK  7 active torsions:
REMARK  status: ('A' for Active; 'I' for Inactive)
REMARK    1  A    between atoms: C_3  and  C_4
REMARK    2  A    between atoms: C_4  and  N_5
REMARK    3  A    between atoms: C_11  and  C_12
REMARK    4  A    between atoms: N_16  and  C_17
REMARK    5  A    between atoms: C_21  and  N_22
REMARK    6  A    between atoms: N_22  and  C_23
REMARK    7  A    between atoms: C_23  and  C_24
REMARK                            x       y       z     vdW  Elec       q    Type
REMARK                         _______ _______ _______ _____ _____    ______ ____
ROOT
ATOM      1  C   UNL     1       1.871   7.747  19.860  0.00  0.00    +0.000 A 
ATOM      2  N   UNL     1       1.472   7.285  21.037  0.00  0.00    +0.000 NA
ATOM      3  N   UNL     1       0.499   8.118  21.504  0.00  0.00    +0.000 NA
ATOM      4  N   UNL     1       0.301   9.111  20.664  0.00  0.00    +0.000 NA
ATOM      5  N   UNL     1       1.176   8.927  19.653  0.00  0.00    +0.000 N 
ENDROOT
BRANCH   5   6
ATOM      6  C   UNL     1       1.247   9.899  18.585  0.00  0.00    +0.000 C 
ATOM      7  C   UNL     1      -0.136  10.308  18.105  0.00  0.00    +0.000 C 
ATOM      8  O   UNL     1      -0.554  11.417  18.910  0.00  0.00    +0.000 OA
ATOM      9  C   UNL     1       0.631  12.111  19.354  0.00  0.00    +0.000 C 
ATOM     10  C   UNL     1       0.842  13.400  18.540  0.00  0.00    +0.000 C 
ATOM     11  C   UNL     1       2.314  13.291  18.149  0.00  0.00    +0.000 C 
ATOM     12  O   UNL     1       2.527  11.883  17.936  0.00  0.00    +0.000 OA
ATOM     13  C   UNL     1       1.833  11.232  19.017  0.00  0.00    +0.000 C 
BRANCH  10  14
ATOM     14  N   UNL     1       0.468  14.597  19.302  0.00  0.00    +0.000 NA
ATOM     15  H   UNL     1       1.272  14.992  19.782  0.00  0.00    +0.000 HD
BRANCH  14  16
ATOM     16  C   UNL     1      -0.200  15.620  18.495  0.00  0.00    +0.000 C 
BRANCH  16  17
ATOM     17  C   UNL     1       0.232  17.033  18.955  0.00  0.00    +0.000 C 
ATOM     18  C   UNL     1       1.687  17.332  18.560  0.00  0.00    +0.000 C 
ATOM     19  C   UNL     1       1.862  17.553  17.060  0.00  0.00    +0.000 C 
ATOM     20  C   UNL     1       0.924  18.631  16.525  0.00  0.00    +0.000 C 
ATOM     21  C   UNL     1      -0.529  18.419  16.941  0.00  0.00    +0.000 C 
ATOM     22  C   UNL     1      -0.681  18.159  18.438  0.00  0.00    +0.000 C 
ENDBRANCH  16  17
ENDBRANCH  14  16
ENDBRANCH  10  14
ENDBRANCH   5   6
BRANCH   1  27
ATOM     23  C   UNL     1       4.380   6.700  17.183  0.00  0.00    +0.000 A 
ATOM     24  C   UNL     1       3.930   5.405  16.931  0.00  0.00    +0.000 A 
ATOM     25  C   UNL     1       2.923   4.845  17.721  0.00  0.00    +0.000 A 
ATOM     26  C   UNL     1       2.380   5.624  18.753  0.00  0.00    +0.000 A 
ATOM     27  C   UNL     1       2.729   6.974  18.945  0.00  0.00    +0.000 A 
ATOM     28  C   UNL     1       3.786   7.480  18.183  0.00  0.00    +0.000 A 
BRANCH  25  29
ATOM     29  C   UNL     1       2.389   3.454  17.451  0.00  0.00    +0.000 C 
BRANCH  29  30
ATOM     30  N   UNL     1       2.661   2.417  18.455  0.00  0.00    +0.000 NA
ATOM     31  C   UNL     1       1.497   1.934  19.200  0.00  0.00    +0.000 C 
ATOM     32  C   UNL     1       1.542   2.657  20.533  0.00  0.00    +0.000 C 
ATOM     33  C   UNL     1       3.024   2.846  20.800  0.00  0.00    +0.000 C 
ATOM     34  C   UNL     1       3.700   2.734  19.435  0.00  0.00    +0.000 C 
ENDBRANCH  29  30
ENDBRANCH  25  29
ENDBRANCH   1  27
TORSDOF 7
ENDMDL
MODEL 7
REMARK VINA RESULT:      -7.4      3.706      6.597
REMARK  Name = 
REMARK  7 active torsions:
REMARK  status: ('A' for Active; 'I' for Inactive)
REMARK    1  A    between atoms: C_3  and  C_4
REMARK    2  A    between atoms: C_4  and  N_5
REMARK    3  A    between atoms: C_11  and  C_12
REMARK    4  A    between atoms: N_16  and  C_17
REMARK    5  A    between atoms: C_21  and  N_22
REMARK    6  A    between atoms: N_22  and  C_23
REMARK    7  A    between atoms: C_23  and  C_24
REMARK                            x       y       z     vdW  Elec       q    Type
REMARK                         _______ _______ _______ _____ _____    ______ ____
ROOT
ATOM      1  C   UNL     1       1.609  10.232  18.429  0.00  0.00    +0.000 A 
ATOM      2  N   UNL     1       2.554  11.073  18.031  0.00  0.00    +0.000 NA
ATOM      3  N   UNL     1       2.033  12.332  18.064  0.00  0.00    +0.000 NA
ATOM      4  N   UNL     1       0.773  12.299  18.442  0.00  0.00    +0.000 NA
ATOM      5  N   UNL     1       0.472  10.998  18.631  0.00  0.00    +0.000 N 
ENDROOT
BRANCH   5   6
ATOM      6  C   UNL     1      -0.875  10.623  18.998  0.00  0.00    +0.000 C 
ATOM      7  C   UNL     1      -1.076  10.650  20.505  0.00  0.00    +0.000 C 
ATOM      8  O   UNL     1      -1.489  11.976  20.854  0.00  0.00    +0.000 OA
ATOM      9  C   UNL     1      -2.169  12.541  19.712  0.00  0.00    +0.000 C 
ATOM     10  C   UNL     1      -3.693  12.527  19.925  0.00  0.00    +0.000 C 
ATOM     11  C   UNL     1      -4.191  11.924  18.613  0.00  0.00    +0.000 C 
ATOM     12  O   UNL     1      -3.184  10.958  18.255  0.00  0.00    +0.000 OA
ATOM     13  C   UNL     1      -1.929  11.610  18.527  0.00  0.00    +0.000 C 
BRANCH  10  14
ATOM     14  N   UNL     1      -4.212  13.858  20.258  0.00  0.00    +0.000 NA
ATOM     15  H   UNL     1      -4.483  14.366  19.420  0.00  0.00    +0.000 HD
BRANCH  14  16
ATOM     16  C   UNL     1      -5.316  13.832  21.219  0.00  0.00    +0.000 C 
BRANCH  16  17
ATOM     17  C   UNL     1      -4.887  14.501  22.547  0.00  0.00    +0.000 C 
ATOM     18  C   UNL     1      -5.970  14.345  23.628  0.00  0.00    +0.000 C 
ATOM     19  C   UNL     1      -6.082  12.917  24.155  0.00  0.00    +0.000 C 
ATOM     20  C   UNL     1      -4.742  12.379  24.649  0.00  0.00    +0.000 C 
ATOM     21  C   UNL     1      -3.614  12.565  23.639  0.00  0.00    +0.000 C 
ATOM     22  C   UNL     1      -3.542  13.989  23.092  0.00  0.00    +0.000 C 
ENDBRANCH  16  17
ENDBRANCH  14  16
ENDBRANCH  10  14
ENDBRANCH   5   6
BRANCH   1  27
ATOM     23  C   UNL     1       2.015   6.894  20.233  0.00  0.00    +0.000 A 
ATOM     24  C   UNL     1       2.897   6.261  19.361  0.00  0.00    +0.000 A 
ATOM     25  C   UNL     1       3.232   6.858  18.143  0.00  0.00    +0.000 A 
ATOM     26  C   UNL     1       2.670   8.106  17.840  0.00  0.00    +0.000 A 
ATOM     27  C   UNL     1       1.878   8.822  18.758  0.00  0.00    +0.000 A 
ATOM     28  C   UNL     1       1.508   8.166  19.936  0.00  0.00    +0.000 A 
BRANCH  25  29
ATOM     29  C   UNL     1       4.214   6.211  17.189  0.00  0.00    +0.000 C 
BRANCH  29  30
ATOM     30  N   UNL     1       5.120   5.193  17.736  0.00  0.00    +0.000 NA
ATOM     31  C   UNL     1       6.182   5.693  18.612  0.00  0.00    +0.000 C 
ATOM     32  C   UNL     1       7.427   5.748  17.747  0.00  0.00    +0.000 C 
ATOM     33  C   UNL     1       7.249   4.599  16.772  0.00  0.00    +0.000 C 
ATOM     34  C   UNL     1       5.750   4.306  16.757  0.00  0.00    +0.000 C 
ENDBRANCH  29  30
ENDBRANCH  25  29
ENDBRANCH   1  27
TORSDOF 7
ENDMDL
MODEL 8
REMARK VINA RESULT:      -7.2      4.090      7.744
REMARK  Name = 
REMARK  7 active torsions:
REMARK  status: ('A' for Active; 'I' for Inactive)
REMARK    1  A    between atoms: C_3  and  C_4
REMARK    2  A    between atoms: C_4  and  N_5
REMARK    3  A    between atoms: C_11  and  C_12
REMARK    4  A    between atoms: N_16  and  C_17
REMARK    5  A    between atoms: C_21  and  N_22
REMARK    6  A    between atoms: N_22  and  C_23
REMARK    7  A    between atoms: C_23  and  C_24
REMARK                            x       y       z     vdW  Elec       q    Type
REMARK                         _______ _______ _______ _____ _____    ______ ____
ROOT
ATOM      1  C   UNL     1       0.784  10.089  21.521  0.00  0.00    +0.000 A 
ATOM      2  N   UNL     1       0.882   9.359  22.624  0.00  0.00    +0.000 NA
ATOM      3  N   UNL     1       0.038   9.890  23.552  0.00  0.00    +0.000 NA
ATOM      4  N   UNL     1      -0.564  10.957  23.070  0.00  0.00    +0.000 NA
ATOM      5  N   UNL     1      -0.081  11.128  21.822  0.00  0.00    +0.000 N 
ENDROOT
BRANCH   5   6
ATOM      6  C   UNL     1      -0.510  12.266  21.041  0.00  0.00    +0.000 C 
ATOM      7  C   UNL     1      -1.369  11.846  19.859  0.00  0.00    +0.000 C 
ATOM      8  O   UNL     1      -2.727  11.811  20.313  0.00  0.00    +0.000 OA
ATOM      9  C   UNL     1      -2.854  12.756  21.396  0.00  0.00    +0.000 C 
ATOM     10  C   UNL     1      -3.552  14.041  20.916  0.00  0.00    +0.000 C 
ATOM     11  C   UNL     1      -2.625  15.128  21.458  0.00  0.00    +0.000 C 
ATOM     12  O   UNL     1      -1.305  14.561  21.350  0.00  0.00    +0.000 OA
ATOM     13  C   UNL     1      -1.447  13.197  21.790  0.00  0.00    +0.000 C 
BRANCH  10  14
ATOM     14  N   UNL     1      -4.948  14.107  21.365  0.00  0.00    +0.000 NA
ATOM     15  H   UNL     1      -5.505  14.689  20.745  0.00  0.00    +0.000 HD
BRANCH  14  16
ATOM     16  C   UNL     1      -5.571  12.793  21.531  0.00  0.00    +0.000 C 
BRANCH  16  17
ATOM     17  C   UNL     1      -6.967  12.772  20.861  0.00  0.00    +0.000 C 
ATOM     18  C   UNL     1      -6.903  13.291  19.415  0.00  0.00    +0.000 C 
ATOM     19  C   UNL     1      -6.214  12.315  18.465  0.00  0.00    +0.000 C 
ATOM     20  C   UNL     1      -6.842  10.925  18.514  0.00  0.00    +0.000 C 
ATOM     21  C   UNL     1      -6.989  10.386  19.933  0.00  0.00    +0.000 C 
ATOM     22  C   UNL     1      -7.642  11.390  20.880  0.00  0.00    +0.000 C 
ENDBRANCH  16  17
ENDBRANCH  14  16
ENDBRANCH  10  14
ENDBRANCH   5   6
BRANCH   1  27
ATOM     23  C   UNL     1       1.812   9.885  17.852  0.00  0.00    +0.000 A 
ATOM     24  C   UNL     1       2.071   8.519  17.755  0.00  0.00    +0.000 A 
ATOM     25  C   UNL     1       2.048   7.716  18.898  0.00  0.00    +0.000 A 
ATOM     26  C   UNL     1       1.746   8.321  20.126  0.00  0.00    +0.000 A 
ATOM     27  C   UNL     1       1.358   9.671  20.230  0.00  0.00    +0.000 A 
ATOM     28  C   UNL     1       1.459  10.459  19.080  0.00  0.00    +0.000 A 
BRANCH  25  29
ATOM     29  C   UNL     1       2.291   6.224  18.820  0.00  0.00    +0.000 C 
BRANCH  29  30
ATOM     30  N   UNL     1       3.013   5.596  19.934  0.00  0.00    +0.000 NA
ATOM     31  C   UNL     1       4.200   4.822  19.566  0.00  0.00    +0.000 C 
ATOM     32  C   UNL     1       3.756   3.372  19.573  0.00  0.00    +0.000 C 
ATOM     33  C   UNL     1       2.695   3.317  20.657  0.00  0.00    +0.000 C 
ATOM     34  C   UNL     1       2.209   4.755  20.824  0.00  0.00    +0.000 C 
ENDBRANCH  29  30
ENDBRANCH  25  29
ENDBRANCH   1  27
TORSDOF 7
ENDMDL
MODEL 9
REMARK VINA RESULT:      -7.2      4.339      7.871
REMARK  Name = 
REMARK  7 active torsions:
REMARK  status: ('A' for Active; 'I' for Inactive)
REMARK    1  A    between atoms: C_3  and  C_4
REMARK    2  A    between atoms: C_4  and  N_5
REMARK    3  A    between atoms: C_11  and  C_12
REMARK    4  A    between atoms: N_16  and  C_17
REMARK    5  A    between atoms: C_21  and  N_22
REMARK    6  A    between atoms: N_22  and  C_23
REMARK    7  A    between atoms: C_23  and  C_24
REMARK                            x       y       z     vdW  Elec       q    Type
REMARK                         _______ _______ _______ _____ _____    ______ ____
ROOT
ATOM      1  C   UNL     1       0.743   9.933  21.575  0.00  0.00    +0.000 A 
ATOM      2  N   UNL     1       0.730   9.277  22.728  0.00  0.00    +0.000 NA
ATOM      3  N   UNL     1      -0.081   9.957  23.586  0.00  0.00    +0.000 NA
ATOM      4  N   UNL     1      -0.552  11.044  23.012  0.00  0.00    +0.000 NA
ATOM      5  N   UNL     1      -0.017  11.075  21.773  0.00  0.00    +0.000 N 
ENDROOT
BRANCH   5   6
ATOM      6  C   UNL     1      -0.298  12.193  20.902  0.00  0.00    +0.000 C 
ATOM      7  C   UNL     1      -1.109  11.769  19.688  0.00  0.00    +0.000 C 
ATOM      8  O   UNL     1      -2.493  11.868  20.046  0.00  0.00    +0.000 OA
ATOM      9  C   UNL     1      -2.614  12.885  21.063  0.00  0.00    +0.000 C 
ATOM     10  C   UNL     1      -3.171  14.188  20.465  0.00  0.00    +0.000 C 
ATOM     11  C   UNL     1      -2.197  15.230  21.009  0.00  0.00    +0.000 C 
ATOM     12  O   UNL     1      -0.923  14.558  21.026  0.00  0.00    +0.000 OA
ATOM     13  C   UNL     1      -1.204  13.238  21.530  0.00  0.00    +0.000 C 
BRANCH  10  14
ATOM     14  N   UNL     1      -4.583  14.389  20.809  0.00  0.00    +0.000 NA
ATOM     15  H   UNL     1      -5.188  13.811  20.231  0.00  0.00    +0.000 HD
BRANCH  14  16
ATOM     16  C   UNL     1      -4.876  14.176  22.228  0.00  0.00    +0.000 C 
BRANCH  16  17
ATOM     17  C   UNL     1      -6.344  14.555  22.536  0.00  0.00    +0.000 C 
ATOM     18  C   UNL     1      -7.302  14.006  21.466  0.00  0.00    +0.000 C 
ATOM     19  C   UNL     1      -7.471  12.490  21.541  0.00  0.00    +0.000 C 
ATOM     20  C   UNL     1      -7.892  12.028  22.933  0.00  0.00    +0.000 C 
ATOM     21  C   UNL     1      -7.013  12.595  24.043  0.00  0.00    +0.000 C 
ATOM     22  C   UNL     1      -6.821  14.105  23.929  0.00  0.00    +0.000 C 
ENDBRANCH  16  17
ENDBRANCH  14  16
ENDBRANCH  10  14
ENDBRANCH   5   6
BRANCH   1  27
ATOM     23  C   UNL     1       1.608   9.202  17.932  0.00  0.00    +0.000 A 
ATOM     24  C   UNL     1       2.058   7.889  18.055  0.00  0.00    +0.000 A 
ATOM     25  C   UNL     1       2.209   7.314  19.319  0.00  0.00    +0.000 A 
ATOM     26  C   UNL     1       1.883   8.087  20.442  0.00  0.00    +0.000 A 
ATOM     27  C   UNL     1       1.308   9.367  20.338  0.00  0.00    +0.000 A 
ATOM     28  C   UNL     1       1.235   9.938  19.064  0.00  0.00    +0.000 A 
BRANCH  25  29
ATOM     29  C   UNL     1       2.663   5.879  19.485  0.00  0.00    +0.000 C 
BRANCH  29  30
ATOM     30  N   UNL     1       1.670   4.822  19.252  0.00  0.00    +0.000 NA
ATOM     31  C   UNL     1       1.015   4.292  20.449  0.00  0.00    +0.000 C 
ATOM     32  C   UNL     1       1.727   2.988  20.756  0.00  0.00    +0.000 C 
ATOM     33  C   UNL     1       2.131   2.459  19.392  0.00  0.00    +0.000 C 
ATOM     34  C   UNL     1       2.130   3.675  18.467  0.00  0.00    +0.000 C 
ENDBRANCH  29  30
ENDBRANCH  25  29
ENDBRANCH   1  27
TORSDOF 7
ENDMDL
