MODEL 1
REMARK VINA RESULT:      -8.8      0.000      0.000
REMARK  Name = 
REMARK  7 active torsions:
REMARK  status: ('A' for Active; 'I' for Inactive)
REMARK    1  A    between atoms: C_1  and  C_2
REMARK    2  A    between atoms: C_5  and  C_6
REMARK    3  A    between atoms: C_6  and  N_7
REMARK    4  A    between atoms: C_13  and  C_14
REMARK    5  A    between atoms: C_13  and  C_15
REMARK    6  A    between atoms: C_17  and  C_18
REMARK    7  A    between atoms: C_17  and  C_19
REMARK                            x       y       z     vdW  Elec       q    Type
REMARK                         _______ _______ _______ _____ _____    ______ ____
ROOT
ATOM      1  N   UNL     1       5.679   5.276  17.896  0.00  0.00    +0.000 N 
ATOM      2  C   UNL     1       4.785   6.164  17.394  0.00  0.00    +0.000 C 
ATOM      3  O   UNL     1       4.944   6.941  16.470  0.00  0.00    +0.000 OA
ATOM      4  N   UNL     1       3.598   6.007  18.072  0.00  0.00    +0.000 N 
ATOM      5  C   UNL     1       3.586   4.781  18.847  0.00  0.00    +0.000 C 
ATOM      6  C   UNL     1       2.911   4.936  20.191  0.00  0.00    +0.000 C 
ATOM      7  C   UNL     1       2.098   3.654  20.392  0.00  0.00    +0.000 C 
ATOM      8  C   UNL     1       0.603   3.945  20.564  0.00  0.00    +0.000 C 
ATOM      9  C   UNL     1       2.591   2.854  21.598  0.00  0.00    +0.000 C 
ATOM     10  O   UNL     1       2.246   2.836  19.220  0.00  0.00    +0.000 OA
ATOM     11  C   UNL     1       2.872   3.586  18.159  0.00  0.00    +0.000 C 
ATOM     12  C   UNL     1       1.756   4.025  17.195  0.00  0.00    +0.000 C 
ATOM     13  C   UNL     1       3.769   2.601  17.393  0.00  0.00    +0.000 C 
ATOM     14  C   UNL     1       5.108   4.545  18.904  0.00  0.00    +0.000 C 
ATOM     15  O   UNL     1       5.682   3.730  19.612  0.00  0.00    +0.000 OA
ATOM     16  H   UNL     1       2.779   6.520  17.768  0.00  0.00    +0.000 HD
ENDROOT
BRANCH   1  17
ATOM     17  C   UNL     1       6.978   5.022  17.326  0.00  0.00    +0.000 C 
BRANCH  17  22
ATOM     18  C   UNL     1       6.046   3.462  12.390  0.00  0.00    +0.000 C 
ATOM     19  C   UNL     1       6.516   4.145  13.621  0.00  0.00    +0.000 A 
ATOM     20  N   UNL     1       7.328   5.181  13.658  0.00  0.00    +0.000 NA
ATOM     21  N   UNL     1       7.585   5.601  14.950  0.00  0.00    +0.000 NA
ATOM     22  C   UNL     1       6.956   4.867  15.845  0.00  0.00    +0.000 A 
ATOM     23  S   UNL     1       6.008   3.597  15.163  0.00  0.00    +0.000 S 
ENDBRANCH  17  22
ENDBRANCH   1  17
TORSDOF 2
ENDMDL
MODEL 2
REMARK VINA RESULT:      -8.4      1.223      1.353
REMARK  Name = 
REMARK  7 active torsions:
REMARK  status: ('A' for Active; 'I' for Inactive)
REMARK    1  A    between atoms: C_1  and  C_2
REMARK    2  A    between atoms: C_5  and  C_6
REMARK    3  A    between atoms: C_6  and  N_7
REMARK    4  A    between atoms: C_13  and  C_14
REMARK    5  A    between atoms: C_13  and  C_15
REMARK    6  A    between atoms: C_17  and  C_18
REMARK    7  A    between atoms: C_17  and  C_19
REMARK                            x       y       z     vdW  Elec       q    Type
REMARK                         _______ _______ _______ _____ _____    ______ ____
ROOT
ATOM      1  N   UNL     1       4.681   6.529  18.308  0.00  0.00    +0.000 N 
ATOM      2  C   UNL     1       3.473   7.078  18.025  0.00  0.00    +0.000 C 
ATOM      3  O   UNL     1       3.233   8.008  17.275  0.00  0.00    +0.000 OA
ATOM      4  N   UNL     1       2.507   6.356  18.688  0.00  0.00    +0.000 N 
ATOM      5  C   UNL     1       3.034   5.103  19.195  0.00  0.00    +0.000 C 
ATOM      6  C   UNL     1       2.495   4.742  20.560  0.00  0.00    +0.000 C 
ATOM      7  C   UNL     1       2.244   3.231  20.516  0.00  0.00    +0.000 C 
ATOM      8  C   UNL     1       0.775   2.886  20.786  0.00  0.00    +0.000 C 
ATOM      9  C   UNL     1       3.123   2.482  21.517  0.00  0.00    +0.000 C 
ATOM     10  O   UNL     1       2.564   2.759  19.197  0.00  0.00    +0.000 OA
ATOM     11  C   UNL     1       2.750   3.869  18.296  0.00  0.00    +0.000 C 
ATOM     12  C   UNL     1       1.456   4.008  17.474  0.00  0.00    +0.000 C 
ATOM     13  C   UNL     1       3.864   3.462  17.319  0.00  0.00    +0.000 C 
ATOM     14  C   UNL     1       4.532   5.467  19.159  0.00  0.00    +0.000 C 
ATOM     15  O   UNL     1       5.439   4.825  19.669  0.00  0.00    +0.000 OA
ATOM     16  H   UNL     1       1.529   6.558  18.519  0.00  0.00    +0.000 HD
ENDROOT
BRANCH   1  17
ATOM     17  C   UNL     1       5.913   6.904  17.662  0.00  0.00    +0.000 C 
BRANCH  17  22
ATOM     18  C   UNL     1       6.414   3.906  13.369  0.00  0.00    +0.000 C 
ATOM     19  C   UNL     1       6.572   4.583  14.681  0.00  0.00    +0.000 A 
ATOM     20  N   UNL     1       7.553   4.377  15.534  0.00  0.00    +0.000 NA
ATOM     21  N   UNL     1       7.434   5.158  16.670  0.00  0.00    +0.000 NA
ATOM     22  C   UNL     1       6.365   5.926  16.633  0.00  0.00    +0.000 A 
ATOM     23  S   UNL     1       5.421   5.740  15.202  0.00  0.00    +0.000 S 
ENDBRANCH  17  22
ENDBRANCH   1  17
TORSDOF 2
ENDMDL
MODEL 3
REMARK VINA RESULT:      -8.2      2.598      3.511
REMARK  Name = 
REMARK  7 active torsions:
REMARK  status: ('A' for Active; 'I' for Inactive)
REMARK    1  A    between atoms: C_1  and  C_2
REMARK    2  A    between atoms: C_5  and  C_6
REMARK    3  A    between atoms: C_6  and  N_7
REMARK    4  A    between atoms: C_13  and  C_14
REMARK    5  A    between atoms: C_13  and  C_15
REMARK    6  A    between atoms: C_17  and  C_18
REMARK    7  A    between atoms: C_17  and  C_19
REMARK                            x       y       z     vdW  Elec       q    Type
REMARK                         _______ _______ _______ _____ _____    ______ ____
ROOT
ATOM      1  N   UNL     1       5.746   4.644  17.721  0.00  0.00    +0.000 N 
ATOM      2  C   UNL     1       5.345   3.941  16.632  0.00  0.00    +0.000 C 
ATOM      3  O   UNL     1       6.018   3.589  15.680  0.00  0.00    +0.000 OA
ATOM      4  N   UNL     1       4.019   3.611  16.800  0.00  0.00    +0.000 N 
ATOM      5  C   UNL     1       3.585   3.833  18.166  0.00  0.00    +0.000 C 
ATOM      6  C   UNL     1       2.184   4.395  18.259  0.00  0.00    +0.000 C 
ATOM      7  C   UNL     1       1.529   3.671  19.441  0.00  0.00    +0.000 C 
ATOM      8  C   UNL     1       0.274   2.901  19.016  0.00  0.00    +0.000 C 
ATOM      9  C   UNL     1       1.162   4.640  20.564  0.00  0.00    +0.000 C 
ATOM     10  O   UNL     1       2.468   2.715  19.961  0.00  0.00    +0.000 OA
ATOM     11  C   UNL     1       3.583   2.563  19.060  0.00  0.00    +0.000 C 
ATOM     12  C   UNL     1       3.349   1.267  18.265  0.00  0.00    +0.000 C 
ATOM     13  C   UNL     1       4.828   2.339  19.933  0.00  0.00    +0.000 C 
ATOM     14  C   UNL     1       4.706   4.799  18.597  0.00  0.00    +0.000 C 
ATOM     15  O   UNL     1       4.727   5.462  19.624  0.00  0.00    +0.000 OA
ATOM     16  H   UNL     1       3.569   2.999  16.131  0.00  0.00    +0.000 HD
ENDROOT
BRANCH   1  17
ATOM     17  C   UNL     1       7.114   5.013  17.988  0.00  0.00    +0.000 C 
BRANCH  17  22
ATOM     18  C   UNL     1       8.813   9.964  18.511  0.00  0.00    +0.000 C 
ATOM     19  C   UNL     1       8.163   8.702  18.080  0.00  0.00    +0.000 A 
ATOM     20  N   UNL     1       7.385   8.564  17.026  0.00  0.00    +0.000 NA
ATOM     21  N   UNL     1       6.928   7.267  16.877  0.00  0.00    +0.000 NA
ATOM     22  C   UNL     1       7.378   6.470  17.824  0.00  0.00    +0.000 A 
ATOM     23  S   UNL     1       8.391   7.259  18.976  0.00  0.00    +0.000 S 
ENDBRANCH  17  22
ENDBRANCH   1  17
TORSDOF 2
ENDMDL
MODEL 4
REMARK VINA RESULT:      -7.7      1.210      1.234
REMARK  Name = 
REMARK  7 active torsions:
REMARK  status: ('A' for Active; 'I' for Inactive)
REMARK    1  A    between atoms: C_1  and  C_2
REMARK    2  A    between atoms: C_5  and  C_6
REMARK    3  A    between atoms: C_6  and  N_7
REMARK    4  A    between atoms: C_13  and  C_14
REMARK    5  A    between atoms: C_13  and  C_15
REMARK    6  A    between atoms: C_17  and  C_18
REMARK    7  A    between atoms: C_17  and  C_19
REMARK                            x       y       z     vdW  Elec       q    Type
REMARK                         _______ _______ _______ _____ _____    ______ ____
ROOT
ATOM      1  N   UNL     1       4.899   6.169  18.373  0.00  0.00    +0.000 N 
ATOM      2  C   UNL     1       3.742   6.869  18.271  0.00  0.00    +0.000 C 
ATOM      3  O   UNL     1       3.532   7.874  17.616  0.00  0.00    +0.000 OA
ATOM      4  N   UNL     1       2.777   6.210  18.998  0.00  0.00    +0.000 N 
ATOM      5  C   UNL     1       3.204   4.871  19.358  0.00  0.00    +0.000 C 
ATOM      6  C   UNL     1       2.781   4.469  20.753  0.00  0.00    +0.000 C 
ATOM      7  C   UNL     1       2.349   3.003  20.643  0.00  0.00    +0.000 C 
ATOM      8  C   UNL     1       0.888   2.804  21.065  0.00  0.00    +0.000 C 
ATOM      9  C   UNL     1       3.238   2.086  21.483  0.00  0.00    +0.000 C 
ATOM     10  O   UNL     1       2.460   2.600  19.268  0.00  0.00    +0.000 OA
ATOM     11  C   UNL     1       2.676   3.749  18.424  0.00  0.00    +0.000 C 
ATOM     12  C   UNL     1       1.325   4.093  17.773  0.00  0.00    +0.000 C 
ATOM     13  C   UNL     1       3.618   3.297  17.297  0.00  0.00    +0.000 C 
ATOM     14  C   UNL     1       4.721   5.068  19.167  0.00  0.00    +0.000 C 
ATOM     15  O   UNL     1       5.596   4.292  19.523  0.00  0.00    +0.000 OA
ATOM     16  H   UNL     1       1.817   6.532  18.961  0.00  0.00    +0.000 HD
ENDROOT
BRANCH   1  17
ATOM     17  C   UNL     1       6.088   6.453  17.609  0.00  0.00    +0.000 C 
BRANCH  17  22
ATOM     18  C   UNL     1       6.581   3.609  13.212  0.00  0.00    +0.000 C 
ATOM     19  C   UNL     1       6.265   4.635  14.236  0.00  0.00    +0.000 A 
ATOM     20  N   UNL     1       5.579   5.739  14.027  0.00  0.00    +0.000 NA
ATOM     21  N   UNL     1       5.443   6.499  15.175  0.00  0.00    +0.000 NA
ATOM     22  C   UNL     1       6.032   5.941  16.212  0.00  0.00    +0.000 A 
ATOM     23  S   UNL     1       6.806   4.442  15.851  0.00  0.00    +0.000 S 
ENDBRANCH  17  22
ENDBRANCH   1  17
TORSDOF 2
ENDMDL
MODEL 5
REMARK VINA RESULT:      -7.3      2.456      3.419
REMARK  Name = 
REMARK  7 active torsions:
REMARK  status: ('A' for Active; 'I' for Inactive)
REMARK    1  A    between atoms: C_1  and  C_2
REMARK    2  A    between atoms: C_5  and  C_6
REMARK    3  A    between atoms: C_6  and  N_7
REMARK    4  A    between atoms: C_13  and  C_14
REMARK    5  A    between atoms: C_13  and  C_15
REMARK    6  A    between atoms: C_17  and  C_18
REMARK    7  A    between atoms: C_17  and  C_19
REMARK                            x       y       z     vdW  Elec       q    Type
REMARK                         _______ _______ _______ _____ _____    ______ ____
ROOT
ATOM      1  N   UNL     1       5.902   4.495  17.709  0.00  0.00    +0.000 N 
ATOM      2  C   UNL     1       5.331   3.906  16.628  0.00  0.00    +0.000 C 
ATOM      3  O   UNL     1       5.879   3.524  15.609  0.00  0.00    +0.000 OA
ATOM      4  N   UNL     1       3.991   3.737  16.890  0.00  0.00    +0.000 N 
ATOM      5  C   UNL     1       3.694   3.937  18.296  0.00  0.00    +0.000 C 
ATOM      6  C   UNL     1       2.389   4.664  18.529  0.00  0.00    +0.000 C 
ATOM      7  C   UNL     1       1.739   3.966  19.728  0.00  0.00    +0.000 C 
ATOM      8  C   UNL     1       0.367   3.382  19.376  0.00  0.00    +0.000 C 
ATOM      9  C   UNL     1       1.586   4.912  20.919  0.00  0.00    +0.000 C 
ATOM     10  O   UNL     1       2.584   2.874  20.128  0.00  0.00    +0.000 OA
ATOM     11  C   UNL     1       3.598   2.632  19.132  0.00  0.00    +0.000 C 
ATOM     12  C   UNL     1       3.139   1.419  18.304  0.00  0.00    +0.000 C 
ATOM     13  C   UNL     1       4.867   2.208  19.888  0.00  0.00    +0.000 C 
ATOM     14  C   UNL     1       4.961   4.732  18.674  0.00  0.00    +0.000 C 
ATOM     15  O   UNL     1       5.145   5.332  19.723  0.00  0.00    +0.000 OA
ATOM     16  H   UNL     1       3.416   3.221  16.235  0.00  0.00    +0.000 HD
ENDROOT
BRANCH   1  17
ATOM     17  C   UNL     1       7.322   4.677  17.878  0.00  0.00    +0.000 C 
BRANCH  17  22
ATOM     18  C   UNL     1       8.001   9.883  17.563  0.00  0.00    +0.000 C 
ATOM     19  C   UNL     1       8.007   8.450  17.948  0.00  0.00    +0.000 A 
ATOM     20  N   UNL     1       8.588   7.948  19.018  0.00  0.00    +0.000 NA
ATOM     21  N   UNL     1       8.419   6.578  19.113  0.00  0.00    +0.000 NA
ATOM     22  C   UNL     1       7.716   6.094  18.110  0.00  0.00    +0.000 A 
ATOM     23  S   UNL     1       7.216   7.287  16.969  0.00  0.00    +0.000 S 
ENDBRANCH  17  22
ENDBRANCH   1  17
TORSDOF 2
ENDMDL
MODEL 6
REMARK VINA RESULT:      -7.0      2.482      3.401
REMARK  Name = 
REMARK  7 active torsions:
REMARK  status: ('A' for Active; 'I' for Inactive)
REMARK    1  A    between atoms: C_1  and  C_2
REMARK    2  A    between atoms: C_5  and  C_6
REMARK    3  A    between atoms: C_6  and  N_7
REMARK    4  A    between atoms: C_13  and  C_14
REMARK    5  A    between atoms: C_13  and  C_15
REMARK    6  A    between atoms: C_17  and  C_18
REMARK    7  A    between atoms: C_17  and  C_19
REMARK                            x       y       z     vdW  Elec       q    Type
REMARK                         _______ _______ _______ _____ _____    ______ ____
ROOT
ATOM      1  N   UNL     1       4.983   6.032  17.963  0.00  0.00    +0.000 N 
ATOM      2  C   UNL     1       3.846   6.759  17.828  0.00  0.00    +0.000 C 
ATOM      3  O   UNL     1       3.655   7.719  17.103  0.00  0.00    +0.000 OA
ATOM      4  N   UNL     1       2.875   6.188  18.618  0.00  0.00    +0.000 N 
ATOM      5  C   UNL     1       3.267   4.866  19.070  0.00  0.00    +0.000 C 
ATOM      6  C   UNL     1       2.858   4.583  20.498  0.00  0.00    +0.000 C 
ATOM      7  C   UNL     1       2.378   3.128  20.507  0.00  0.00    +0.000 C 
ATOM      8  C   UNL     1       0.921   3.008  20.966  0.00  0.00    +0.000 C 
ATOM      9  C   UNL     1       3.254   2.248  21.398  0.00  0.00    +0.000 C 
ATOM     10  O   UNL     1       2.451   2.621  19.164  0.00  0.00    +0.000 OA
ATOM     11  C   UNL     1       2.686   3.696  18.232  0.00  0.00    +0.000 C 
ATOM     12  C   UNL     1       1.335   4.034  17.580  0.00  0.00    +0.000 C 
ATOM     13  C   UNL     1       3.593   3.130  17.127  0.00  0.00    +0.000 C 
ATOM     14  C   UNL     1       4.786   4.999  18.840  0.00  0.00    +0.000 C 
ATOM     15  O   UNL     1       5.643   4.224  19.239  0.00  0.00    +0.000 OA
ATOM     16  H   UNL     1       1.926   6.537  18.572  0.00  0.00    +0.000 HD
ENDROOT
BRANCH   1  17
ATOM     17  C   UNL     1       6.166   6.219  17.160  0.00  0.00    +0.000 C 
BRANCH  17  22
ATOM     18  C   UNL     1       9.092  10.349  18.591  0.00  0.00    +0.000 C 
ATOM     19  C   UNL     1       8.477   9.009  18.418  0.00  0.00    +0.000 A 
ATOM     20  N   UNL     1       8.838   7.914  19.054  0.00  0.00    +0.000 NA
ATOM     21  N   UNL     1       8.079   6.818  18.685  0.00  0.00    +0.000 NA
ATOM     22  C   UNL     1       7.169   7.125  17.784  0.00  0.00    +0.000 A 
ATOM     23  S   UNL     1       7.186   8.785  17.313  0.00  0.00    +0.000 S 
ENDBRANCH  17  22
ENDBRANCH   1  17
TORSDOF 2
ENDMDL
MODEL 7
REMARK VINA RESULT:      -7.0      1.563      2.280
REMARK  Name = 
REMARK  7 active torsions:
REMARK  status: ('A' for Active; 'I' for Inactive)
REMARK    1  A    between atoms: C_1  and  C_2
REMARK    2  A    between atoms: C_5  and  C_6
REMARK    3  A    between atoms: C_6  and  N_7
REMARK    4  A    between atoms: C_13  and  C_14
REMARK    5  A    between atoms: C_13  and  C_15
REMARK    6  A    between atoms: C_17  and  C_18
REMARK    7  A    between atoms: C_17  and  C_19
REMARK                            x       y       z     vdW  Elec       q    Type
REMARK                         _______ _______ _______ _____ _____    ______ ____
ROOT
ATOM      1  N   UNL     1       4.825   5.336  17.348  0.00  0.00    +0.000 N 
ATOM      2  C   UNL     1       5.497   5.445  18.521  0.00  0.00    +0.000 C 
ATOM      3  O   UNL     1       6.475   6.131  18.761  0.00  0.00    +0.000 OA
ATOM      4  N   UNL     1       4.844   4.683  19.462  0.00  0.00    +0.000 N 
ATOM      5  C   UNL     1       3.527   4.284  19.002  0.00  0.00    +0.000 C 
ATOM      6  C   UNL     1       3.164   2.870  19.397  0.00  0.00    +0.000 C 
ATOM      7  C   UNL     1       1.687   2.923  19.800  0.00  0.00    +0.000 C 
ATOM      8  C   UNL     1       1.473   2.475  21.250  0.00  0.00    +0.000 C 
ATOM      9  C   UNL     1       0.818   2.066  18.881  0.00  0.00    +0.000 C 
ATOM     10  O   UNL     1       1.240   4.285  19.699  0.00  0.00    +0.000 OA
ATOM     11  C   UNL     1       2.363   5.171  19.519  0.00  0.00    +0.000 C 
ATOM     12  C   UNL     1       2.656   5.814  20.886  0.00  0.00    +0.000 C 
ATOM     13  C   UNL     1       1.892   6.296  18.583  0.00  0.00    +0.000 C 
ATOM     14  C   UNL     1       3.748   4.503  17.492  0.00  0.00    +0.000 C 
ATOM     15  O   UNL     1       3.003   4.133  16.596  0.00  0.00    +0.000 OA
ATOM     16  H   UNL     1       5.145   4.718  20.428  0.00  0.00    +0.000 HD
ENDROOT
BRANCH   1  17
ATOM     17  C   UNL     1       5.106   6.127  16.175  0.00  0.00    +0.000 C 
BRANCH  17  22
ATOM     18  C   UNL     1       6.917   3.236  12.171  0.00  0.00    +0.000 C 
ATOM     19  C   UNL     1       6.754   4.113  13.357  0.00  0.00    +0.000 A 
ATOM     20  N   UNL     1       7.733   4.690  14.021  0.00  0.00    +0.000 NA
ATOM     21  N   UNL     1       7.272   5.452  15.080  0.00  0.00    +0.000 NA
ATOM     22  C   UNL     1       5.959   5.424  15.177  0.00  0.00    +0.000 A 
ATOM     23  S   UNL     1       5.192   4.450  13.977  0.00  0.00    +0.000 S 
ENDBRANCH  17  22
ENDBRANCH   1  17
TORSDOF 2
ENDMDL
MODEL 8
REMARK VINA RESULT:      -6.6      2.437      3.340
REMARK  Name = 
REMARK  7 active torsions:
REMARK  status: ('A' for Active; 'I' for Inactive)
REMARK    1  A    between atoms: C_1  and  C_2
REMARK    2  A    between atoms: C_5  and  C_6
REMARK    3  A    between atoms: C_6  and  N_7
REMARK    4  A    between atoms: C_13  and  C_14
REMARK    5  A    between atoms: C_13  and  C_15
REMARK    6  A    between atoms: C_17  and  C_18
REMARK    7  A    between atoms: C_17  and  C_19
REMARK                            x       y       z     vdW  Elec       q    Type
REMARK                         _______ _______ _______ _____ _____    ______ ____
ROOT
ATOM      1  N   UNL     1       5.421   5.709  17.935  0.00  0.00    +0.000 N 
ATOM      2  C   UNL     1       4.383   6.241  17.242  0.00  0.00    +0.000 C 
ATOM      3  O   UNL     1       4.431   6.933  16.240  0.00  0.00    +0.000 OA
ATOM      4  N   UNL     1       3.213   5.811  17.824  0.00  0.00    +0.000 N 
ATOM      5  C   UNL     1       3.450   4.720  18.750  0.00  0.00    +0.000 C 
ATOM      6  C   UNL     1       2.598   4.804  19.996  0.00  0.00    +0.000 C 
ATOM      7  C   UNL     1       2.159   3.366  20.291  0.00  0.00    +0.000 C 
ATOM      8  C   UNL     1       0.633   3.221  20.289  0.00  0.00    +0.000 C 
ATOM      9  C   UNL     1       2.703   2.872  21.631  0.00  0.00    +0.000 C 
ATOM     10  O   UNL     1       2.675   2.515  19.255  0.00  0.00    +0.000 OA
ATOM     11  C   UNL     1       3.191   3.305  18.165  0.00  0.00    +0.000 C 
ATOM     12  C   UNL     1       2.126   3.298  17.056  0.00  0.00    +0.000 C 
ATOM     13  C   UNL     1       4.417   2.556  17.619  0.00  0.00    +0.000 C 
ATOM     14  C   UNL     1       4.958   4.948  18.974  0.00  0.00    +0.000 C 
ATOM     15  O   UNL     1       5.646   4.414  19.833  0.00  0.00    +0.000 OA
ATOM     16  H   UNL     1       2.328   6.028  17.383  0.00  0.00    +0.000 HD
ENDROOT
BRANCH   1  17
ATOM     17  C   UNL     1       6.800   5.792  17.521  0.00  0.00    +0.000 C 
BRANCH  17  22
ATOM     18  C   UNL     1       9.448   9.980  19.287  0.00  0.00    +0.000 C 
ATOM     19  C   UNL     1       8.604   9.024  18.527  0.00  0.00    +0.000 A 
ATOM     20  N   UNL     1       7.971   9.288  17.404  0.00  0.00    +0.000 NA
ATOM     21  N   UNL     1       7.267   8.196  16.929  0.00  0.00    +0.000 NA
ATOM     22  C   UNL     1       7.396   7.144  17.711  0.00  0.00    +0.000 A 
ATOM     23  S   UNL     1       8.385   7.422  19.097  0.00  0.00    +0.000 S 
ENDBRANCH  17  22
ENDBRANCH   1  17
TORSDOF 2
ENDMDL
MODEL 9
REMARK VINA RESULT:      -6.6      4.434      6.349
REMARK  Name = 
REMARK  7 active torsions:
REMARK  status: ('A' for Active; 'I' for Inactive)
REMARK    1  A    between atoms: C_1  and  C_2
REMARK    2  A    between atoms: C_5  and  C_6
REMARK    3  A    between atoms: C_6  and  N_7
REMARK    4  A    between atoms: C_13  and  C_14
REMARK    5  A    between atoms: C_13  and  C_15
REMARK    6  A    between atoms: C_17  and  C_18
REMARK    7  A    between atoms: C_17  and  C_19
REMARK                            x       y       z     vdW  Elec       q    Type
REMARK                         _______ _______ _______ _____ _____    ______ ____
ROOT
ATOM      1  N   UNL     1       1.964   8.050  18.811  0.00  0.00    +0.000 N 
ATOM      2  C   UNL     1       1.752   7.732  20.113  0.00  0.00    +0.000 C 
ATOM      3  O   UNL     1       0.963   8.243  20.887  0.00  0.00    +0.000 OA
ATOM      4  N   UNL     1       2.550   6.656  20.427  0.00  0.00    +0.000 N 
ATOM      5  C   UNL     1       3.096   6.033  19.236  0.00  0.00    +0.000 C 
ATOM      6  C   UNL     1       4.527   5.577  19.408  0.00  0.00    +0.000 C 
ATOM      7  C   UNL     1       4.615   4.223  18.697  0.00  0.00    +0.000 C 
ATOM      8  C   UNL     1       5.040   3.101  19.652  0.00  0.00    +0.000 C 
ATOM      9  C   UNL     1       5.584   4.265  17.516  0.00  0.00    +0.000 C 
ATOM     10  O   UNL     1       3.309   3.891  18.196  0.00  0.00    +0.000 OA
ATOM     11  C   UNL     1       2.318   4.783  18.744  0.00  0.00    +0.000 C 
ATOM     12  C   UNL     1       1.609   4.028  19.882  0.00  0.00    +0.000 C 
ATOM     13  C   UNL     1       1.276   5.016  17.638  0.00  0.00    +0.000 C 
ATOM     14  C   UNL     1       2.899   7.213  18.264  0.00  0.00    +0.000 C 
ATOM     15  O   UNL     1       3.370   7.302  17.139  0.00  0.00    +0.000 OA
ATOM     16  H   UNL     1       2.456   6.213  21.333  0.00  0.00    +0.000 HD
ENDROOT
BRANCH   1  17
ATOM     17  C   UNL     1       1.184   9.012  18.074  0.00  0.00    +0.000 C 
BRANCH  17  22
ATOM     18  C   UNL     1       1.822  13.998  19.621  0.00  0.00    +0.000 C 
ATOM     19  C   UNL     1       1.919  12.667  18.971  0.00  0.00    +0.000 A 
ATOM     20  N   UNL     1       2.809  12.322  18.065  0.00  0.00    +0.000 NA
ATOM     21  N   UNL     1       2.652  11.013  17.646  0.00  0.00    +0.000 NA
ATOM     22  C   UNL     1       1.648  10.415  18.253  0.00  0.00    +0.000 A 
ATOM     23  S   UNL     1       0.814  11.422  19.379  0.00  0.00    +0.000 S 
ENDBRANCH  17  22
ENDBRANCH   1  17
TORSDOF 2
ENDMDL
