MODEL 1
REMARK VINA RESULT:      -8.2      0.000      0.000
REMARK  Name = 
REMARK  6 active torsions:
REMARK  status: ('A' for Active; 'I' for Inactive)
REMARK    1  A    between atoms: C_1  and  C_2
REMARK    2  A    between atoms: C_2  and  C_3
REMARK    3  A    between atoms: C_2  and  O_4
REMARK    4  A    between atoms: O_4  and  C_5
REMARK    5  A    between atoms: C_13  and  C_14
REMARK    6  A    between atoms: C_17  and  C_18
REMARK                            x       y       z     vdW  Elec       q    Type
REMARK                         _______ _______ _______ _____ _____    ______ ____
ROOT
ATOM      1  C   UNL     1       3.548   4.632  19.394  0.00  0.00    +0.000 A 
ATOM      2  N   UNL     1       4.400   3.861  18.688  0.00  0.00    +0.000 NA
ATOM      3  C   UNL     1       4.876   4.390  17.572  0.00  0.00    +0.000 A 
ATOM      4  N   UNL     1       5.753   3.632  16.827  0.00  0.00    +0.000 N 
ATOM      5  N   UNL     1       4.539   5.581  17.101  0.00  0.00    +0.000 NA
ATOM      6  C   UNL     1       3.701   6.319  17.820  0.00  0.00    +0.000 A 
ATOM      7  N   UNL     1       3.398   7.519  17.322  0.00  0.00    +0.000 NA
ATOM      8  C   UNL     1       2.575   8.317  18.043  0.00  0.00    +0.000 A 
ATOM      9  C   UNL     1       2.035   7.955  19.266  0.00  0.00    +0.000 A 
ATOM     10  N   UNL     1       2.296   6.722  19.763  0.00  0.00    +0.000 NA
ATOM     11  C   UNL     1       3.138   5.911  19.036  0.00  0.00    +0.000 A 
ATOM     12  H   UNL     1       5.625   2.649  17.016  0.00  0.00    +0.000 HD
ATOM     13  H   UNL     1       5.740   3.928  15.860  0.00  0.00    +0.000 HD
ENDROOT
BRANCH   9  14
ATOM     14  C   UNL     1       1.192   8.854  20.081  0.00  0.00    +0.000 A 
ATOM     15  C   UNL     1       1.019   8.635  21.458  0.00  0.00    +0.000 A 
ATOM     16  C   UNL     1       0.218   9.477  22.241  0.00  0.00    +0.000 A 
ATOM     17  C   UNL     1      -0.433  10.577  21.669  0.00  0.00    +0.000 A 
ATOM     18  C   UNL     1      -0.264  10.816  20.301  0.00  0.00    +0.000 A 
ATOM     19  C   UNL     1       0.537   9.970  19.523  0.00  0.00    +0.000 A 
BRANCH  17  20
ATOM     20  C   UNL     1      -1.295  11.500  22.495  0.00  0.00    +0.000 C 
ATOM     21  F   UNL     1      -2.335  12.043  21.804  0.00  0.00    +0.000 F 
ATOM     22  F   UNL     1      -1.848  10.872  23.570  0.00  0.00    +0.000 F 
ATOM     23  F   UNL     1      -0.594  12.553  23.000  0.00  0.00    +0.000 F 
ENDBRANCH  17  20
ENDBRANCH   9  14
BRANCH   1  24
ATOM     24  O   UNL     1       2.982   4.080  20.533  0.00  0.00    +0.000 OA
BRANCH  24  26
ATOM     25  C   UNL     1       1.585   2.528  21.662  0.00  0.00    +0.000 C 
ATOM     26  C   UNL     1       2.186   2.905  20.308  0.00  0.00    +0.000 C 
ATOM     27  C   UNL     1       1.058   3.176  19.313  0.00  0.00    +0.000 C 
ENDBRANCH  24  26
ENDBRANCH   1  24
TORSDOF 4
ENDMDL
MODEL 2
REMARK VINA RESULT:      -8.2      0.267      1.253
REMARK  Name = 
REMARK  6 active torsions:
REMARK  status: ('A' for Active; 'I' for Inactive)
REMARK    1  A    between atoms: C_1  and  C_2
REMARK    2  A    between atoms: C_2  and  C_3
REMARK    3  A    between atoms: C_2  and  O_4
REMARK    4  A    between atoms: O_4  and  C_5
REMARK    5  A    between atoms: C_13  and  C_14
REMARK    6  A    between atoms: C_17  and  C_18
REMARK                            x       y       z     vdW  Elec       q    Type
REMARK                         _______ _______ _______ _____ _____    ______ ____
ROOT
ATOM      1  C   UNL     1       3.441   4.812  19.532  0.00  0.00    +0.000 A 
ATOM      2  N   UNL     1       4.304   4.047  18.834  0.00  0.00    +0.000 NA
ATOM      3  C   UNL     1       4.789   4.581  17.724  0.00  0.00    +0.000 A 
ATOM      4  N   UNL     1       5.678   3.830  16.987  0.00  0.00    +0.000 N 
ATOM      5  N   UNL     1       4.451   5.772  17.253  0.00  0.00    +0.000 NA
ATOM      6  C   UNL     1       3.602   6.504  17.965  0.00  0.00    +0.000 A 
ATOM      7  N   UNL     1       3.298   7.703  17.466  0.00  0.00    +0.000 NA
ATOM      8  C   UNL     1       2.463   8.495  18.180  0.00  0.00    +0.000 A 
ATOM      9  C   UNL     1       1.912   8.128  19.396  0.00  0.00    +0.000 A 
ATOM     10  N   UNL     1       2.174   6.895  19.893  0.00  0.00    +0.000 NA
ATOM     11  C   UNL     1       3.028   6.090  19.173  0.00  0.00    +0.000 A 
ATOM     12  H   UNL     1       5.553   2.845  17.172  0.00  0.00    +0.000 HD
ATOM     13  H   UNL     1       5.674   4.127  16.021  0.00  0.00    +0.000 HD
ENDROOT
BRANCH   9  14
ATOM     14  C   UNL     1       1.056   9.020  20.204  0.00  0.00    +0.000 A 
ATOM     15  C   UNL     1       0.520  10.200  19.661  0.00  0.00    +0.000 A 
ATOM     16  C   UNL     1      -0.289  11.057  20.419  0.00  0.00    +0.000 A 
ATOM     17  C   UNL     1      -0.596  10.755  21.751  0.00  0.00    +0.000 A 
ATOM     18  C   UNL     1      -0.080   9.579  22.306  0.00  0.00    +0.000 A 
ATOM     19  C   UNL     1       0.729   8.726  21.543  0.00  0.00    +0.000 A 
BRANCH  17  20
ATOM     20  C   UNL     1      -1.471  11.661  22.584  0.00  0.00    +0.000 C 
ATOM     21  F   UNL     1      -0.798  12.697  23.156  0.00  0.00    +0.000 F 
ATOM     22  F   UNL     1      -2.477  12.223  21.858  0.00  0.00    +0.000 F 
ATOM     23  F   UNL     1      -2.076  10.999  23.609  0.00  0.00    +0.000 F 
ENDBRANCH  17  20
ENDBRANCH   9  14
BRANCH   1  24
ATOM     24  O   UNL     1       2.865   4.254  20.664  0.00  0.00    +0.000 OA
BRANCH  24  26
ATOM     25  C   UNL     1       1.787   2.484  21.822  0.00  0.00    +0.000 C 
ATOM     26  C   UNL     1       2.143   3.032  20.440  0.00  0.00    +0.000 C 
ATOM     27  C   UNL     1       0.860   3.278  19.648  0.00  0.00    +0.000 C 
ENDBRANCH  24  26
ENDBRANCH   1  24
TORSDOF 4
ENDMDL
MODEL 3
REMARK VINA RESULT:      -8.0      2.382      3.994
REMARK  Name = 
REMARK  6 active torsions:
REMARK  status: ('A' for Active; 'I' for Inactive)
REMARK    1  A    between atoms: C_1  and  C_2
REMARK    2  A    between atoms: C_2  and  C_3
REMARK    3  A    between atoms: C_2  and  O_4
REMARK    4  A    between atoms: O_4  and  C_5
REMARK    5  A    between atoms: C_13  and  C_14
REMARK    6  A    between atoms: C_17  and  C_18
REMARK                            x       y       z     vdW  Elec       q    Type
REMARK                         _______ _______ _______ _____ _____    ______ ____
ROOT
ATOM      1  C   UNL     1       3.987   3.993  17.543  0.00  0.00    +0.000 A 
ATOM      2  N   UNL     1       4.222   2.666  17.585  0.00  0.00    +0.000 NA
ATOM      3  C   UNL     1       3.698   2.014  18.612  0.00  0.00    +0.000 A 
ATOM      4  N   UNL     1       3.914   0.656  18.684  0.00  0.00    +0.000 N 
ATOM      5  N   UNL     1       3.014   2.583  19.593  0.00  0.00    +0.000 NA
ATOM      6  C   UNL     1       2.795   3.891  19.522  0.00  0.00    +0.000 A 
ATOM      7  N   UNL     1       2.089   4.424  20.520  0.00  0.00    +0.000 NA
ATOM      8  C   UNL     1       1.813   5.748  20.467  0.00  0.00    +0.000 A 
ATOM      9  C   UNL     1       2.223   6.575  19.434  0.00  0.00    +0.000 A 
ATOM     10  N   UNL     1       2.981   6.058  18.437  0.00  0.00    +0.000 NA
ATOM     11  C   UNL     1       3.257   4.710  18.485  0.00  0.00    +0.000 A 
ATOM     12  H   UNL     1       4.745   0.398  18.173  0.00  0.00    +0.000 HD
ATOM     13  H   UNL     1       3.836   0.338  19.641  0.00  0.00    +0.000 HD
ENDROOT
BRANCH   9  14
ATOM     14  C   UNL     1       1.864   8.006  19.345  0.00  0.00    +0.000 A 
ATOM     15  C   UNL     1       2.113   8.745  18.177  0.00  0.00    +0.000 A 
ATOM     16  C   UNL     1       1.782  10.103  18.081  0.00  0.00    +0.000 A 
ATOM     17  C   UNL     1       1.180  10.767  19.157  0.00  0.00    +0.000 A 
ATOM     18  C   UNL     1       0.916  10.045  20.325  0.00  0.00    +0.000 A 
ATOM     19  C   UNL     1       1.250   8.687  20.415  0.00  0.00    +0.000 A 
BRANCH  17  20
ATOM     20  C   UNL     1       0.809  12.228  19.073  0.00  0.00    +0.000 C 
ATOM     21  F   UNL     1      -0.521  12.446  18.880  0.00  0.00    +0.000 F 
ATOM     22  F   UNL     1       1.140  12.914  20.203  0.00  0.00    +0.000 F 
ATOM     23  F   UNL     1       1.443  12.867  18.051  0.00  0.00    +0.000 F 
ENDBRANCH  17  20
ENDBRANCH   9  14
BRANCH   1  24
ATOM     24  O   UNL     1       4.578   4.714  16.516  0.00  0.00    +0.000 OA
BRANCH  24  26
ATOM     25  C   UNL     1       5.673   4.400  14.433  0.00  0.00    +0.000 C 
ATOM     26  C   UNL     1       5.737   4.099  15.930  0.00  0.00    +0.000 C 
ATOM     27  C   UNL     1       7.029   4.678  16.507  0.00  0.00    +0.000 C 
ENDBRANCH  24  26
ENDBRANCH   1  24
TORSDOF 4
ENDMDL
MODEL 4
REMARK VINA RESULT:      -8.0      2.358      3.943
REMARK  Name = 
REMARK  6 active torsions:
REMARK  status: ('A' for Active; 'I' for Inactive)
REMARK    1  A    between atoms: C_1  and  C_2
REMARK    2  A    between atoms: C_2  and  C_3
REMARK    3  A    between atoms: C_2  and  O_4
REMARK    4  A    between atoms: O_4  and  C_5
REMARK    5  A    between atoms: C_13  and  C_14
REMARK    6  A    between atoms: C_17  and  C_18
REMARK                            x       y       z     vdW  Elec       q    Type
REMARK                         _______ _______ _______ _____ _____    ______ ____
ROOT
ATOM      1  C   UNL     1       4.003   3.977  17.533  0.00  0.00    +0.000 A 
ATOM      2  N   UNL     1       4.258   2.654  17.567  0.00  0.00    +0.000 NA
ATOM      3  C   UNL     1       3.757   1.991  18.599  0.00  0.00    +0.000 A 
ATOM      4  N   UNL     1       3.994   0.636  18.664  0.00  0.00    +0.000 N 
ATOM      5  N   UNL     1       3.078   2.546  19.591  0.00  0.00    +0.000 NA
ATOM      6  C   UNL     1       2.840   3.851  19.528  0.00  0.00    +0.000 A 
ATOM      7  N   UNL     1       2.140   4.371  20.537  0.00  0.00    +0.000 NA
ATOM      8  C   UNL     1       1.845   5.691  20.492  0.00  0.00    +0.000 A 
ATOM      9  C   UNL     1       2.229   6.527  19.457  0.00  0.00    +0.000 A 
ATOM     10  N   UNL     1       2.980   6.024  18.448  0.00  0.00    +0.000 NA
ATOM     11  C   UNL     1       3.276   4.680  18.487  0.00  0.00    +0.000 A 
ATOM     12  H   UNL     1       4.822   0.391  18.141  0.00  0.00    +0.000 HD
ATOM     13  H   UNL     1       3.934   0.314  19.621  0.00  0.00    +0.000 HD
ENDROOT
BRANCH   9  14
ATOM     14  C   UNL     1       1.848   7.953  19.377  0.00  0.00    +0.000 A 
ATOM     15  C   UNL     1       1.267   8.611  20.474  0.00  0.00    +0.000 A 
ATOM     16  C   UNL     1       0.897   9.961  20.410  0.00  0.00    +0.000 A 
ATOM     17  C   UNL     1       1.104  10.702  19.240  0.00  0.00    +0.000 A 
ATOM     18  C   UNL     1       1.690  10.065  18.140  0.00  0.00    +0.000 A 
ATOM     19  C   UNL     1       2.058   8.715  18.211  0.00  0.00    +0.000 A 
BRANCH  17  20
ATOM     20  C   UNL     1       0.718  12.159  19.151  0.00  0.00    +0.000 C 
ATOM     21  F   UNL     1       0.187  12.656  20.302  0.00  0.00    +0.000 F 
ATOM     22  F   UNL     1       1.778  12.960  18.851  0.00  0.00    +0.000 F 
ATOM     23  F   UNL     1      -0.210  12.392  18.182  0.00  0.00    +0.000 F 
ENDBRANCH  17  20
ENDBRANCH   9  14
BRANCH   1  24
ATOM     24  O   UNL     1       4.570   4.709  16.500  0.00  0.00    +0.000 OA
BRANCH  24  26
ATOM     25  C   UNL     1       5.602   4.413  14.383  0.00  0.00    +0.000 C 
ATOM     26  C   UNL     1       5.709   4.098  15.875  0.00  0.00    +0.000 C 
ATOM     27  C   UNL     1       7.019   4.668  16.419  0.00  0.00    +0.000 C 
ENDBRANCH  24  26
ENDBRANCH   1  24
TORSDOF 4
ENDMDL
MODEL 5
REMARK VINA RESULT:      -7.9      2.260      3.821
REMARK  Name = 
REMARK  6 active torsions:
REMARK  status: ('A' for Active; 'I' for Inactive)
REMARK    1  A    between atoms: C_1  and  C_2
REMARK    2  A    between atoms: C_2  and  C_3
REMARK    3  A    between atoms: C_2  and  O_4
REMARK    4  A    between atoms: O_4  and  C_5
REMARK    5  A    between atoms: C_13  and  C_14
REMARK    6  A    between atoms: C_17  and  C_18
REMARK                            x       y       z     vdW  Elec       q    Type
REMARK                         _______ _______ _______ _____ _____    ______ ____
ROOT
ATOM      1  C   UNL     1       4.903   4.616  18.800  0.00  0.00    +0.000 A 
ATOM      2  N   UNL     1       5.311   3.344  18.979  0.00  0.00    +0.000 NA
ATOM      3  C   UNL     1       4.567   2.602  19.785  0.00  0.00    +0.000 A 
ATOM      4  N   UNL     1       4.951   1.295  19.988  0.00  0.00    +0.000 N 
ATOM      5  N   UNL     1       3.501   3.039  20.439  0.00  0.00    +0.000 NA
ATOM      6  C   UNL     1       3.121   4.296  20.239  0.00  0.00    +0.000 A 
ATOM      7  N   UNL     1       2.035   4.694  20.902  0.00  0.00    +0.000 NA
ATOM      8  C   UNL     1       1.594   5.958  20.698  0.00  0.00    +0.000 A 
ATOM      9  C   UNL     1       2.208   6.855  19.839  0.00  0.00    +0.000 A 
ATOM     10  N   UNL     1       3.339   6.480  19.194  0.00  0.00    +0.000 NA
ATOM     11  C   UNL     1       3.786   5.193  19.394  0.00  0.00    +0.000 A 
ATOM     12  H   UNL     1       5.939   1.181  19.812  0.00  0.00    +0.000 HD
ATOM     13  H   UNL     1       4.592   0.956  20.870  0.00  0.00    +0.000 HD
ENDROOT
BRANCH   9  14
ATOM     14  C   UNL     1       1.686   8.210  19.568  0.00  0.00    +0.000 A 
ATOM     15  C   UNL     1       0.974   8.923  20.546  0.00  0.00    +0.000 A 
ATOM     16  C   UNL     1       0.469  10.207  20.299  0.00  0.00    +0.000 A 
ATOM     17  C   UNL     1       0.670  10.825  19.059  0.00  0.00    +0.000 A 
ATOM     18  C   UNL     1       1.385  10.134  18.075  0.00  0.00    +0.000 A 
ATOM     19  C   UNL     1       1.887   8.850  18.328  0.00  0.00    +0.000 A 
BRANCH  17  20
ATOM     20  C   UNL     1       0.140  12.209  18.774  0.00  0.00    +0.000 C 
ATOM     21  F   UNL     1       1.033  13.018  18.139  0.00  0.00    +0.000 F 
ATOM     22  F   UNL     1      -0.971  12.189  17.986  0.00  0.00    +0.000 F 
ATOM     23  F   UNL     1      -0.221  12.871  19.908  0.00  0.00    +0.000 F 
ENDBRANCH  17  20
ENDBRANCH   9  14
BRANCH   1  24
ATOM     24  O   UNL     1       5.698   5.437  18.014  0.00  0.00    +0.000 OA
BRANCH  24  26
ATOM     25  C   UNL     1       5.126   6.504  15.972  0.00  0.00    +0.000 C 
ATOM     26  C   UNL     1       5.609   5.197  16.600  0.00  0.00    +0.000 C 
ATOM     27  C   UNL     1       6.968   4.824  16.008  0.00  0.00    +0.000 C 
ENDBRANCH  24  26
ENDBRANCH   1  24
TORSDOF 4
ENDMDL
MODEL 6
REMARK VINA RESULT:      -7.9      2.309      3.734
REMARK  Name = 
REMARK  6 active torsions:
REMARK  status: ('A' for Active; 'I' for Inactive)
REMARK    1  A    between atoms: C_1  and  C_2
REMARK    2  A    between atoms: C_2  and  C_3
REMARK    3  A    between atoms: C_2  and  O_4
REMARK    4  A    between atoms: O_4  and  C_5
REMARK    5  A    between atoms: C_13  and  C_14
REMARK    6  A    between atoms: C_17  and  C_18
REMARK                            x       y       z     vdW  Elec       q    Type
REMARK                         _______ _______ _______ _____ _____    ______ ____
ROOT
ATOM      1  C   UNL     1       5.727   6.327  16.792  0.00  0.00    +0.000 A 
ATOM      2  N   UNL     1       6.337   5.383  16.047  0.00  0.00    +0.000 NA
ATOM      3  C   UNL     1       5.693   4.231  15.927  0.00  0.00    +0.000 A 
ATOM      4  N   UNL     1       6.284   3.245  15.168  0.00  0.00    +0.000 N 
ATOM      5  N   UNL     1       4.541   3.949  16.516  0.00  0.00    +0.000 NA
ATOM      6  C   UNL     1       3.964   4.900  17.241  0.00  0.00    +0.000 A 
ATOM      7  N   UNL     1       2.798   4.583  17.805  0.00  0.00    +0.000 NA
ATOM      8  C   UNL     1       2.159   5.537  18.522  0.00  0.00    +0.000 A 
ATOM      9  C   UNL     1       2.650   6.820  18.700  0.00  0.00    +0.000 A 
ATOM     10  N   UNL     1       3.855   7.143  18.172  0.00  0.00    +0.000 NA
ATOM     11  C   UNL     1       4.504   6.177  17.435  0.00  0.00    +0.000 A 
ATOM     12  H   UNL     1       7.283   3.380  15.121  0.00  0.00    +0.000 HD
ATOM     13  H   UNL     1       5.948   2.335  15.452  0.00  0.00    +0.000 HD
ENDROOT
BRANCH   9  14
ATOM     14  C   UNL     1       1.919   7.879  19.427  0.00  0.00    +0.000 A 
ATOM     15  C   UNL     1       1.598   7.736  20.786  0.00  0.00    +0.000 A 
ATOM     16  C   UNL     1       0.901   8.730  21.486  0.00  0.00    +0.000 A 
ATOM     17  C   UNL     1       0.507   9.911  20.843  0.00  0.00    +0.000 A 
ATOM     18  C   UNL     1       0.827  10.074  19.491  0.00  0.00    +0.000 A 
ATOM     19  C   UNL     1       1.524   9.076  18.798  0.00  0.00    +0.000 A 
BRANCH  17  20
ATOM     20  C   UNL     1      -0.240  10.997  21.579  0.00  0.00    +0.000 C 
ATOM     21  F   UNL     1       0.424  12.185  21.621  0.00  0.00    +0.000 F 
ATOM     22  F   UNL     1      -1.452  11.265  21.019  0.00  0.00    +0.000 F 
ATOM     23  F   UNL     1      -0.494  10.666  22.875  0.00  0.00    +0.000 F 
ENDBRANCH  17  20
ENDBRANCH   9  14
BRANCH   1  24
ATOM     24  O   UNL     1       6.407   7.520  16.991  0.00  0.00    +0.000 OA
BRANCH  24  26
ATOM     25  C   UNL     1       8.192   8.783  17.914  0.00  0.00    +0.000 C 
ATOM     26  C   UNL     1       7.742   7.381  17.504  0.00  0.00    +0.000 C 
ATOM     27  C   UNL     1       7.780   6.461  18.724  0.00  0.00    +0.000 C 
ENDBRANCH  24  26
ENDBRANCH   1  24
TORSDOF 4
ENDMDL
MODEL 7
REMARK VINA RESULT:      -7.9      2.261      3.869
REMARK  Name = 
REMARK  6 active torsions:
REMARK  status: ('A' for Active; 'I' for Inactive)
REMARK    1  A    between atoms: C_1  and  C_2
REMARK    2  A    between atoms: C_2  and  C_3
REMARK    3  A    between atoms: C_2  and  O_4
REMARK    4  A    between atoms: O_4  and  C_5
REMARK    5  A    between atoms: C_13  and  C_14
REMARK    6  A    between atoms: C_17  and  C_18
REMARK                            x       y       z     vdW  Elec       q    Type
REMARK                         _______ _______ _______ _____ _____    ______ ____
ROOT
ATOM      1  C   UNL     1       4.903   4.605  18.806  0.00  0.00    +0.000 A 
ATOM      2  N   UNL     1       5.313   3.333  18.980  0.00  0.00    +0.000 NA
ATOM      3  C   UNL     1       4.572   2.588  19.787  0.00  0.00    +0.000 A 
ATOM      4  N   UNL     1       4.959   1.280  19.984  0.00  0.00    +0.000 N 
ATOM      5  N   UNL     1       3.509   3.022  20.446  0.00  0.00    +0.000 NA
ATOM      6  C   UNL     1       3.128   4.279  20.251  0.00  0.00    +0.000 A 
ATOM      7  N   UNL     1       2.044   4.675  20.920  0.00  0.00    +0.000 NA
ATOM      8  C   UNL     1       1.601   5.939  20.721  0.00  0.00    +0.000 A 
ATOM      9  C   UNL     1       2.211   6.838  19.863  0.00  0.00    +0.000 A 
ATOM     10  N   UNL     1       3.339   6.466  19.212  0.00  0.00    +0.000 NA
ATOM     11  C   UNL     1       3.788   5.179  19.406  0.00  0.00    +0.000 A 
ATOM     12  H   UNL     1       5.945   1.167  19.804  0.00  0.00    +0.000 HD
ATOM     13  H   UNL     1       4.603   0.938  20.867  0.00  0.00    +0.000 HD
ENDROOT
BRANCH   9  14
ATOM     14  C   UNL     1       1.687   8.194  19.597  0.00  0.00    +0.000 A 
ATOM     15  C   UNL     1       1.880   8.815  18.352  0.00  0.00    +0.000 A 
ATOM     16  C   UNL     1       1.392  10.102  18.089  0.00  0.00    +0.000 A 
ATOM     17  C   UNL     1       0.684  10.810  19.068  0.00  0.00    +0.000 A 
ATOM     18  C   UNL     1       0.474  10.204  20.311  0.00  0.00    +0.000 A 
ATOM     19  C   UNL     1       0.965   8.916  20.568  0.00  0.00    +0.000 A 
BRANCH  17  20
ATOM     20  C   UNL     1       0.145  12.195  18.804  0.00  0.00    +0.000 C 
ATOM     21  F   UNL     1      -0.998  12.207  18.063  0.00  0.00    +0.000 F 
ATOM     22  F   UNL     1      -0.148  12.867  19.953  0.00  0.00    +0.000 F 
ATOM     23  F   UNL     1       1.033  12.979  18.131  0.00  0.00    +0.000 F 
ENDBRANCH  17  20
ENDBRANCH   9  14
BRANCH   1  24
ATOM     24  O   UNL     1       5.695   5.428  18.019  0.00  0.00    +0.000 OA
BRANCH  24  26
ATOM     25  C   UNL     1       5.197   6.395  15.909  0.00  0.00    +0.000 C 
ATOM     26  C   UNL     1       5.678   5.127  16.615  0.00  0.00    +0.000 C 
ATOM     27  C   UNL     1       7.071   4.762  16.104  0.00  0.00    +0.000 C 
ENDBRANCH  24  26
ENDBRANCH   1  24
TORSDOF 4
ENDMDL
MODEL 8
REMARK VINA RESULT:      -7.9      2.301      3.794
REMARK  Name = 
REMARK  6 active torsions:
REMARK  status: ('A' for Active; 'I' for Inactive)
REMARK    1  A    between atoms: C_1  and  C_2
REMARK    2  A    between atoms: C_2  and  C_3
REMARK    3  A    between atoms: C_2  and  O_4
REMARK    4  A    between atoms: O_4  and  C_5
REMARK    5  A    between atoms: C_13  and  C_14
REMARK    6  A    between atoms: C_17  and  C_18
REMARK                            x       y       z     vdW  Elec       q    Type
REMARK                         _______ _______ _______ _____ _____    ______ ____
ROOT
ATOM      1  C   UNL     1       5.721   6.323  16.807  0.00  0.00    +0.000 A 
ATOM      2  N   UNL     1       6.332   5.370  16.074  0.00  0.00    +0.000 NA
ATOM      3  C   UNL     1       5.695   4.213  15.975  0.00  0.00    +0.000 A 
ATOM      4  N   UNL     1       6.287   3.218  15.230  0.00  0.00    +0.000 N 
ATOM      5  N   UNL     1       4.547   3.935  16.573  0.00  0.00    +0.000 NA
ATOM      6  C   UNL     1       3.967   4.894  17.285  0.00  0.00    +0.000 A 
ATOM      7  N   UNL     1       2.804   4.580  17.858  0.00  0.00    +0.000 NA
ATOM      8  C   UNL     1       2.164   5.542  18.563  0.00  0.00    +0.000 A 
ATOM      9  C   UNL     1       2.648   6.830  18.718  0.00  0.00    +0.000 A 
ATOM     10  N   UNL     1       3.850   7.151  18.180  0.00  0.00    +0.000 NA
ATOM     11  C   UNL     1       4.501   6.177  17.457  0.00  0.00    +0.000 A 
ATOM     12  H   UNL     1       7.286   3.357  15.177  0.00  0.00    +0.000 HD
ATOM     13  H   UNL     1       5.958   2.311  15.530  0.00  0.00    +0.000 HD
ENDROOT
BRANCH   9  14
ATOM     14  C   UNL     1       1.914   7.897  19.431  0.00  0.00    +0.000 A 
ATOM     15  C   UNL     1       1.499   9.061  18.764  0.00  0.00    +0.000 A 
ATOM     16  C   UNL     1       0.806  10.081  19.430  0.00  0.00    +0.000 A 
ATOM     17  C   UNL     1       0.500   9.965  20.791  0.00  0.00    +0.000 A 
ATOM     18  C   UNL     1       0.898   8.808  21.469  0.00  0.00    +0.000 A 
ATOM     19  C   UNL     1       1.590   7.791  20.798  0.00  0.00    +0.000 A 
BRANCH  17  20
ATOM     20  C   UNL     1      -0.250  11.049  21.526  0.00  0.00    +0.000 C 
ATOM     21  F   UNL     1      -1.458  11.351  20.974  0.00  0.00    +0.000 F 
ATOM     22  F   UNL     1      -0.504  10.718  22.823  0.00  0.00    +0.000 F 
ATOM     23  F   UNL     1       0.443  12.221  21.570  0.00  0.00    +0.000 F 
ENDBRANCH  17  20
ENDBRANCH   9  14
BRANCH   1  24
ATOM     24  O   UNL     1       6.395   7.522  16.983  0.00  0.00    +0.000 OA
BRANCH  24  26
ATOM     25  C   UNL     1       8.161   8.802  17.921  0.00  0.00    +0.000 C 
ATOM     26  C   UNL     1       7.733   7.399  17.493  0.00  0.00    +0.000 C 
ATOM     27  C   UNL     1       7.787   6.464  18.701  0.00  0.00    +0.000 C 
ENDBRANCH  24  26
ENDBRANCH   1  24
TORSDOF 4
ENDMDL
MODEL 9
REMARK VINA RESULT:      -7.9      2.359      3.847
REMARK  Name = 
REMARK  6 active torsions:
REMARK  status: ('A' for Active; 'I' for Inactive)
REMARK    1  A    between atoms: C_1  and  C_2
REMARK    2  A    between atoms: C_2  and  C_3
REMARK    3  A    between atoms: C_2  and  O_4
REMARK    4  A    between atoms: O_4  and  C_5
REMARK    5  A    between atoms: C_13  and  C_14
REMARK    6  A    between atoms: C_17  and  C_18
REMARK                            x       y       z     vdW  Elec       q    Type
REMARK                         _______ _______ _______ _____ _____    ______ ____
ROOT
ATOM      1  C   UNL     1       4.863   4.699  18.895  0.00  0.00    +0.000 A 
ATOM      2  N   UNL     1       5.272   3.426  19.069  0.00  0.00    +0.000 NA
ATOM      3  C   UNL     1       4.506   2.669  19.840  0.00  0.00    +0.000 A 
ATOM      4  N   UNL     1       4.891   1.361  20.037  0.00  0.00    +0.000 N 
ATOM      5  N   UNL     1       3.418   3.092  20.466  0.00  0.00    +0.000 NA
ATOM      6  C   UNL     1       3.038   4.349  20.272  0.00  0.00    +0.000 A 
ATOM      7  N   UNL     1       1.929   4.733  20.906  0.00  0.00    +0.000 NA
ATOM      8  C   UNL     1       1.489   5.998  20.706  0.00  0.00    +0.000 A 
ATOM      9  C   UNL     1       2.125   6.909  19.880  0.00  0.00    +0.000 A 
ATOM     10  N   UNL     1       3.278   6.549  19.265  0.00  0.00    +0.000 NA
ATOM     11  C   UNL     1       3.725   5.261  19.461  0.00  0.00    +0.000 A 
ATOM     12  H   UNL     1       5.884   1.254  19.891  0.00  0.00    +0.000 HD
ATOM     13  H   UNL     1       4.505   1.007  20.902  0.00  0.00    +0.000 HD
ENDROOT
BRANCH   9  14
ATOM     14  C   UNL     1       1.605   8.266  19.611  0.00  0.00    +0.000 A 
ATOM     15  C   UNL     1       0.858   8.961  20.576  0.00  0.00    +0.000 A 
ATOM     16  C   UNL     1       0.355  10.246  20.331  0.00  0.00    +0.000 A 
ATOM     17  C   UNL     1       0.592  10.883  19.107  0.00  0.00    +0.000 A 
ATOM     18  C   UNL     1       1.342  10.209  18.137  0.00  0.00    +0.000 A 
ATOM     19  C   UNL     1       1.842   8.925  18.388  0.00  0.00    +0.000 A 
BRANCH  17  20
ATOM     20  C   UNL     1       0.064  12.269  18.824  0.00  0.00    +0.000 C 
ATOM     21  F   UNL     1      -1.090  12.279  18.101  0.00  0.00    +0.000 F 
ATOM     22  F   UNL     1      -0.203  12.966  19.964  0.00  0.00    +0.000 F 
ATOM     23  F   UNL     1       0.950  13.029  18.122  0.00  0.00    +0.000 F 
ENDBRANCH  17  20
ENDBRANCH   9  14
BRANCH   1  24
ATOM     24  O   UNL     1       5.679   5.534  18.146  0.00  0.00    +0.000 OA
BRANCH  24  26
ATOM     25  C   UNL     1       7.481   4.734  16.824  0.00  0.00    +0.000 C 
ATOM     26  C   UNL     1       7.082   5.233  18.212  0.00  0.00    +0.000 C 
ATOM     27  C   UNL     1       7.905   6.473  18.559  0.00  0.00    +0.000 C 
ENDBRANCH  24  26
ENDBRANCH   1  24
TORSDOF 4
ENDMDL
