MODEL 1
REMARK VINA RESULT:      -7.5      0.000      0.000
REMARK  Name = 
REMARK  8 active torsions:
REMARK  status: ('A' for Active; 'I' for Inactive)
REMARK    1  A    between atoms: C_1  and  C_2
REMARK    2  A    between atoms: N_4  and  C_5
REMARK    3  A    between atoms: C_5  and  C_6
REMARK    4  A    between atoms: C_10  and  C_11
REMARK    5  A    between atoms: C_10  and  C_12
REMARK    6  A    between atoms: C_21  and  C_22
REMARK    7  A    between atoms: C_26  and  C_27
REMARK    8  A    between atoms: C_27  and  N_28
REMARK                            x       y       z     vdW  Elec       q    Type
REMARK                         _______ _______ _______ _____ _____    ______ ____
ROOT
ATOM      1  C   UNL     1      -0.325  14.055  22.426  0.00  0.00    +0.000 C 
ATOM      2  O   UNL     1       0.390  15.049  22.558  0.00  0.00    +0.000 OA
ATOM      3  N   UNL     1      -0.195  13.149  21.369  0.00  0.00    +0.000 N 
ATOM      4  C   UNL     1      -1.132  12.040  21.091  0.00  0.00    +0.000 C 
ATOM      5  C   UNL     1      -0.548  11.185  19.929  0.00  0.00    +0.000 C 
ATOM      6  C   UNL     1      -0.009   9.870  20.535  0.00  0.00    +0.000 C 
ATOM      7  C   UNL     1       0.638  12.046  19.519  0.00  0.00    +0.000 A 
ATOM      8  C   UNL     1       1.527  11.803  18.475  0.00  0.00    +0.000 A 
ATOM      9  C   UNL     1       2.588  12.688  18.280  0.00  0.00    +0.000 A 
ATOM     10  C   UNL     1       2.756  13.799  19.127  0.00  0.00    +0.000 A 
ATOM     11  C   UNL     1       1.858  14.031  20.184  0.00  0.00    +0.000 A 
ATOM     12  C   UNL     1       0.803  13.147  20.370  0.00  0.00    +0.000 A 
ENDROOT
BRANCH   5  13
ATOM     13  C   UNL     1      -1.574  10.983  18.804  0.00  0.00    +0.000 A 
ATOM     14  C   UNL     1      -2.787  11.703  18.801  0.00  0.00    +0.000 A 
ATOM     15  C   UNL     1      -3.734  11.528  17.787  0.00  0.00    +0.000 A 
ATOM     16  C   UNL     1      -3.495  10.630  16.752  0.00  0.00    +0.000 A 
ATOM     17  C   UNL     1      -2.309   9.905  16.733  0.00  0.00    +0.000 A 
ATOM     18  C   UNL     1      -1.361  10.081  17.746  0.00  0.00    +0.000 A 
ENDBRANCH   5  13
BRANCH  10  19
ATOM     19  C   UNL     1       3.860  14.693  18.908  0.00  0.00    +0.000 C 
ATOM     20  N   UNL     1       4.764  15.398  18.738  0.00  0.00    +0.000 NA
ENDBRANCH  10  19
BRANCH   1  21
ATOM     21  C   UNL     1      -1.433  13.661  23.446  0.00  0.00    +0.000 C 
BRANCH  21  25
ATOM     22  C   UNL     1      -2.945  17.548  24.779  0.00  0.00    +0.000 C 
ATOM     23  C   UNL     1      -3.612  16.254  25.262  0.00  0.00    +0.000 C 
ATOM     24  C   UNL     1      -2.644  15.044  25.113  0.00  0.00    +0.000 C 
ATOM     25  N   UNL     1      -2.471  14.674  23.698  0.00  0.00    +0.000 NA
ATOM     26  C   UNL     1      -3.799  14.326  23.085  0.00  0.00    +0.000 C 
ATOM     27  C   UNL     1      -4.728  15.568  23.205  0.00  0.00    +0.000 C 
ATOM     28  N   UNL     1      -4.916  16.056  24.585  0.00  0.00    +0.000 NA
ATOM     29  H   UNL     1      -5.456  15.371  25.110  0.00  0.00    +0.000 HD
BRANCH  26  30
ATOM     30  C   UNL     1      -4.486  13.063  23.673  0.00  0.00    +0.000 C 
BRANCH  30  31
ATOM     31  N   UNL     1      -5.804  12.770  23.132  0.00  0.00    +0.000 N 
ATOM     32  C   UNL     1      -6.982  12.741  23.826  0.00  0.00    +0.000 A 
ATOM     33  C   UNL     1      -7.916  12.201  22.975  0.00  0.00    +0.000 A 
ATOM     34  C   UNL     1      -7.216  11.980  21.778  0.00  0.00    +0.000 A 
ATOM     35  N   UNL     1      -5.927  12.322  21.867  0.00  0.00    +0.000 NA
ENDBRANCH  30  31
ENDBRANCH  26  30
ENDBRANCH  21  25
ENDBRANCH   1  21
TORSDOF 6
ENDMDL
MODEL 2
REMARK VINA RESULT:      -7.4      5.489     10.214
REMARK  Name = 
REMARK  8 active torsions:
REMARK  status: ('A' for Active; 'I' for Inactive)
REMARK    1  A    between atoms: C_1  and  C_2
REMARK    2  A    between atoms: N_4  and  C_5
REMARK    3  A    between atoms: C_5  and  C_6
REMARK    4  A    between atoms: C_10  and  C_11
REMARK    5  A    between atoms: C_10  and  C_12
REMARK    6  A    between atoms: C_21  and  C_22
REMARK    7  A    between atoms: C_26  and  C_27
REMARK    8  A    between atoms: C_27  and  N_28
REMARK                            x       y       z     vdW  Elec       q    Type
REMARK                         _______ _______ _______ _____ _____    ______ ____
ROOT
ATOM      1  C   UNL     1       1.313   8.325  18.600  0.00  0.00    +0.000 C 
ATOM      2  O   UNL     1       1.070   7.903  17.470  0.00  0.00    +0.000 OA
ATOM      3  N   UNL     1       0.667   9.431  19.163  0.00  0.00    +0.000 N 
ATOM      4  C   UNL     1       1.042  10.060  20.448  0.00  0.00    +0.000 C 
ATOM      5  C   UNL     1      -0.013  11.154  20.783  0.00  0.00    +0.000 C 
ATOM      6  C   UNL     1      -0.907  10.613  21.921  0.00  0.00    +0.000 C 
ATOM      7  C   UNL     1      -0.826  11.160  19.497  0.00  0.00    +0.000 A 
ATOM      8  C   UNL     1      -1.902  11.990  19.191  0.00  0.00    +0.000 A 
ATOM      9  C   UNL     1      -2.556  11.815  17.971  0.00  0.00    +0.000 A 
ATOM     10  C   UNL     1      -2.137  10.817  17.073  0.00  0.00    +0.000 A 
ATOM     11  C   UNL     1      -1.055   9.979  17.394  0.00  0.00    +0.000 A 
ATOM     12  C   UNL     1      -0.407  10.160  18.609  0.00  0.00    +0.000 A 
ENDROOT
BRANCH   5  13
ATOM     13  C   UNL     1       0.650  12.504  21.095  0.00  0.00    +0.000 A 
ATOM     14  C   UNL     1       1.932  12.807  20.592  0.00  0.00    +0.000 A 
ATOM     15  C   UNL     1       2.552  14.029  20.869  0.00  0.00    +0.000 A 
ATOM     16  C   UNL     1       1.908  14.979  21.655  0.00  0.00    +0.000 A 
ATOM     17  C   UNL     1       0.645  14.705  22.165  0.00  0.00    +0.000 A 
ATOM     18  C   UNL     1       0.025  13.483  21.887  0.00  0.00    +0.000 A 
ENDBRANCH   5  13
BRANCH  10  19
ATOM     19  C   UNL     1      -2.830  10.655  15.824  0.00  0.00    +0.000 C 
ATOM     20  N   UNL     1      -3.399  10.505  14.825  0.00  0.00    +0.000 NA
ENDBRANCH  10  19
BRANCH   1  21
ATOM     21  C   UNL     1       2.338   7.652  19.560  0.00  0.00    +0.000 C 
BRANCH  21  25
ATOM     22  C   UNL     1       0.749   3.649  20.348  0.00  0.00    +0.000 C 
ATOM     23  C   UNL     1       2.177   4.010  20.775  0.00  0.00    +0.000 C 
ATOM     24  C   UNL     1       2.349   5.554  20.883  0.00  0.00    +0.000 C 
ATOM     25  N   UNL     1       2.364   6.181  19.551  0.00  0.00    +0.000 NA
ATOM     26  C   UNL     1       3.483   5.614  18.722  0.00  0.00    +0.000 C 
ATOM     27  C   UNL     1       3.259   4.081  18.589  0.00  0.00    +0.000 C 
ATOM     28  N   UNL     1       3.167   3.366  19.878  0.00  0.00    +0.000 NA
ATOM     29  H   UNL     1       4.078   3.380  20.333  0.00  0.00    +0.000 HD
BRANCH  26  30
ATOM     30  C   UNL     1       4.913   5.920  19.246  0.00  0.00    +0.000 C 
BRANCH  30  31
ATOM     31  N   UNL     1       5.986   5.659  18.300  0.00  0.00    +0.000 N 
ATOM     32  C   UNL     1       6.176   6.274  17.092  0.00  0.00    +0.000 A 
ATOM     33  C   UNL     1       7.158   5.560  16.449  0.00  0.00    +0.000 A 
ATOM     34  C   UNL     1       7.530   4.565  17.366  0.00  0.00    +0.000 A 
ATOM     35  N   UNL     1       6.817   4.617  18.496  0.00  0.00    +0.000 NA
ENDBRANCH  30  31
ENDBRANCH  26  30
ENDBRANCH  21  25
ENDBRANCH   1  21
TORSDOF 6
ENDMDL
MODEL 3
REMARK VINA RESULT:      -7.4      5.794      9.898
REMARK  Name = 
REMARK  8 active torsions:
REMARK  status: ('A' for Active; 'I' for Inactive)
REMARK    1  A    between atoms: C_1  and  C_2
REMARK    2  A    between atoms: N_4  and  C_5
REMARK    3  A    between atoms: C_5  and  C_6
REMARK    4  A    between atoms: C_10  and  C_11
REMARK    5  A    between atoms: C_10  and  C_12
REMARK    6  A    between atoms: C_21  and  C_22
REMARK    7  A    between atoms: C_26  and  C_27
REMARK    8  A    between atoms: C_27  and  N_28
REMARK                            x       y       z     vdW  Elec       q    Type
REMARK                         _______ _______ _______ _____ _____    ______ ____
ROOT
ATOM      1  C   UNL     1       2.383   7.532  19.214  0.00  0.00    +0.000 C 
ATOM      2  O   UNL     1       2.685   6.874  20.210  0.00  0.00    +0.000 OA
ATOM      3  N   UNL     1       1.515   8.629  19.252  0.00  0.00    +0.000 N 
ATOM      4  C   UNL     1       1.006   9.341  18.060  0.00  0.00    +0.000 C 
ATOM      5  C   UNL     1       0.201  10.583  18.539  0.00  0.00    +0.000 C 
ATOM      6  C   UNL     1       1.059  11.838  18.262  0.00  0.00    +0.000 C 
ATOM      7  C   UNL     1       0.179  10.339  20.041  0.00  0.00    +0.000 A 
ATOM      8  C   UNL     1      -0.455  11.117  21.005  0.00  0.00    +0.000 A 
ATOM      9  C   UNL     1      -0.324  10.758  22.348  0.00  0.00    +0.000 A 
ATOM     10  C   UNL     1       0.438   9.634  22.714  0.00  0.00    +0.000 A 
ATOM     11  C   UNL     1       1.081   8.859  21.733  0.00  0.00    +0.000 A 
ATOM     12  C   UNL     1       0.944   9.221  20.399  0.00  0.00    +0.000 A 
ENDROOT
BRANCH   5  13
ATOM     13  C   UNL     1      -1.199  10.629  17.906  0.00  0.00    +0.000 A 
ATOM     14  C   UNL     1      -1.566   9.702  16.909  0.00  0.00    +0.000 A 
ATOM     15  C   UNL     1      -2.833   9.732  16.319  0.00  0.00    +0.000 A 
ATOM     16  C   UNL     1      -3.765  10.688  16.710  0.00  0.00    +0.000 A 
ATOM     17  C   UNL     1      -3.428  11.615  17.689  0.00  0.00    +0.000 A 
ATOM     18  C   UNL     1      -2.160  11.584  18.279  0.00  0.00    +0.000 A 
ENDBRANCH   5  13
BRANCH  10  19
ATOM     19  C   UNL     1       0.561   9.286  24.104  0.00  0.00    +0.000 C 
ATOM     20  N   UNL     1       0.676   9.023  25.227  0.00  0.00    +0.000 NA
ENDBRANCH  10  19
BRANCH   1  21
ATOM     21  C   UNL     1       2.964   7.251  17.798  0.00  0.00    +0.000 C 
BRANCH  21  25
ATOM     22  C   UNL     1       7.322   7.187  17.379  0.00  0.00    +0.000 C 
ATOM     23  C   UNL     1       6.456   6.210  16.575  0.00  0.00    +0.000 C 
ATOM     24  C   UNL     1       4.991   6.730  16.466  0.00  0.00    +0.000 C 
ATOM     25  N   UNL     1       4.291   6.617  17.757  0.00  0.00    +0.000 NA
ATOM     26  C   UNL     1       4.277   5.186  18.217  0.00  0.00    +0.000 C 
ATOM     27  C   UNL     1       5.751   4.710  18.364  0.00  0.00    +0.000 C 
ATOM     28  N   UNL     1       6.558   4.841  17.135  0.00  0.00    +0.000 NA
ATOM     29  H   UNL     1       6.219   4.178  16.441  0.00  0.00    +0.000 HD
BRANCH  26  30
ATOM     30  C   UNL     1       3.469   4.211  17.318  0.00  0.00    +0.000 C 
BRANCH  30  31
ATOM     31  N   UNL     1       2.451   3.434  18.008  0.00  0.00    +0.000 N 
ATOM     32  C   UNL     1       1.329   3.923  18.620  0.00  0.00    +0.000 A 
ATOM     33  C   UNL     1       0.791   2.874  19.328  0.00  0.00    +0.000 A 
ATOM     34  C   UNL     1       1.633   1.787  19.042  0.00  0.00    +0.000 A 
ATOM     35  N   UNL     1       2.648   2.122  18.240  0.00  0.00    +0.000 NA
ENDBRANCH  30  31
ENDBRANCH  26  30
ENDBRANCH  21  25
ENDBRANCH   1  21
TORSDOF 6
ENDMDL
MODEL 4
REMARK VINA RESULT:      -7.2      5.488     10.208
REMARK  Name = 
REMARK  8 active torsions:
REMARK  status: ('A' for Active; 'I' for Inactive)
REMARK    1  A    between atoms: C_1  and  C_2
REMARK    2  A    between atoms: N_4  and  C_5
REMARK    3  A    between atoms: C_5  and  C_6
REMARK    4  A    between atoms: C_10  and  C_11
REMARK    5  A    between atoms: C_10  and  C_12
REMARK    6  A    between atoms: C_21  and  C_22
REMARK    7  A    between atoms: C_26  and  C_27
REMARK    8  A    between atoms: C_27  and  N_28
REMARK                            x       y       z     vdW  Elec       q    Type
REMARK                         _______ _______ _______ _____ _____    ______ ____
ROOT
ATOM      1  C   UNL     1       1.228   8.515  18.395  0.00  0.00    +0.000 C 
ATOM      2  O   UNL     1       0.931   8.140  17.261  0.00  0.00    +0.000 OA
ATOM      3  N   UNL     1       0.584   9.570  19.049  0.00  0.00    +0.000 N 
ATOM      4  C   UNL     1       1.016  10.149  20.339  0.00  0.00    +0.000 C 
ATOM      5  C   UNL     1      -0.050  11.190  20.790  0.00  0.00    +0.000 C 
ATOM      6  C   UNL     1      -0.858  10.566  21.949  0.00  0.00    +0.000 C 
ATOM      7  C   UNL     1      -0.938  11.232  19.555  0.00  0.00    +0.000 A 
ATOM      8  C   UNL     1      -2.054  12.039  19.354  0.00  0.00    +0.000 A 
ATOM      9  C   UNL     1      -2.774  11.902  18.166  0.00  0.00    +0.000 A 
ATOM     10  C   UNL     1      -2.379  10.963  17.196  0.00  0.00    +0.000 A 
ATOM     11  C   UNL     1      -1.256  10.146  17.412  0.00  0.00    +0.000 A 
ATOM     12  C   UNL     1      -0.542  10.290  18.595  0.00  0.00    +0.000 A 
ENDROOT
BRANCH   5  13
ATOM     13  C   UNL     1       0.590  12.545  21.129  0.00  0.00    +0.000 A 
ATOM     14  C   UNL     1      -0.088  13.475  21.944  0.00  0.00    +0.000 A 
ATOM     15  C   UNL     1       0.477  14.714  22.260  0.00  0.00    +0.000 A 
ATOM     16  C   UNL     1       1.733  15.057  21.768  0.00  0.00    +0.000 A 
ATOM     17  C   UNL     1       2.421  14.160  20.960  0.00  0.00    +0.000 A 
ATOM     18  C   UNL     1       1.856  12.920  20.645  0.00  0.00    +0.000 A 
ENDBRANCH   5  13
BRANCH  10  19
ATOM     19  C   UNL     1      -3.140  10.838  15.983  0.00  0.00    +0.000 C 
ATOM     20  N   UNL     1      -3.739  10.722  14.997  0.00  0.00    +0.000 NA
ENDBRANCH  10  19
BRANCH   1  21
ATOM     21  C   UNL     1       2.328   7.831  19.259  0.00  0.00    +0.000 C 
BRANCH  21  25
ATOM     22  C   UNL     1       1.114   3.809  20.490  0.00  0.00    +0.000 C 
ATOM     23  C   UNL     1       2.601   4.176  20.416  0.00  0.00    +0.000 C 
ATOM     24  C   UNL     1       2.793   5.721  20.478  0.00  0.00    +0.000 C 
ATOM     25  N   UNL     1       2.356   6.360  19.225  0.00  0.00    +0.000 NA
ATOM     26  C   UNL     1       3.134   5.810  18.062  0.00  0.00    +0.000 C 
ATOM     27  C   UNL     1       2.885   4.275  17.995  0.00  0.00    +0.000 C 
ATOM     28  N   UNL     1       3.235   3.548  19.232  0.00  0.00    +0.000 NA
ATOM     29  H   UNL     1       4.245   3.565  19.354  0.00  0.00    +0.000 HD
BRANCH  26  30
ATOM     30  C   UNL     1       4.655   6.122  18.078  0.00  0.00    +0.000 C 
BRANCH  30  31
ATOM     31  N   UNL     1       5.428   5.480  17.026  0.00  0.00    +0.000 N 
ATOM     32  C   UNL     1       6.490   4.634  17.195  0.00  0.00    +0.000 A 
ATOM     33  C   UNL     1       7.044   4.461  15.950  0.00  0.00    +0.000 A 
ATOM     34  C   UNL     1       6.220   5.204  15.090  0.00  0.00    +0.000 A 
ATOM     35  N   UNL     1       5.234   5.831  15.740  0.00  0.00    +0.000 NA
ENDBRANCH  30  31
ENDBRANCH  26  30
ENDBRANCH  21  25
ENDBRANCH   1  21
TORSDOF 6
ENDMDL
MODEL 5
REMARK VINA RESULT:      -6.9      1.296      1.697
REMARK  Name = 
REMARK  8 active torsions:
REMARK  status: ('A' for Active; 'I' for Inactive)
REMARK    1  A    between atoms: C_1  and  C_2
REMARK    2  A    between atoms: N_4  and  C_5
REMARK    3  A    between atoms: C_5  and  C_6
REMARK    4  A    between atoms: C_10  and  C_11
REMARK    5  A    between atoms: C_10  and  C_12
REMARK    6  A    between atoms: C_21  and  C_22
REMARK    7  A    between atoms: C_26  and  C_27
REMARK    8  A    between atoms: C_27  and  N_28
REMARK                            x       y       z     vdW  Elec       q    Type
REMARK                         _______ _______ _______ _____ _____    ______ ____
ROOT
ATOM      1  C   UNL     1      -1.400  15.032  22.047  0.00  0.00    +0.000 C 
ATOM      2  O   UNL     1      -0.934  16.171  22.072  0.00  0.00    +0.000 OA
ATOM      3  N   UNL     1      -0.993  14.055  21.132  0.00  0.00    +0.000 N 
ATOM      4  C   UNL     1      -1.639  12.735  20.967  0.00  0.00    +0.000 C 
ATOM      5  C   UNL     1      -0.794  11.899  19.963  0.00  0.00    +0.000 C 
ATOM      6  C   UNL     1      -0.026  10.828  20.770  0.00  0.00    +0.000 C 
ATOM      7  C   UNL     1       0.202  12.950  19.494  0.00  0.00    +0.000 A 
ATOM      8  C   UNL     1       1.199  12.789  18.536  0.00  0.00    +0.000 A 
ATOM      9  C   UNL     1       2.051  13.862  18.270  0.00  0.00    +0.000 A 
ATOM     10  C   UNL     1       1.904  15.078  18.961  0.00  0.00    +0.000 A 
ATOM     11  C   UNL     1       0.900  15.228  19.932  0.00  0.00    +0.000 A 
ATOM     12  C   UNL     1       0.053  14.157  20.190  0.00  0.00    +0.000 A 
ENDROOT
BRANCH   5  13
ATOM     13  C   UNL     1      -1.661  11.329  18.831  0.00  0.00    +0.000 A 
ATOM     14  C   UNL     1      -1.183  10.279  18.019  0.00  0.00    +0.000 A 
ATOM     15  C   UNL     1      -1.957   9.751  16.982  0.00  0.00    +0.000 A 
ATOM     16  C   UNL     1      -3.227  10.258  16.727  0.00  0.00    +0.000 A 
ATOM     17  C   UNL     1      -3.721  11.295  17.510  0.00  0.00    +0.000 A 
ATOM     18  C   UNL     1      -2.947  11.822  18.548  0.00  0.00    +0.000 A 
ENDBRANCH   5  13
BRANCH  10  19
ATOM     19  C   UNL     1       2.797  16.167  18.671  0.00  0.00    +0.000 C 
ATOM     20  N   UNL     1       3.519  17.037  18.417  0.00  0.00    +0.000 NA
ENDBRANCH  10  19
BRANCH   1  21
ATOM     21  C   UNL     1      -2.469  14.525  23.059  0.00  0.00    +0.000 C 
BRANCH  21  25
ATOM     22  C   UNL     1      -4.738  18.108  24.147  0.00  0.00    +0.000 C 
ATOM     23  C   UNL     1      -5.222  16.723  24.595  0.00  0.00    +0.000 C 
ATOM     24  C   UNL     1      -4.054  15.694  24.568  0.00  0.00    +0.000 C 
ATOM     25  N   UNL     1      -3.682  15.349  23.186  0.00  0.00    +0.000 NA
ATOM     26  C   UNL     1      -4.866  14.775  22.457  0.00  0.00    +0.000 C 
ATOM     27  C   UNL     1      -5.998  15.842  22.457  0.00  0.00    +0.000 C 
ATOM     28  N   UNL     1      -6.401  16.301  23.801  0.00  0.00    +0.000 NA
ATOM     29  H   UNL     1      -6.867  15.539  24.288  0.00  0.00    +0.000 HD
BRANCH  26  30
ATOM     30  C   UNL     1      -5.385  13.419  23.007  0.00  0.00    +0.000 C 
BRANCH  30  31
ATOM     31  N   UNL     1      -6.042  12.567  22.028  0.00  0.00    +0.000 N 
ATOM     32  C   UNL     1      -5.722  12.452  20.702  0.00  0.00    +0.000 A 
ATOM     33  C   UNL     1      -6.736  11.726  20.125  0.00  0.00    +0.000 A 
ATOM     34  C   UNL     1      -7.594  11.409  21.190  0.00  0.00    +0.000 A 
ATOM     35  N   UNL     1      -7.179  11.921  22.353  0.00  0.00    +0.000 NA
ENDBRANCH  30  31
ENDBRANCH  26  30
ENDBRANCH  21  25
ENDBRANCH   1  21
TORSDOF 6
ENDMDL
MODEL 6
REMARK VINA RESULT:      -6.9      2.588      5.513
REMARK  Name = 
REMARK  8 active torsions:
REMARK  status: ('A' for Active; 'I' for Inactive)
REMARK    1  A    between atoms: C_1  and  C_2
REMARK    2  A    between atoms: N_4  and  C_5
REMARK    3  A    between atoms: C_5  and  C_6
REMARK    4  A    between atoms: C_10  and  C_11
REMARK    5  A    between atoms: C_10  and  C_12
REMARK    6  A    between atoms: C_21  and  C_22
REMARK    7  A    between atoms: C_26  and  C_27
REMARK    8  A    between atoms: C_27  and  N_28
REMARK                            x       y       z     vdW  Elec       q    Type
REMARK                         _______ _______ _______ _____ _____    ______ ____
ROOT
ATOM      1  C   UNL     1      -4.782  13.060  19.768  0.00  0.00    +0.000 C 
ATOM      2  O   UNL     1      -5.678  12.869  18.946  0.00  0.00    +0.000 OA
ATOM      3  N   UNL     1      -3.508  12.494  19.660  0.00  0.00    +0.000 N 
ATOM      4  C   UNL     1      -2.462  12.570  20.704  0.00  0.00    +0.000 C 
ATOM      5  C   UNL     1      -1.154  11.951  20.132  0.00  0.00    +0.000 C 
ATOM      6  C   UNL     1      -0.179  13.109  19.824  0.00  0.00    +0.000 C 
ATOM      7  C   UNL     1      -1.664  11.391  18.812  0.00  0.00    +0.000 A 
ATOM      8  C   UNL     1      -0.935  10.670  17.871  0.00  0.00    +0.000 A 
ATOM      9  C   UNL     1      -1.568  10.277  16.691  0.00  0.00    +0.000 A 
ATOM     10  C   UNL     1      -2.915  10.609  16.459  0.00  0.00    +0.000 A 
ATOM     11  C   UNL     1      -3.641  11.344  17.411  0.00  0.00    +0.000 A 
ATOM     12  C   UNL     1      -3.005  11.730  18.585  0.00  0.00    +0.000 A 
ENDROOT
BRANCH   5  13
ATOM     13  C   UNL     1      -0.578  10.879  21.069  0.00  0.00    +0.000 A 
ATOM     14  C   UNL     1       0.320   9.907  20.581  0.00  0.00    +0.000 A 
ATOM     15  C   UNL     1       0.851   8.922  21.419  0.00  0.00    +0.000 A 
ATOM     16  C   UNL     1       0.497   8.881  22.764  0.00  0.00    +0.000 A 
ATOM     17  C   UNL     1      -0.389   9.825  23.270  0.00  0.00    +0.000 A 
ATOM     18  C   UNL     1      -0.918  10.811  22.431  0.00  0.00    +0.000 A 
ENDBRANCH   5  13
BRANCH  10  19
ATOM     19  C   UNL     1      -3.543  10.196  15.234  0.00  0.00    +0.000 C 
ATOM     20  N   UNL     1      -4.068   9.858  14.257  0.00  0.00    +0.000 NA
ENDBRANCH  10  19
BRANCH   1  21
ATOM     21  C   UNL     1      -4.944  13.990  21.006  0.00  0.00    +0.000 C 
BRANCH  21  25
ATOM     22  C   UNL     1      -7.916  11.649  23.210  0.00  0.00    +0.000 C 
ATOM     23  C   UNL     1      -7.500  13.037  23.713  0.00  0.00    +0.000 C 
ATOM     24  C   UNL     1      -6.873  13.878  22.562  0.00  0.00    +0.000 C 
ATOM     25  N   UNL     1      -5.536  13.375  22.205  0.00  0.00    +0.000 NA
ATOM     26  C   UNL     1      -4.627  13.417  23.402  0.00  0.00    +0.000 C 
ATOM     27  C   UNL     1      -5.253  12.530  24.516  0.00  0.00    +0.000 C 
ATOM     28  N   UNL     1      -6.624  12.918  24.904  0.00  0.00    +0.000 NA
ATOM     29  H   UNL     1      -6.595  13.817  25.379  0.00  0.00    +0.000 HD
BRANCH  26  30
ATOM     30  C   UNL     1      -4.311  14.839  23.940  0.00  0.00    +0.000 C 
BRANCH  30  31
ATOM     31  N   UNL     1      -2.981  15.337  23.624  0.00  0.00    +0.000 N 
ATOM     32  C   UNL     1      -2.682  16.491  22.953  0.00  0.00    +0.000 A 
ATOM     33  C   UNL     1      -1.335  16.439  22.685  0.00  0.00    +0.000 A 
ATOM     34  C   UNL     1      -0.903  15.240  23.273  0.00  0.00    +0.000 A 
ATOM     35  N   UNL     1      -1.902  14.561  23.845  0.00  0.00    +0.000 NA
ENDBRANCH  30  31
ENDBRANCH  26  30
ENDBRANCH  21  25
ENDBRANCH   1  21
TORSDOF 6
ENDMDL
MODEL 7
REMARK VINA RESULT:      -6.8      3.894      7.521
REMARK  Name = 
REMARK  8 active torsions:
REMARK  status: ('A' for Active; 'I' for Inactive)
REMARK    1  A    between atoms: C_1  and  C_2
REMARK    2  A    between atoms: N_4  and  C_5
REMARK    3  A    between atoms: C_5  and  C_6
REMARK    4  A    between atoms: C_10  and  C_11
REMARK    5  A    between atoms: C_10  and  C_12
REMARK    6  A    between atoms: C_21  and  C_22
REMARK    7  A    between atoms: C_26  and  C_27
REMARK    8  A    between atoms: C_27  and  N_28
REMARK                            x       y       z     vdW  Elec       q    Type
REMARK                         _______ _______ _______ _____ _____    ______ ____
ROOT
ATOM      1  C   UNL     1      -0.224  13.492  20.581  0.00  0.00    +0.000 C 
ATOM      2  O   UNL     1      -1.309  14.074  20.613  0.00  0.00    +0.000 OA
ATOM      3  N   UNL     1      -0.007  12.311  19.864  0.00  0.00    +0.000 N 
ATOM      4  C   UNL     1       1.229  11.502  19.930  0.00  0.00    +0.000 C 
ATOM      5  C   UNL     1       1.126  10.363  18.875  0.00  0.00    +0.000 C 
ATOM      6  C   UNL     1       2.060  10.723  17.698  0.00  0.00    +0.000 C 
ATOM      7  C   UNL     1      -0.314  10.540  18.415  0.00  0.00    +0.000 A 
ATOM      8  C   UNL     1      -0.999   9.756  17.490  0.00  0.00    +0.000 A 
ATOM      9  C   UNL     1      -2.310  10.103  17.159  0.00  0.00    +0.000 A 
ATOM     10  C   UNL     1      -2.920  11.226  17.746  0.00  0.00    +0.000 A 
ATOM     11  C   UNL     1      -2.218  12.016  18.672  0.00  0.00    +0.000 A 
ATOM     12  C   UNL     1      -0.915  11.662  19.000  0.00  0.00    +0.000 A 
ENDROOT
BRANCH   5  13
ATOM     13  C   UNL     1       1.404   8.986  19.498  0.00  0.00    +0.000 A 
ATOM     14  C   UNL     1       2.176   8.029  18.807  0.00  0.00    +0.000 A 
ATOM     15  C   UNL     1       2.436   6.770  19.357  0.00  0.00    +0.000 A 
ATOM     16  C   UNL     1       1.930   6.435  20.610  0.00  0.00    +0.000 A 
ATOM     17  C   UNL     1       1.164   7.360  21.310  0.00  0.00    +0.000 A 
ATOM     18  C   UNL     1       0.906   8.619  20.760  0.00  0.00    +0.000 A 
ENDBRANCH   5  13
BRANCH  10  19
ATOM     19  C   UNL     1      -4.270  11.565  17.385  0.00  0.00    +0.000 C 
ATOM     20  N   UNL     1      -5.358  11.855  17.109  0.00  0.00    +0.000 NA
ENDBRANCH  10  19
BRANCH   1  21
ATOM     21  C   UNL     1       1.051  14.024  21.299  0.00  0.00    +0.000 C 
BRANCH  21  25
ATOM     22  C   UNL     1       1.049  17.712  18.938  0.00  0.00    +0.000 C 
ATOM     23  C   UNL     1       2.186  16.695  18.779  0.00  0.00    +0.000 C 
ATOM     24  C   UNL     1       1.744  15.288  19.279  0.00  0.00    +0.000 C 
ATOM     25  N   UNL     1       1.638  15.256  20.747  0.00  0.00    +0.000 NA
ATOM     26  C   UNL     1       2.959  15.612  21.372  0.00  0.00    +0.000 C 
ATOM     27  C   UNL     1       3.351  17.040  20.894  0.00  0.00    +0.000 C 
ATOM     28  N   UNL     1       3.423  17.191  19.427  0.00  0.00    +0.000 NA
ATOM     29  H   UNL     1       4.214  16.656  19.075  0.00  0.00    +0.000 HD
BRANCH  26  30
ATOM     30  C   UNL     1       4.109  14.604  21.102  0.00  0.00    +0.000 C 
BRANCH  30  31
ATOM     31  N   UNL     1       5.044  14.426  22.202  0.00  0.00    +0.000 N 
ATOM     32  C   UNL     1       6.380  14.151  22.100  0.00  0.00    +0.000 A 
ATOM     33  C   UNL     1       6.807  13.842  23.369  0.00  0.00    +0.000 A 
ATOM     34  C   UNL     1       5.667  14.004  24.173  0.00  0.00    +0.000 A 
ATOM     35  N   UNL     1       4.588  14.357  23.468  0.00  0.00    +0.000 NA
ENDBRANCH  30  31
ENDBRANCH  26  30
ENDBRANCH  21  25
ENDBRANCH   1  21
TORSDOF 6
ENDMDL
MODEL 8
REMARK VINA RESULT:      -6.7      2.943      6.286
REMARK  Name = 
REMARK  8 active torsions:
REMARK  status: ('A' for Active; 'I' for Inactive)
REMARK    1  A    between atoms: C_1  and  C_2
REMARK    2  A    between atoms: N_4  and  C_5
REMARK    3  A    between atoms: C_5  and  C_6
REMARK    4  A    between atoms: C_10  and  C_11
REMARK    5  A    between atoms: C_10  and  C_12
REMARK    6  A    between atoms: C_21  and  C_22
REMARK    7  A    between atoms: C_26  and  C_27
REMARK    8  A    between atoms: C_27  and  N_28
REMARK                            x       y       z     vdW  Elec       q    Type
REMARK                         _______ _______ _______ _____ _____    ______ ____
ROOT
ATOM      1  C   UNL     1      -0.188  13.233  19.126  0.00  0.00    +0.000 C 
ATOM      2  O   UNL     1       0.474  12.453  18.439  0.00  0.00    +0.000 OA
ATOM      3  N   UNL     1      -0.744  12.887  20.361  0.00  0.00    +0.000 N 
ATOM      4  C   UNL     1      -1.672  13.739  21.134  0.00  0.00    +0.000 C 
ATOM      5  C   UNL     1      -1.932  13.059  22.510  0.00  0.00    +0.000 C 
ATOM      6  C   UNL     1      -1.155  13.853  23.583  0.00  0.00    +0.000 C 
ATOM      7  C   UNL     1      -1.230  11.726  22.297  0.00  0.00    +0.000 A 
ATOM      8  C   UNL     1      -1.167  10.661  23.193  0.00  0.00    +0.000 A 
ATOM      9  C   UNL     1      -0.431   9.530  22.837  0.00  0.00    +0.000 A 
ATOM     10  C   UNL     1       0.235   9.472  21.599  0.00  0.00    +0.000 A 
ATOM     11  C   UNL     1       0.172  10.555  20.705  0.00  0.00    +0.000 A 
ATOM     12  C   UNL     1      -0.564  11.677  21.065  0.00  0.00    +0.000 A 
ENDROOT
BRANCH   5  13
ATOM     13  C   UNL     1      -3.435  12.919  22.798  0.00  0.00    +0.000 A 
ATOM     14  C   UNL     1      -3.901  12.767  24.120  0.00  0.00    +0.000 A 
ATOM     15  C   UNL     1      -5.264  12.634  24.400  0.00  0.00    +0.000 A 
ATOM     16  C   UNL     1      -6.196  12.649  23.367  0.00  0.00    +0.000 A 
ATOM     17  C   UNL     1      -5.763  12.795  22.054  0.00  0.00    +0.000 A 
ATOM     18  C   UNL     1      -4.399  12.929  21.775  0.00  0.00    +0.000 A 
ENDBRANCH   5  13
BRANCH  10  19
ATOM     19  C   UNL     1       0.989   8.296  21.257  0.00  0.00    +0.000 C 
ATOM     20  N   UNL     1       1.581   7.344  20.967  0.00  0.00    +0.000 NA
ENDBRANCH  10  19
BRANCH   1  21
ATOM     21  C   UNL     1      -0.449  14.714  18.722  0.00  0.00    +0.000 C 
BRANCH  21  25
ATOM     22  C   UNL     1       3.627  15.919  17.673  0.00  0.00    +0.000 C 
ATOM     23  C   UNL     1       3.163  15.958  19.134  0.00  0.00    +0.000 C 
ATOM     24  C   UNL     1       1.930  15.032  19.348  0.00  0.00    +0.000 C 
ATOM     25  N   UNL     1       0.722  15.604  18.730  0.00  0.00    +0.000 NA
ATOM     26  C   UNL     1       0.431  16.959  19.312  0.00  0.00    +0.000 C 
ATOM     27  C   UNL     1       1.658  17.876  19.041  0.00  0.00    +0.000 C 
ATOM     28  N   UNL     1       2.935  17.357  19.571  0.00  0.00    +0.000 NA
ATOM     29  H   UNL     1       2.908  17.382  20.588  0.00  0.00    +0.000 HD
BRANCH  26  30
ATOM     30  C   UNL     1       0.062  16.963  20.821  0.00  0.00    +0.000 C 
BRANCH  30  31
ATOM     31  N   UNL     1      -1.331  17.261  21.114  0.00  0.00    +0.000 N 
ATOM     32  C   UNL     1      -1.917  17.280  22.350  0.00  0.00    +0.000 A 
ATOM     33  C   UNL     1      -3.271  17.379  22.131  0.00  0.00    +0.000 A 
ATOM     34  C   UNL     1      -3.397  17.459  20.735  0.00  0.00    +0.000 A 
ATOM     35  N   UNL     1      -2.219  17.386  20.109  0.00  0.00    +0.000 NA
ENDBRANCH  30  31
ENDBRANCH  26  30
ENDBRANCH  21  25
ENDBRANCH   1  21
TORSDOF 6
ENDMDL
MODEL 9
REMARK VINA RESULT:      -6.7      3.129      7.467
REMARK  Name = 
REMARK  8 active torsions:
REMARK  status: ('A' for Active; 'I' for Inactive)
REMARK    1  A    between atoms: C_1  and  C_2
REMARK    2  A    between atoms: N_4  and  C_5
REMARK    3  A    between atoms: C_5  and  C_6
REMARK    4  A    between atoms: C_10  and  C_11
REMARK    5  A    between atoms: C_10  and  C_12
REMARK    6  A    between atoms: C_21  and  C_22
REMARK    7  A    between atoms: C_26  and  C_27
REMARK    8  A    between atoms: C_27  and  N_28
REMARK                            x       y       z     vdW  Elec       q    Type
REMARK                         _______ _______ _______ _____ _____    ______ ____
ROOT
ATOM      1  C   UNL     1       0.049  13.404  19.210  0.00  0.00    +0.000 C 
ATOM      2  O   UNL     1       0.740  12.641  18.537  0.00  0.00    +0.000 OA
ATOM      3  N   UNL     1      -0.588  13.022  20.395  0.00  0.00    +0.000 N 
ATOM      4  C   UNL     1      -1.550  13.860  21.142  0.00  0.00    +0.000 C 
ATOM      5  C   UNL     1      -1.905  13.132  22.471  0.00  0.00    +0.000 C 
ATOM      6  C   UNL     1      -1.185  13.871  23.621  0.00  0.00    +0.000 C 
ATOM      7  C   UNL     1      -1.210  11.796  22.251  0.00  0.00    +0.000 A 
ATOM      8  C   UNL     1      -1.218  10.698  23.106  0.00  0.00    +0.000 A 
ATOM      9  C   UNL     1      -0.479   9.568  22.753  0.00  0.00    +0.000 A 
ATOM     10  C   UNL     1       0.262   9.546  21.557  0.00  0.00    +0.000 A 
ATOM     11  C   UNL     1       0.271  10.663  20.704  0.00  0.00    +0.000 A 
ATOM     12  C   UNL     1      -0.470  11.783  21.061  0.00  0.00    +0.000 A 
ENDROOT
BRANCH   5  13
ATOM     13  C   UNL     1      -3.425  13.007  22.660  0.00  0.00    +0.000 A 
ATOM     14  C   UNL     1      -3.990  13.011  23.952  0.00  0.00    +0.000 A 
ATOM     15  C   UNL     1      -5.370  12.894  24.143  0.00  0.00    +0.000 A 
ATOM     16  C   UNL     1      -6.220  12.769  23.049  0.00  0.00    +0.000 A 
ATOM     17  C   UNL     1      -5.689  12.759  21.765  0.00  0.00    +0.000 A 
ATOM     18  C   UNL     1      -4.308  12.877  21.574  0.00  0.00    +0.000 A 
ENDBRANCH   5  13
BRANCH  10  19
ATOM     19  C   UNL     1       1.019   8.372  21.217  0.00  0.00    +0.000 C 
ATOM     20  N   UNL     1       1.648   7.438  20.942  0.00  0.00    +0.000 NA
ENDBRANCH  10  19
BRANCH   1  21
ATOM     21  C   UNL     1      -0.166  14.904  18.849  0.00  0.00    +0.000 C 
BRANCH  21  25
ATOM     22  C   UNL     1       0.163  18.100  21.823  0.00  0.00    +0.000 C 
ATOM     23  C   UNL     1       0.869  18.232  20.468  0.00  0.00    +0.000 C 
ATOM     24  C   UNL     1       0.220  17.289  19.412  0.00  0.00    +0.000 C 
ATOM     25  N   UNL     1       0.551  15.880  19.684  0.00  0.00    +0.000 NA
ATOM     26  C   UNL     1       2.042  15.685  19.675  0.00  0.00    +0.000 C 
ATOM     27  C   UNL     1       2.657  16.601  20.771  0.00  0.00    +0.000 C 
ATOM     28  N   UNL     1       2.330  18.033  20.621  0.00  0.00    +0.000 NA
ATOM     29  H   UNL     1       2.797  18.397  19.793  0.00  0.00    +0.000 HD
BRANCH  26  30
ATOM     30  C   UNL     1       2.731  15.926  18.303  0.00  0.00    +0.000 C 
BRANCH  30  31
ATOM     31  N   UNL     1       4.184  15.967  18.341  0.00  0.00    +0.000 N 
ATOM     32  C   UNL     1       5.031  14.894  18.276  0.00  0.00    +0.000 A 
ATOM     33  C   UNL     1       6.283  15.376  18.577  0.00  0.00    +0.000 A 
ATOM     34  C   UNL     1       6.095  16.755  18.762  0.00  0.00    +0.000 A 
ATOM     35  N   UNL     1       4.818  17.122  18.622  0.00  0.00    +0.000 NA
ENDBRANCH  30  31
ENDBRANCH  26  30
ENDBRANCH  21  25
ENDBRANCH   1  21
TORSDOF 6
ENDMDL
