MODEL 1
REMARK VINA RESULT:      -6.9      0.000      0.000
REMARK  Name = 
REMARK  11 active torsions:
REMARK  status: ('A' for Active; 'I' for Inactive)
REMARK    1  A    between atoms: C_1  and  C_2
REMARK    2  A    between atoms: C_2  and  C_3
REMARK    3  A    between atoms: C_3  and  C_5
REMARK    4  A    between atoms: C_7  and  O_8
REMARK    5  A    between atoms: O_8  and  C_9
REMARK    6  A    between atoms: C_10  and  C_11
REMARK    7  A    between atoms: C_11  and  C_12
REMARK    8  A    between atoms: C_12  and  C_13
REMARK    9  A    between atoms: C_12  and  N_14
REMARK   10  A    between atoms: C_16  and  O_17
REMARK   11  A    between atoms: O_17  and  C_18
REMARK                            x       y       z     vdW  Elec       q    Type
REMARK                         _______ _______ _______ _____ _____    ______ ____
ROOT
ATOM      1  C   UNL     1       5.882   4.777  18.028  0.00  0.00    +0.000 A 
ATOM      2  C   UNL     1       5.029   5.245  19.052  0.00  0.00    +0.000 A 
ATOM      3  C   UNL     1       3.640   5.064  19.040  0.00  0.00    +0.000 A 
ATOM      4  C   UNL     1       3.054   4.360  17.974  0.00  0.00    +0.000 A 
ATOM      5  C   UNL     1       3.877   3.864  16.946  0.00  0.00    +0.000 A 
ATOM      6  C   UNL     1       5.269   4.053  16.948  0.00  0.00    +0.000 A 
ENDROOT
BRANCH   1   7
ATOM      7  C   UNL     1       7.352   5.123  18.139  0.00  0.00    +0.000 C 
ATOM      8  O   UNL     1       8.209   4.298  17.891  0.00  0.00    +0.000 OA
BRANCH   7  10
ATOM      9  C   UNL     1       7.540   7.559  17.474  0.00  0.00    +0.000 C 
ATOM     10  C   UNL     1       7.831   6.506  18.552  0.00  0.00    +0.000 C 
ENDBRANCH   7  10
ENDBRANCH   1   7
BRANCH   3  11
ATOM     11  O   UNL     1       2.857   5.582  20.027  0.00  0.00    +0.000 OA
ATOM     12  C   UNL     1       2.254   6.827  20.007  0.00  0.00    +0.000 C 
ENDBRANCH   3  11
BRANCH   6  13
ATOM     13  O   UNL     1       5.918   3.557  15.858  0.00  0.00    +0.000 OA
ATOM     14  C   UNL     1       6.135   4.148  14.630  0.00  0.00    +0.000 C 
ENDBRANCH   6  13
BRANCH   4  15
ATOM     15  C   UNL     1       1.550   4.159  17.896  0.00  0.00    +0.000 C 
BRANCH  15  16
ATOM     16  C   UNL     1       1.033   3.003  18.779  0.00  0.00    +0.000 C 
ATOM     17  C   UNL     1       2.104   1.922  18.990  0.00  0.00    +0.000 C 
BRANCH  16  18
ATOM     18  N   UNL     1       0.594   3.541  20.068  0.00  0.00    +0.000 NA
ATOM     19  H   UNL     1       1.304   4.214  20.439  0.00  0.00    +0.000 HD
ATOM     20  H   UNL     1       0.484   2.761  20.758  0.00  0.00    +0.000 HD
ENDBRANCH  16  18
ENDBRANCH  15  16
ENDBRANCH   4  15
TORSDOF 7
ENDMDL
MODEL 2
REMARK VINA RESULT:      -6.9      1.271      1.347
REMARK  Name = 
REMARK  11 active torsions:
REMARK  status: ('A' for Active; 'I' for Inactive)
REMARK    1  A    between atoms: C_1  and  C_2
REMARK    2  A    between atoms: C_2  and  C_3
REMARK    3  A    between atoms: C_3  and  C_5
REMARK    4  A    between atoms: C_7  and  O_8
REMARK    5  A    between atoms: O_8  and  C_9
REMARK    6  A    between atoms: C_10  and  C_11
REMARK    7  A    between atoms: C_11  and  C_12
REMARK    8  A    between atoms: C_12  and  C_13
REMARK    9  A    between atoms: C_12  and  N_14
REMARK   10  A    between atoms: C_16  and  O_17
REMARK   11  A    between atoms: O_17  and  C_18
REMARK                            x       y       z     vdW  Elec       q    Type
REMARK                         _______ _______ _______ _____ _____    ______ ____
ROOT
ATOM      1  C   UNL     1       5.688   5.589  17.198  0.00  0.00    +0.000 A 
ATOM      2  C   UNL     1       4.785   6.260  18.051  0.00  0.00    +0.000 A 
ATOM      3  C   UNL     1       3.471   5.829  18.272  0.00  0.00    +0.000 A 
ATOM      4  C   UNL     1       3.022   4.656  17.642  0.00  0.00    +0.000 A 
ATOM      5  C   UNL     1       3.903   3.952  16.799  0.00  0.00    +0.000 A 
ATOM      6  C   UNL     1       5.218   4.387  16.565  0.00  0.00    +0.000 A 
ENDROOT
BRANCH   1   7
ATOM      7  C   UNL     1       7.048   6.223  16.993  0.00  0.00    +0.000 C 
ATOM      8  O   UNL     1       7.594   6.196  15.908  0.00  0.00    +0.000 OA
BRANCH   7  10
ATOM      9  C   UNL     1       8.003   8.418  17.817  0.00  0.00    +0.000 C 
ATOM     10  C   UNL     1       7.792   6.928  18.117  0.00  0.00    +0.000 C 
ENDBRANCH   7  10
ENDBRANCH   1   7
BRANCH   3  11
ATOM     11  O   UNL     1       2.622   6.544  19.064  0.00  0.00    +0.000 OA
ATOM     12  C   UNL     1       2.206   7.842  18.832  0.00  0.00    +0.000 C 
ENDBRANCH   3  11
BRANCH   6  13
ATOM     13  O   UNL     1       5.928   3.625  15.686  0.00  0.00    +0.000 OA
ATOM     14  C   UNL     1       6.039   3.751  14.317  0.00  0.00    +0.000 C 
ENDBRANCH   6  13
BRANCH   4  15
ATOM     15  C   UNL     1       1.599   4.158  17.824  0.00  0.00    +0.000 C 
BRANCH  15  16
ATOM     16  C   UNL     1       1.458   3.064  18.904  0.00  0.00    +0.000 C 
ATOM     17  C   UNL     1       0.987   3.645  20.247  0.00  0.00    +0.000 C 
BRANCH  16  18
ATOM     18  N   UNL     1       0.518   2.044  18.436  0.00  0.00    +0.000 NA
ATOM     19  H   UNL     1       0.568   1.197  19.050  0.00  0.00    +0.000 HD
ATOM     20  H   UNL     1       0.762   1.759  17.459  0.00  0.00    +0.000 HD
ENDBRANCH  16  18
ENDBRANCH  15  16
ENDBRANCH   4  15
TORSDOF 7
ENDMDL
MODEL 3
REMARK VINA RESULT:      -6.7      2.936      5.244
REMARK  Name = 
REMARK  11 active torsions:
REMARK  status: ('A' for Active; 'I' for Inactive)
REMARK    1  A    between atoms: C_1  and  C_2
REMARK    2  A    between atoms: C_2  and  C_3
REMARK    3  A    between atoms: C_3  and  C_5
REMARK    4  A    between atoms: C_7  and  O_8
REMARK    5  A    between atoms: O_8  and  C_9
REMARK    6  A    between atoms: C_10  and  C_11
REMARK    7  A    between atoms: C_11  and  C_12
REMARK    8  A    between atoms: C_12  and  C_13
REMARK    9  A    between atoms: C_12  and  N_14
REMARK   10  A    between atoms: C_16  and  O_17
REMARK   11  A    between atoms: O_17  and  C_18
REMARK                            x       y       z     vdW  Elec       q    Type
REMARK                         _______ _______ _______ _____ _____    ______ ____
ROOT
ATOM      1  C   UNL     1       4.187   3.197  19.310  0.00  0.00    +0.000 A 
ATOM      2  C   UNL     1       5.262   4.105  19.193  0.00  0.00    +0.000 A 
ATOM      3  C   UNL     1       5.630   4.711  17.984  0.00  0.00    +0.000 A 
ATOM      4  C   UNL     1       4.883   4.432  16.827  0.00  0.00    +0.000 A 
ATOM      5  C   UNL     1       3.793   3.546  16.912  0.00  0.00    +0.000 A 
ATOM      6  C   UNL     1       3.428   2.927  18.119  0.00  0.00    +0.000 A 
ENDROOT
BRANCH   1   7
ATOM      7  C   UNL     1       3.964   2.559  20.665  0.00  0.00    +0.000 C 
ATOM      8  O   UNL     1       4.806   1.839  21.163  0.00  0.00    +0.000 OA
BRANCH   7  10
ATOM      9  C   UNL     1       2.170   4.223  21.317  0.00  0.00    +0.000 C 
ATOM     10  C   UNL     1       2.695   2.790  21.471  0.00  0.00    +0.000 C 
ENDBRANCH   7  10
ENDBRANCH   1   7
BRANCH   3  11
ATOM     11  O   UNL     1       6.710   5.539  17.915  0.00  0.00    +0.000 OA
ATOM     12  C   UNL     1       7.732   5.608  18.845  0.00  0.00    +0.000 C 
ENDBRANCH   3  11
BRANCH   6  13
ATOM     13  O   UNL     1       2.383   2.058  18.026  0.00  0.00    +0.000 OA
ATOM     14  C   UNL     1       1.080   2.215  18.452  0.00  0.00    +0.000 C 
ENDBRANCH   6  13
BRANCH   4  15
ATOM     15  C   UNL     1       5.255   5.039  15.485  0.00  0.00    +0.000 C 
BRANCH  15  16
ATOM     16  C   UNL     1       6.478   4.371  14.820  0.00  0.00    +0.000 C 
ATOM     17  C   UNL     1       6.156   3.874  13.402  0.00  0.00    +0.000 C 
BRANCH  16  18
ATOM     18  N   UNL     1       7.587   5.326  14.782  0.00  0.00    +0.000 NA
ATOM     19  H   UNL     1       8.006   5.431  15.736  0.00  0.00    +0.000 HD
ATOM     20  H   UNL     1       7.237   6.262  14.469  0.00  0.00    +0.000 HD
ENDBRANCH  16  18
ENDBRANCH  15  16
ENDBRANCH   4  15
TORSDOF 7
ENDMDL
MODEL 4
REMARK VINA RESULT:      -6.6      2.033      3.831
REMARK  Name = 
REMARK  11 active torsions:
REMARK  status: ('A' for Active; 'I' for Inactive)
REMARK    1  A    between atoms: C_1  and  C_2
REMARK    2  A    between atoms: C_2  and  C_3
REMARK    3  A    between atoms: C_3  and  C_5
REMARK    4  A    between atoms: C_7  and  O_8
REMARK    5  A    between atoms: O_8  and  C_9
REMARK    6  A    between atoms: C_10  and  C_11
REMARK    7  A    between atoms: C_11  and  C_12
REMARK    8  A    between atoms: C_12  and  C_13
REMARK    9  A    between atoms: C_12  and  N_14
REMARK   10  A    between atoms: C_16  and  O_17
REMARK   11  A    between atoms: O_17  and  C_18
REMARK                            x       y       z     vdW  Elec       q    Type
REMARK                         _______ _______ _______ _____ _____    ______ ____
ROOT
ATOM      1  C   UNL     1       5.810   4.941  15.871  0.00  0.00    +0.000 A 
ATOM      2  C   UNL     1       4.839   3.982  16.235  0.00  0.00    +0.000 A 
ATOM      3  C   UNL     1       4.162   4.000  17.461  0.00  0.00    +0.000 A 
ATOM      4  C   UNL     1       4.430   5.034  18.374  0.00  0.00    +0.000 A 
ATOM      5  C   UNL     1       5.379   6.016  18.035  0.00  0.00    +0.000 A 
ATOM      6  C   UNL     1       6.070   5.996  16.812  0.00  0.00    +0.000 A 
ENDROOT
BRANCH   1   7
ATOM      7  C   UNL     1       6.518   4.741  14.548  0.00  0.00    +0.000 C 
ATOM      8  O   UNL     1       7.567   5.307  14.308  0.00  0.00    +0.000 OA
BRANCH   7  10
ATOM      9  C   UNL     1       6.834   3.858  12.196  0.00  0.00    +0.000 C 
ATOM     10  C   UNL     1       5.971   3.825  13.464  0.00  0.00    +0.000 C 
ENDBRANCH   7  10
ENDBRANCH   1   7
BRANCH   3  11
ATOM     11  O   UNL     1       3.272   3.019  17.784  0.00  0.00    +0.000 OA
ATOM     12  C   UNL     1       3.598   1.750  18.228  0.00  0.00    +0.000 C 
ENDBRANCH   3  11
BRANCH   6  13
ATOM     13  O   UNL     1       6.991   6.987  16.655  0.00  0.00    +0.000 OA
ATOM     14  C   UNL     1       7.696   7.680  17.617  0.00  0.00    +0.000 C 
ENDBRANCH   6  13
BRANCH   4  15
ATOM     15  C   UNL     1       3.746   5.086  19.728  0.00  0.00    +0.000 C 
BRANCH  15  16
ATOM     16  C   UNL     1       2.313   5.659  19.676  0.00  0.00    +0.000 C 
ATOM     17  C   UNL     1       1.316   4.775  20.441  0.00  0.00    +0.000 C 
BRANCH  16  18
ATOM     18  N   UNL     1       2.316   7.015  20.231  0.00  0.00    +0.000 NA
ATOM     19  H   UNL     1       3.001   7.081  21.020  0.00  0.00    +0.000 HD
ATOM     20  H   UNL     1       1.364   7.249  20.597  0.00  0.00    +0.000 HD
ENDBRANCH  16  18
ENDBRANCH  15  16
ENDBRANCH   4  15
TORSDOF 7
ENDMDL
MODEL 5
REMARK VINA RESULT:      -6.6      2.989      5.318
REMARK  Name = 
REMARK  11 active torsions:
REMARK  status: ('A' for Active; 'I' for Inactive)
REMARK    1  A    between atoms: C_1  and  C_2
REMARK    2  A    between atoms: C_2  and  C_3
REMARK    3  A    between atoms: C_3  and  C_5
REMARK    4  A    between atoms: C_7  and  O_8
REMARK    5  A    between atoms: O_8  and  C_9
REMARK    6  A    between atoms: C_10  and  C_11
REMARK    7  A    between atoms: C_11  and  C_12
REMARK    8  A    between atoms: C_12  and  C_13
REMARK    9  A    between atoms: C_12  and  N_14
REMARK   10  A    between atoms: C_16  and  O_17
REMARK   11  A    between atoms: O_17  and  C_18
REMARK                            x       y       z     vdW  Elec       q    Type
REMARK                         _______ _______ _______ _____ _____    ______ ____
ROOT
ATOM      1  C   UNL     1       2.153   3.972  18.571  0.00  0.00    +0.000 A 
ATOM      2  C   UNL     1       2.168   5.384  18.607  0.00  0.00    +0.000 A 
ATOM      3  C   UNL     1       3.118   6.161  17.931  0.00  0.00    +0.000 A 
ATOM      4  C   UNL     1       4.094   5.518  17.151  0.00  0.00    +0.000 A 
ATOM      5  C   UNL     1       4.096   4.112  17.079  0.00  0.00    +0.000 A 
ATOM      6  C   UNL     1       3.153   3.329  17.765  0.00  0.00    +0.000 A 
ENDROOT
BRANCH   1   7
ATOM      7  C   UNL     1       1.115   3.269  19.421  0.00  0.00    +0.000 C 
ATOM      8  O   UNL     1       0.247   2.588  18.913  0.00  0.00    +0.000 OA
BRANCH   7  10
ATOM      9  C   UNL     1       2.395   2.801  21.556  0.00  0.00    +0.000 C 
ATOM     10  C   UNL     1       1.109   3.367  20.939  0.00  0.00    +0.000 C 
ENDBRANCH   7  10
ENDBRANCH   1   7
BRANCH   3  11
ATOM     11  O   UNL     1       3.121   7.519  18.043  0.00  0.00    +0.000 OA
ATOM     12  C   UNL     1       2.038   8.348  17.814  0.00  0.00    +0.000 C 
ENDBRANCH   3  11
BRANCH   6  13
ATOM     13  O   UNL     1       3.319   1.983  17.633  0.00  0.00    +0.000 OA
ATOM     14  C   UNL     1       3.888   1.086  18.513  0.00  0.00    +0.000 C 
ENDBRANCH   6  13
BRANCH   4  15
ATOM     15  C   UNL     1       5.165   6.309  16.420  0.00  0.00    +0.000 C 
BRANCH  15  16
ATOM     16  C   UNL     1       6.508   5.560  16.289  0.00  0.00    +0.000 C 
ATOM     17  C   UNL     1       6.703   4.980  14.879  0.00  0.00    +0.000 C 
BRANCH  16  18
ATOM     18  N   UNL     1       7.604   6.474  16.616  0.00  0.00    +0.000 NA
ATOM     19  H   UNL     1       7.863   6.382  17.627  0.00  0.00    +0.000 HD
ATOM     20  H   UNL     1       7.305   7.462  16.440  0.00  0.00    +0.000 HD
ENDBRANCH  16  18
ENDBRANCH  15  16
ENDBRANCH   4  15
TORSDOF 7
ENDMDL
MODEL 6
REMARK VINA RESULT:      -6.4      2.840      5.223
REMARK  Name = 
REMARK  11 active torsions:
REMARK  status: ('A' for Active; 'I' for Inactive)
REMARK    1  A    between atoms: C_1  and  C_2
REMARK    2  A    between atoms: C_2  and  C_3
REMARK    3  A    between atoms: C_3  and  C_5
REMARK    4  A    between atoms: C_7  and  O_8
REMARK    5  A    between atoms: O_8  and  C_9
REMARK    6  A    between atoms: C_10  and  C_11
REMARK    7  A    between atoms: C_11  and  C_12
REMARK    8  A    between atoms: C_12  and  C_13
REMARK    9  A    between atoms: C_12  and  N_14
REMARK   10  A    between atoms: C_16  and  O_17
REMARK   11  A    between atoms: O_17  and  C_18
REMARK                            x       y       z     vdW  Elec       q    Type
REMARK                         _______ _______ _______ _____ _____    ______ ____
ROOT
ATOM      1  C   UNL     1       2.422   4.033  18.343  0.00  0.00    +0.000 A 
ATOM      2  C   UNL     1       2.518   5.440  18.265  0.00  0.00    +0.000 A 
ATOM      3  C   UNL     1       3.557   6.105  17.601  0.00  0.00    +0.000 A 
ATOM      4  C   UNL     1       4.546   5.347  16.951  0.00  0.00    +0.000 A 
ATOM      5  C   UNL     1       4.470   3.942  16.994  0.00  0.00    +0.000 A 
ATOM      6  C   UNL     1       3.437   3.271  17.670  0.00  0.00    +0.000 A 
ENDROOT
BRANCH   1   7
ATOM      7  C   UNL     1       1.288   3.462  19.169  0.00  0.00    +0.000 C 
ATOM      8  O   UNL     1       0.524   2.642  18.699  0.00  0.00    +0.000 OA
BRANCH   7  10
ATOM      9  C   UNL     1       2.063   3.218  21.567  0.00  0.00    +0.000 C 
ATOM     10  C   UNL     1       1.051   3.870  20.614  0.00  0.00    +0.000 C 
ENDBRANCH   7  10
ENDBRANCH   1   7
BRANCH   3  11
ATOM     11  O   UNL     1       3.632   7.465  17.601  0.00  0.00    +0.000 OA
ATOM     12  C   UNL     1       2.588   8.330  17.875  0.00  0.00    +0.000 C 
ENDBRANCH   3  11
BRANCH   6  13
ATOM     13  O   UNL     1       3.532   1.912  17.661  0.00  0.00    +0.000 OA
ATOM     14  C   UNL     1       3.903   1.059  18.680  0.00  0.00    +0.000 C 
ENDBRANCH   6  13
BRANCH   4  15
ATOM     15  C   UNL     1       5.710   6.014  16.240  0.00  0.00    +0.000 C 
BRANCH  15  16
ATOM     16  C   UNL     1       7.061   5.847  16.969  0.00  0.00    +0.000 C 
ATOM     17  C   UNL     1       6.884   5.806  18.496  0.00  0.00    +0.000 C 
BRANCH  16  18
ATOM     18  N   UNL     1       7.711   4.621  16.502  0.00  0.00    +0.000 NA
ATOM     19  H   UNL     1       7.367   4.371  15.545  0.00  0.00    +0.000 HD
ATOM     20  H   UNL     1       7.487   3.831  17.152  0.00  0.00    +0.000 HD
ENDBRANCH  16  18
ENDBRANCH  15  16
ENDBRANCH   4  15
TORSDOF 7
ENDMDL
MODEL 7
REMARK VINA RESULT:      -6.3      2.166      3.411
REMARK  Name = 
REMARK  11 active torsions:
REMARK  status: ('A' for Active; 'I' for Inactive)
REMARK    1  A    between atoms: C_1  and  C_2
REMARK    2  A    between atoms: C_2  and  C_3
REMARK    3  A    between atoms: C_3  and  C_5
REMARK    4  A    between atoms: C_7  and  O_8
REMARK    5  A    between atoms: O_8  and  C_9
REMARK    6  A    between atoms: C_10  and  C_11
REMARK    7  A    between atoms: C_11  and  C_12
REMARK    8  A    between atoms: C_12  and  C_13
REMARK    9  A    between atoms: C_12  and  N_14
REMARK   10  A    between atoms: C_16  and  O_17
REMARK   11  A    between atoms: O_17  and  C_18
REMARK                            x       y       z     vdW  Elec       q    Type
REMARK                         _______ _______ _______ _____ _____    ______ ____
ROOT
ATOM      1  C   UNL     1       4.314   5.569  17.014  0.00  0.00    +0.000 A 
ATOM      2  C   UNL     1       4.109   4.174  17.095  0.00  0.00    +0.000 A 
ATOM      3  C   UNL     1       3.082   3.590  17.848  0.00  0.00    +0.000 A 
ATOM      4  C   UNL     1       2.186   4.422  18.540  0.00  0.00    +0.000 A 
ATOM      5  C   UNL     1       2.351   5.817  18.466  0.00  0.00    +0.000 A 
ATOM      6  C   UNL     1       3.387   6.407  17.722  0.00  0.00    +0.000 A 
ENDROOT
BRANCH   1   7
ATOM      7  C   UNL     1       5.518   6.047  16.229  0.00  0.00    +0.000 C 
ATOM      8  O   UNL     1       5.386   6.589  15.150  0.00  0.00    +0.000 OA
BRANCH   7  10
ATOM      9  C   UNL     1       7.393   7.104  17.562  0.00  0.00    +0.000 C 
ATOM     10  C   UNL     1       6.939   5.886  16.746  0.00  0.00    +0.000 C 
ENDBRANCH   7  10
ENDBRANCH   1   7
BRANCH   3  11
ATOM     11  O   UNL     1       2.961   2.235  17.935  0.00  0.00    +0.000 OA
ATOM     12  C   UNL     1       3.823   1.391  18.611  0.00  0.00    +0.000 C 
ENDBRANCH   3  11
BRANCH   6  13
ATOM     13  O   UNL     1       3.441   7.767  17.791  0.00  0.00    +0.000 OA
ATOM     14  C   UNL     1       2.407   8.677  17.862  0.00  0.00    +0.000 C 
ENDBRANCH   6  13
BRANCH   4  15
ATOM     15  C   UNL     1       1.072   3.841  19.394  0.00  0.00    +0.000 C 
BRANCH  15  16
ATOM     16  C   UNL     1       1.350   3.916  20.911  0.00  0.00    +0.000 C 
ATOM     17  C   UNL     1       1.726   2.544  21.491  0.00  0.00    +0.000 C 
BRANCH  16  18
ATOM     18  N   UNL     1       2.424   4.881  21.157  0.00  0.00    +0.000 NA
ATOM     19  H   UNL     1       2.053   5.858  21.095  0.00  0.00    +0.000 HD
ATOM     20  H   UNL     1       3.175   4.765  20.437  0.00  0.00    +0.000 HD
ENDBRANCH  16  18
ENDBRANCH  15  16
ENDBRANCH   4  15
TORSDOF 7
ENDMDL
MODEL 8
REMARK VINA RESULT:      -6.3      1.392      1.598
REMARK  Name = 
REMARK  11 active torsions:
REMARK  status: ('A' for Active; 'I' for Inactive)
REMARK    1  A    between atoms: C_1  and  C_2
REMARK    2  A    between atoms: C_2  and  C_3
REMARK    3  A    between atoms: C_3  and  C_5
REMARK    4  A    between atoms: C_7  and  O_8
REMARK    5  A    between atoms: O_8  and  C_9
REMARK    6  A    between atoms: C_10  and  C_11
REMARK    7  A    between atoms: C_11  and  C_12
REMARK    8  A    between atoms: C_12  and  C_13
REMARK    9  A    between atoms: C_12  and  N_14
REMARK   10  A    between atoms: C_16  and  O_17
REMARK   11  A    between atoms: O_17  and  C_18
REMARK                            x       y       z     vdW  Elec       q    Type
REMARK                         _______ _______ _______ _____ _____    ______ ____
ROOT
ATOM      1  C   UNL     1       5.461   5.883  17.614  0.00  0.00    +0.000 A 
ATOM      2  C   UNL     1       4.402   6.460  18.348  0.00  0.00    +0.000 A 
ATOM      3  C   UNL     1       3.128   5.884  18.443  0.00  0.00    +0.000 A 
ATOM      4  C   UNL     1       2.886   4.657  17.803  0.00  0.00    +0.000 A 
ATOM      5  C   UNL     1       3.925   4.046  17.078  0.00  0.00    +0.000 A 
ATOM      6  C   UNL     1       5.201   4.626  16.970  0.00  0.00    +0.000 A 
ENDROOT
BRANCH   1   7
ATOM      7  C   UNL     1       6.755   6.666  17.535  0.00  0.00    +0.000 C 
ATOM      8  O   UNL     1       6.938   7.484  16.656  0.00  0.00    +0.000 OA
BRANCH   7  10
ATOM      9  C   UNL     1       7.497   5.491  19.652  0.00  0.00    +0.000 C 
ATOM     10  C   UNL     1       7.878   6.482  18.544  0.00  0.00    +0.000 C 
ENDBRANCH   7  10
ENDBRANCH   1   7
BRANCH   3  11
ATOM     11  O   UNL     1       2.125   6.510  19.120  0.00  0.00    +0.000 OA
ATOM     12  C   UNL     1       2.084   7.855  19.438  0.00  0.00    +0.000 C 
ENDBRANCH   3  11
BRANCH   6  13
ATOM     13  O   UNL     1       6.082   3.936  16.193  0.00  0.00    +0.000 OA
ATOM     14  C   UNL     1       6.364   4.088  14.851  0.00  0.00    +0.000 C 
ENDBRANCH   6  13
BRANCH   4  15
ATOM     15  C   UNL     1       1.516   4.002  17.849  0.00  0.00    +0.000 C 
BRANCH  15  16
ATOM     16  C   UNL     1       1.403   2.876  18.898  0.00  0.00    +0.000 C 
ATOM     17  C   UNL     1       0.995   3.419  20.277  0.00  0.00    +0.000 C 
BRANCH  16  18
ATOM     18  N   UNL     1       0.429   1.884  18.437  0.00  0.00    +0.000 NA
ATOM     19  H   UNL     1      -0.103   2.255  17.615  0.00  0.00    +0.000 HD
ATOM     20  H   UNL     1      -0.250   1.672  19.204  0.00  0.00    +0.000 HD
ENDBRANCH  16  18
ENDBRANCH  15  16
ENDBRANCH   4  15
TORSDOF 7
ENDMDL
MODEL 9
REMARK VINA RESULT:      -6.3      1.829      3.632
REMARK  Name = 
REMARK  11 active torsions:
REMARK  status: ('A' for Active; 'I' for Inactive)
REMARK    1  A    between atoms: C_1  and  C_2
REMARK    2  A    between atoms: C_2  and  C_3
REMARK    3  A    between atoms: C_3  and  C_5
REMARK    4  A    between atoms: C_7  and  O_8
REMARK    5  A    between atoms: O_8  and  C_9
REMARK    6  A    between atoms: C_10  and  C_11
REMARK    7  A    between atoms: C_11  and  C_12
REMARK    8  A    between atoms: C_12  and  C_13
REMARK    9  A    between atoms: C_12  and  N_14
REMARK   10  A    between atoms: C_16  and  O_17
REMARK   11  A    between atoms: O_17  and  C_18
REMARK                            x       y       z     vdW  Elec       q    Type
REMARK                         _______ _______ _______ _____ _____    ______ ____
ROOT
ATOM      1  C   UNL     1       5.758   5.327  16.520  0.00  0.00    +0.000 A 
ATOM      2  C   UNL     1       4.656   4.485  16.786  0.00  0.00    +0.000 A 
ATOM      3  C   UNL     1       3.501   4.916  17.451  0.00  0.00    +0.000 A 
ATOM      4  C   UNL     1       3.407   6.258  17.855  0.00  0.00    +0.000 A 
ATOM      5  C   UNL     1       4.481   7.129  17.589  0.00  0.00    +0.000 A 
ATOM      6  C   UNL     1       5.646   6.698  16.934  0.00  0.00    +0.000 A 
ENDROOT
BRANCH   1   7
ATOM      7  C   UNL     1       6.970   4.695  15.869  0.00  0.00    +0.000 C 
ATOM      8  O   UNL     1       7.820   4.139  16.536  0.00  0.00    +0.000 OA
BRANCH   7  10
ATOM      9  C   UNL     1       6.165   3.827  13.631  0.00  0.00    +0.000 C 
ATOM     10  C   UNL     1       7.184   4.711  14.363  0.00  0.00    +0.000 C 
ENDBRANCH   7  10
ENDBRANCH   1   7
BRANCH   3  11
ATOM     11  O   UNL     1       2.488   4.048  17.730  0.00  0.00    +0.000 OA
ATOM     12  C   UNL     1       2.595   2.670  17.772  0.00  0.00    +0.000 C 
ENDBRANCH   3  11
BRANCH   6  13
ATOM     13  O   UNL     1       6.612   7.648  16.796  0.00  0.00    +0.000 OA
ATOM     14  C   UNL     1       7.697   7.912  17.608  0.00  0.00    +0.000 C 
ENDBRANCH   6  13
BRANCH   4  15
ATOM     15  C   UNL     1       2.190   6.773  18.603  0.00  0.00    +0.000 C 
BRANCH  15  16
ATOM     16  C   UNL     1       2.379   6.820  20.135  0.00  0.00    +0.000 C 
ATOM     17  C   UNL     1       1.419   7.821  20.798  0.00  0.00    +0.000 C 
BRANCH  16  18
ATOM     18  N   UNL     1       2.173   5.480  20.688  0.00  0.00    +0.000 NA
ATOM     19  H   UNL     1       1.302   5.055  20.290  0.00  0.00    +0.000 HD
ATOM     20  H   UNL     1       2.069   5.538  21.727  0.00  0.00    +0.000 HD
ENDBRANCH  16  18
ENDBRANCH  15  16
ENDBRANCH   4  15
TORSDOF 7
ENDMDL
