MODEL 1
REMARK VINA RESULT:      -9.0      0.000      0.000
REMARK  Name = 
REMARK  8 active torsions:
REMARK  status: ('A' for Active; 'I' for Inactive)
REMARK    1  A    between atoms: C_1  and  C_2
REMARK    2  A    between atoms: C_2  and  C_3
REMARK    3  A    between atoms: C_3  and  C_4
REMARK    4  A    between atoms: C_4  and  C_5
REMARK    5  A    between atoms: C_5  and  N_6
REMARK    6  A    between atoms: C_8  and  C_9
REMARK    7  A    between atoms: C_9  and  C_11
REMARK    8  A    between atoms: C_22  and  C_23
REMARK                            x       y       z     vdW  Elec       q    Type
REMARK                         _______ _______ _______ _____ _____    ______ ____
ROOT
ATOM      1  N   UNL     1       2.088   6.899  19.775  0.00  0.00    +0.000 N 
ATOM      2  C   UNL     1       1.604   8.177  19.956  0.00  0.00    +0.000 A 
ATOM      3  C   UNL     1       1.696   8.876  18.773  0.00  0.00    +0.000 A 
ATOM      4  C   UNL     1       2.070   7.908  17.809  0.00  0.00    +0.000 A 
ATOM      5  C   UNL     1       2.468   6.732  18.441  0.00  0.00    +0.000 A 
ENDROOT
BRANCH   5   6
ATOM      6  C   UNL     1       3.150   5.554  17.822  0.00  0.00    +0.000 A 
ATOM      7  C   UNL     1       2.394   4.415  17.492  0.00  0.00    +0.000 A 
ATOM      8  C   UNL     1       2.972   3.285  16.921  0.00  0.00    +0.000 A 
ATOM      9  C   UNL     1       4.314   3.297  16.580  0.00  0.00    +0.000 A 
ATOM     10  C   UNL     1       5.099   4.430  16.808  0.00  0.00    +0.000 A 
ATOM     11  C   UNL     1       6.430   4.430  16.353  0.00  0.00    +0.000 A 
ATOM     12  C   UNL     1       7.253   5.536  16.529  0.00  0.00    +0.000 A 
ATOM     13  C   UNL     1       6.772   6.634  17.220  0.00  0.00    +0.000 A 
ATOM     14  C   UNL     1       5.464   6.630  17.711  0.00  0.00    +0.000 A 
ATOM     15  C   UNL     1       4.550   5.564  17.470  0.00  0.00    +0.000 A 
ENDBRANCH   5   6
BRANCH   3  16
ATOM     16  C   UNL     1       1.450  10.297  18.527  0.00  0.00    +0.000 C 
ATOM     17  O   UNL     1       2.294  10.983  17.958  0.00  0.00    +0.000 OA
BRANCH  16  18
ATOM     18  C   UNL     1       0.208  10.939  19.062  0.00  0.00    +0.000 A 
ATOM     19  C   UNL     1       0.321  11.790  20.184  0.00  0.00    +0.000 A 
ATOM     20  C   UNL     1      -0.796  12.418  20.720  0.00  0.00    +0.000 A 
ATOM     21  C   UNL     1      -2.035  12.245  20.119  0.00  0.00    +0.000 A 
ATOM     22  C   UNL     1      -2.178  11.447  18.973  0.00  0.00    +0.000 A 
ATOM     23  C   UNL     1      -3.441  11.329  18.369  0.00  0.00    +0.000 A 
ATOM     24  C   UNL     1      -3.619  10.558  17.222  0.00  0.00    +0.000 A 
ATOM     25  C   UNL     1      -2.540   9.883  16.673  0.00  0.00    +0.000 A 
ATOM     26  C   UNL     1      -1.281   9.980  17.270  0.00  0.00    +0.000 A 
ATOM     27  C   UNL     1      -1.055  10.773  18.426  0.00  0.00    +0.000 A 
ENDBRANCH  16  18
ENDBRANCH   3  16
BRANCH   1  28
ATOM     28  C   UNL     1       2.203   5.923  20.859  0.00  0.00    +0.000 C 
BRANCH  28  29
ATOM     29  C   UNL     1       1.292   4.697  20.749  0.00  0.00    +0.000 C 
BRANCH  29  30
ATOM     30  C   UNL     1       1.849   3.482  21.486  0.00  0.00    +0.000 C 
BRANCH  30  32
ATOM     31  C   UNL     1       3.905   2.547  20.359  0.00  0.00    +0.000 C 
ATOM     32  C   UNL     1       2.394   2.472  20.474  0.00  0.00    +0.000 C 
ENDBRANCH  30  32
ENDBRANCH  29  30
ENDBRANCH  28  29
ENDBRANCH   1  28
TORSDOF 7
ENDMDL
MODEL 2
REMARK VINA RESULT:      -8.3      0.545      2.027
REMARK  Name = 
REMARK  8 active torsions:
REMARK  status: ('A' for Active; 'I' for Inactive)
REMARK    1  A    between atoms: C_1  and  C_2
REMARK    2  A    between atoms: C_2  and  C_3
REMARK    3  A    between atoms: C_3  and  C_4
REMARK    4  A    between atoms: C_4  and  C_5
REMARK    5  A    between atoms: C_5  and  N_6
REMARK    6  A    between atoms: C_8  and  C_9
REMARK    7  A    between atoms: C_9  and  C_11
REMARK    8  A    between atoms: C_22  and  C_23
REMARK                            x       y       z     vdW  Elec       q    Type
REMARK                         _______ _______ _______ _____ _____    ______ ____
ROOT
ATOM      1  N   UNL     1       2.109   6.901  19.787  0.00  0.00    +0.000 N 
ATOM      2  C   UNL     1       1.581   8.165  19.950  0.00  0.00    +0.000 A 
ATOM      3  C   UNL     1       1.601   8.831  18.745  0.00  0.00    +0.000 A 
ATOM      4  C   UNL     1       1.978   7.850  17.794  0.00  0.00    +0.000 A 
ATOM      5  C   UNL     1       2.446   6.710  18.444  0.00  0.00    +0.000 A 
ENDROOT
BRANCH   5   6
ATOM      6  C   UNL     1       3.151   5.541  17.833  0.00  0.00    +0.000 A 
ATOM      7  C   UNL     1       2.419   4.382  17.518  0.00  0.00    +0.000 A 
ATOM      8  C   UNL     1       3.019   3.261  16.954  0.00  0.00    +0.000 A 
ATOM      9  C   UNL     1       4.359   3.298  16.608  0.00  0.00    +0.000 A 
ATOM     10  C   UNL     1       5.120   4.451  16.822  0.00  0.00    +0.000 A 
ATOM     11  C   UNL     1       6.448   4.476  16.361  0.00  0.00    +0.000 A 
ATOM     12  C   UNL     1       7.248   5.602  16.523  0.00  0.00    +0.000 A 
ATOM     13  C   UNL     1       6.746   6.695  17.205  0.00  0.00    +0.000 A 
ATOM     14  C   UNL     1       5.440   6.667  17.702  0.00  0.00    +0.000 A 
ATOM     15  C   UNL     1       4.549   5.579  17.475  0.00  0.00    +0.000 A 
ENDBRANCH   5   6
BRANCH   3  16
ATOM     16  C   UNL     1       1.290  10.233  18.468  0.00  0.00    +0.000 C 
ATOM     17  O   UNL     1       2.190  11.033  18.226  0.00  0.00    +0.000 OA
BRANCH  16  18
ATOM     18  C   UNL     1      -0.123  10.716  18.580  0.00  0.00    +0.000 A 
ATOM     19  C   UNL     1      -1.057  10.296  17.608  0.00  0.00    +0.000 A 
ATOM     20  C   UNL     1      -2.383  10.706  17.664  0.00  0.00    +0.000 A 
ATOM     21  C   UNL     1      -2.809  11.506  18.717  0.00  0.00    +0.000 A 
ATOM     22  C   UNL     1      -1.921  11.902  19.729  0.00  0.00    +0.000 A 
ATOM     23  C   UNL     1      -2.398  12.677  20.800  0.00  0.00    +0.000 A 
ATOM     24  C   UNL     1      -1.551  13.077  21.831  0.00  0.00    +0.000 A 
ATOM     25  C   UNL     1      -0.211  12.722  21.797  0.00  0.00    +0.000 A 
ATOM     26  C   UNL     1       0.282  11.963  20.732  0.00  0.00    +0.000 A 
ATOM     27  C   UNL     1      -0.556  11.518  19.675  0.00  0.00    +0.000 A 
ENDBRANCH  16  18
ENDBRANCH   3  16
BRANCH   1  28
ATOM     28  C   UNL     1       2.303   5.964  20.893  0.00  0.00    +0.000 C 
BRANCH  28  29
ATOM     29  C   UNL     1       1.466   4.683  20.832  0.00  0.00    +0.000 C 
BRANCH  29  30
ATOM     30  C   UNL     1       2.115   3.520  21.578  0.00  0.00    +0.000 C 
BRANCH  30  32
ATOM     31  C   UNL     1       4.057   2.511  20.320  0.00  0.00    +0.000 C 
ATOM     32  C   UNL     1       2.563   2.453  20.577  0.00  0.00    +0.000 C 
ENDBRANCH  30  32
ENDBRANCH  29  30
ENDBRANCH  28  29
ENDBRANCH   1  28
TORSDOF 7
ENDMDL
MODEL 3
REMARK VINA RESULT:      -8.3      1.836      8.177
REMARK  Name = 
REMARK  8 active torsions:
REMARK  status: ('A' for Active; 'I' for Inactive)
REMARK    1  A    between atoms: C_1  and  C_2
REMARK    2  A    between atoms: C_2  and  C_3
REMARK    3  A    between atoms: C_3  and  C_4
REMARK    4  A    between atoms: C_4  and  C_5
REMARK    5  A    between atoms: C_5  and  N_6
REMARK    6  A    between atoms: C_8  and  C_9
REMARK    7  A    between atoms: C_9  and  C_11
REMARK    8  A    between atoms: C_22  and  C_23
REMARK                            x       y       z     vdW  Elec       q    Type
REMARK                         _______ _______ _______ _____ _____    ______ ____
ROOT
ATOM      1  N   UNL     1       1.066   8.592  20.193  0.00  0.00    +0.000 N 
ATOM      2  C   UNL     1       2.052   7.705  19.817  0.00  0.00    +0.000 A 
ATOM      3  C   UNL     1       2.467   7.994  18.536  0.00  0.00    +0.000 A 
ATOM      4  C   UNL     1       1.837   9.223  18.219  0.00  0.00    +0.000 A 
ATOM      5  C   UNL     1       0.853   9.512  19.163  0.00  0.00    +0.000 A 
ENDROOT
BRANCH   5   6
ATOM      6  C   UNL     1      -0.194  10.576  19.085  0.00  0.00    +0.000 A 
ATOM      7  C   UNL     1      -1.466  10.255  18.577  0.00  0.00    +0.000 A 
ATOM      8  C   UNL     1      -2.480  11.203  18.473  0.00  0.00    +0.000 A 
ATOM      9  C   UNL     1      -2.277  12.484  18.958  0.00  0.00    +0.000 A 
ATOM     10  C   UNL     1      -1.062  12.839  19.549  0.00  0.00    +0.000 A 
ATOM     11  C   UNL     1      -0.940  14.119  20.118  0.00  0.00    +0.000 A 
ATOM     12  C   UNL     1       0.236  14.523  20.742  0.00  0.00    +0.000 A 
ATOM     13  C   UNL     1       1.325  13.671  20.747  0.00  0.00    +0.000 A 
ATOM     14  C   UNL     1       1.228  12.411  20.150  0.00  0.00    +0.000 A 
ATOM     15  C   UNL     1       0.017  11.913  19.588  0.00  0.00    +0.000 A 
ENDBRANCH   5   6
BRANCH   3  16
ATOM     16  C   UNL     1       3.373   7.236  17.673  0.00  0.00    +0.000 C 
ATOM     17  O   UNL     1       3.580   7.599  16.519  0.00  0.00    +0.000 OA
BRANCH  16  18
ATOM     18  C   UNL     1       3.970   5.954  18.167  0.00  0.00    +0.000 A 
ATOM     19  C   UNL     1       5.304   5.970  18.633  0.00  0.00    +0.000 A 
ATOM     20  C   UNL     1       5.908   4.813  19.109  0.00  0.00    +0.000 A 
ATOM     21  C   UNL     1       5.179   3.633  19.171  0.00  0.00    +0.000 A 
ATOM     22  C   UNL     1       3.836   3.591  18.762  0.00  0.00    +0.000 A 
ATOM     23  C   UNL     1       3.118   2.389  18.878  0.00  0.00    +0.000 A 
ATOM     24  C   UNL     1       1.781   2.312  18.497  0.00  0.00    +0.000 A 
ATOM     25  C   UNL     1       1.146   3.432  17.982  0.00  0.00    +0.000 A 
ATOM     26  C   UNL     1       1.850   4.631  17.849  0.00  0.00    +0.000 A 
ATOM     27  C   UNL     1       3.208   4.754  18.246  0.00  0.00    +0.000 A 
ENDBRANCH  16  18
ENDBRANCH   3  16
BRANCH   1  28
ATOM     28  C   UNL     1       0.356   8.509  21.470  0.00  0.00    +0.000 C 
BRANCH  28  29
ATOM     29  C   UNL     1       0.507   9.722  22.393  0.00  0.00    +0.000 C 
BRANCH  29  30
ATOM     30  C   UNL     1      -0.802  10.105  23.079  0.00  0.00    +0.000 C 
BRANCH  30  32
ATOM     31  C   UNL     1      -2.484  11.987  23.115  0.00  0.00    +0.000 C 
ATOM     32  C   UNL     1      -1.021  11.614  22.961  0.00  0.00    +0.000 C 
ENDBRANCH  30  32
ENDBRANCH  29  30
ENDBRANCH  28  29
ENDBRANCH   1  28
TORSDOF 7
ENDMDL
MODEL 4
REMARK VINA RESULT:      -8.2      2.137      8.241
REMARK  Name = 
REMARK  8 active torsions:
REMARK  status: ('A' for Active; 'I' for Inactive)
REMARK    1  A    between atoms: C_1  and  C_2
REMARK    2  A    between atoms: C_2  and  C_3
REMARK    3  A    between atoms: C_3  and  C_4
REMARK    4  A    between atoms: C_4  and  C_5
REMARK    5  A    between atoms: C_5  and  N_6
REMARK    6  A    between atoms: C_8  and  C_9
REMARK    7  A    between atoms: C_9  and  C_11
REMARK    8  A    between atoms: C_22  and  C_23
REMARK                            x       y       z     vdW  Elec       q    Type
REMARK                         _______ _______ _______ _____ _____    ______ ____
ROOT
ATOM      1  N   UNL     1       1.628   8.454  20.142  0.00  0.00    +0.000 N 
ATOM      2  C   UNL     1       2.382   7.308  20.005  0.00  0.00    +0.000 A 
ATOM      3  C   UNL     1       2.497   6.990  18.670  0.00  0.00    +0.000 A 
ATOM      4  C   UNL     1       1.951   8.102  17.983  0.00  0.00    +0.000 A 
ATOM      5  C   UNL     1       1.272   8.928  18.876  0.00  0.00    +0.000 A 
ENDROOT
BRANCH   5   6
ATOM      6  C   UNL     1       0.365  10.071  18.546  0.00  0.00    +0.000 A 
ATOM      7  C   UNL     1      -0.956   9.807  18.142  0.00  0.00    +0.000 A 
ATOM      8  C   UNL     1      -1.845  10.826  17.815  0.00  0.00    +0.000 A 
ATOM      9  C   UNL     1      -1.463  12.149  17.968  0.00  0.00    +0.000 A 
ATOM     10  C   UNL     1      -0.189  12.473  18.444  0.00  0.00    +0.000 A 
ATOM     11  C   UNL     1       0.116  13.825  18.679  0.00  0.00    +0.000 A 
ATOM     12  C   UNL     1       1.357  14.209  19.175  0.00  0.00    +0.000 A 
ATOM     13  C   UNL     1       2.329  13.248  19.382  0.00  0.00    +0.000 A 
ATOM     14  C   UNL     1       2.050  11.904  19.115  0.00  0.00    +0.000 A 
ATOM     15  C   UNL     1       0.764  11.449  18.702  0.00  0.00    +0.000 A 
ENDBRANCH   5   6
BRANCH   3  16
ATOM     16  C   UNL     1       3.069   5.789  18.061  0.00  0.00    +0.000 C 
ATOM     17  O   UNL     1       2.337   4.916  17.604  0.00  0.00    +0.000 OA
BRANCH  16  18
ATOM     18  C   UNL     1       4.551   5.577  18.087  0.00  0.00    +0.000 A 
ATOM     19  C   UNL     1       5.216   5.629  19.332  0.00  0.00    +0.000 A 
ATOM     20  C   UNL     1       6.588   5.433  19.419  0.00  0.00    +0.000 A 
ATOM     21  C   UNL     1       7.313   5.137  18.272  0.00  0.00    +0.000 A 
ATOM     22  C   UNL     1       6.679   5.028  17.024  0.00  0.00    +0.000 A 
ATOM     23  C   UNL     1       7.439   4.686  15.893  0.00  0.00    +0.000 A 
ATOM     24  C   UNL     1       6.843   4.555  14.640  0.00  0.00    +0.000 A 
ATOM     25  C   UNL     1       5.482   4.777  14.499  0.00  0.00    +0.000 A 
ATOM     26  C   UNL     1       4.715   5.130  15.612  0.00  0.00    +0.000 A 
ATOM     27  C   UNL     1       5.282   5.252  16.908  0.00  0.00    +0.000 A 
ENDBRANCH  16  18
ENDBRANCH   3  16
BRANCH   1  28
ATOM     28  C   UNL     1       1.251   9.017  21.439  0.00  0.00    +0.000 C 
BRANCH  28  29
ATOM     29  C   UNL     1      -0.232   8.913  21.802  0.00  0.00    +0.000 C 
BRANCH  29  30
ATOM     30  C   UNL     1      -0.704  10.062  22.689  0.00  0.00    +0.000 C 
BRANCH  30  32
ATOM     31  C   UNL     1      -0.456  12.519  22.167  0.00  0.00    +0.000 C 
ATOM     32  C   UNL     1      -1.170  11.228  21.815  0.00  0.00    +0.000 C 
ENDBRANCH  30  32
ENDBRANCH  29  30
ENDBRANCH  28  29
ENDBRANCH   1  28
TORSDOF 7
ENDMDL
MODEL 5
REMARK VINA RESULT:      -8.1      1.727      8.195
REMARK  Name = 
REMARK  8 active torsions:
REMARK  status: ('A' for Active; 'I' for Inactive)
REMARK    1  A    between atoms: C_1  and  C_2
REMARK    2  A    between atoms: C_2  and  C_3
REMARK    3  A    between atoms: C_3  and  C_4
REMARK    4  A    between atoms: C_4  and  C_5
REMARK    5  A    between atoms: C_5  and  N_6
REMARK    6  A    between atoms: C_8  and  C_9
REMARK    7  A    between atoms: C_9  and  C_11
REMARK    8  A    between atoms: C_22  and  C_23
REMARK                            x       y       z     vdW  Elec       q    Type
REMARK                         _______ _______ _______ _____ _____    ______ ____
ROOT
ATOM      1  N   UNL     1       1.194   8.613  20.065  0.00  0.00    +0.000 N 
ATOM      2  C   UNL     1       2.093   7.663  19.628  0.00  0.00    +0.000 A 
ATOM      3  C   UNL     1       2.598   8.036  18.402  0.00  0.00    +0.000 A 
ATOM      4  C   UNL     1       2.122   9.355  18.201  0.00  0.00    +0.000 A 
ATOM      5  C   UNL     1       1.132   9.655  19.136  0.00  0.00    +0.000 A 
ENDROOT
BRANCH   5   6
ATOM      6  C   UNL     1       0.213  10.834  19.139  0.00  0.00    +0.000 A 
ATOM      7  C   UNL     1       0.698  12.085  19.561  0.00  0.00    +0.000 A 
ATOM      8  C   UNL     1      -0.110  13.217  19.593  0.00  0.00    +0.000 A 
ATOM      9  C   UNL     1      -1.410  13.149  19.119  0.00  0.00    +0.000 A 
ATOM     10  C   UNL     1      -1.922  11.952  18.611  0.00  0.00    +0.000 A 
ATOM     11  C   UNL     1      -3.211  11.958  18.048  0.00  0.00    +0.000 A 
ATOM     12  C   UNL     1      -3.766  10.805  17.504  0.00  0.00    +0.000 A 
ATOM     13  C   UNL     1      -3.062   9.617  17.576  0.00  0.00    +0.000 A 
ATOM     14  C   UNL     1      -1.796   9.591  18.168  0.00  0.00    +0.000 A 
ATOM     15  C   UNL     1      -1.142  10.762  18.648  0.00  0.00    +0.000 A 
ENDBRANCH   5   6
BRANCH   3  16
ATOM     16  C   UNL     1       3.454   7.275  17.493  0.00  0.00    +0.000 C 
ATOM     17  O   UNL     1       3.601   7.637  16.329  0.00  0.00    +0.000 OA
BRANCH  16  18
ATOM     18  C   UNL     1       4.072   5.992  17.956  0.00  0.00    +0.000 A 
ATOM     19  C   UNL     1       5.433   5.999  18.334  0.00  0.00    +0.000 A 
ATOM     20  C   UNL     1       6.059   4.841  18.777  0.00  0.00    +0.000 A 
ATOM     21  C   UNL     1       5.326   3.667  18.894  0.00  0.00    +0.000 A 
ATOM     22  C   UNL     1       3.960   3.633  18.574  0.00  0.00    +0.000 A 
ATOM     23  C   UNL     1       3.242   2.437  18.744  0.00  0.00    +0.000 A 
ATOM     24  C   UNL     1       1.881   2.368  18.451  0.00  0.00    +0.000 A 
ATOM     25  C   UNL     1       1.223   3.490  17.971  0.00  0.00    +0.000 A 
ATOM     26  C   UNL     1       1.926   4.683  17.785  0.00  0.00    +0.000 A 
ATOM     27  C   UNL     1       3.307   4.798  18.092  0.00  0.00    +0.000 A 
ENDBRANCH  16  18
ENDBRANCH   3  16
BRANCH   1  28
ATOM     28  C   UNL     1       0.420   8.477  21.299  0.00  0.00    +0.000 C 
BRANCH  28  29
ATOM     29  C   UNL     1       0.950   9.259  22.504  0.00  0.00    +0.000 C 
BRANCH  29  30
ATOM     30  C   UNL     1      -0.165   9.887  23.336  0.00  0.00    +0.000 C 
BRANCH  30  32
ATOM     31  C   UNL     1      -1.281  12.120  22.968  0.00  0.00    +0.000 C 
ATOM     32  C   UNL     1      -1.077  10.717  22.430  0.00  0.00    +0.000 C 
ENDBRANCH  30  32
ENDBRANCH  29  30
ENDBRANCH  28  29
ENDBRANCH   1  28
TORSDOF 7
ENDMDL
MODEL 6
REMARK VINA RESULT:      -8.0      0.711      2.095
REMARK  Name = 
REMARK  8 active torsions:
REMARK  status: ('A' for Active; 'I' for Inactive)
REMARK    1  A    between atoms: C_1  and  C_2
REMARK    2  A    between atoms: C_2  and  C_3
REMARK    3  A    between atoms: C_3  and  C_4
REMARK    4  A    between atoms: C_4  and  C_5
REMARK    5  A    between atoms: C_5  and  N_6
REMARK    6  A    between atoms: C_8  and  C_9
REMARK    7  A    between atoms: C_9  and  C_11
REMARK    8  A    between atoms: C_22  and  C_23
REMARK                            x       y       z     vdW  Elec       q    Type
REMARK                         _______ _______ _______ _____ _____    ______ ____
ROOT
ATOM      1  N   UNL     1       2.113   7.425  19.665  0.00  0.00    +0.000 N 
ATOM      2  C   UNL     1       1.438   8.619  19.810  0.00  0.00    +0.000 A 
ATOM      3  C   UNL     1       1.671   9.415  18.711  0.00  0.00    +0.000 A 
ATOM      4  C   UNL     1       2.353   8.578  17.794  0.00  0.00    +0.000 A 
ATOM      5  C   UNL     1       2.770   7.411  18.432  0.00  0.00    +0.000 A 
ENDROOT
BRANCH   5   6
ATOM      6  C   UNL     1       3.710   6.374  17.906  0.00  0.00    +0.000 A 
ATOM      7  C   UNL     1       5.071   6.695  17.749  0.00  0.00    +0.000 A 
ATOM      8  C   UNL     1       5.994   5.776  17.258  0.00  0.00    +0.000 A 
ATOM      9  C   UNL     1       5.596   4.477  16.990  0.00  0.00    +0.000 A 
ATOM     10  C   UNL     1       4.273   4.077  17.203  0.00  0.00    +0.000 A 
ATOM     11  C   UNL     1       3.942   2.724  17.014  0.00  0.00    +0.000 A 
ATOM     12  C   UNL     1       2.649   2.260  17.233  0.00  0.00    +0.000 A 
ATOM     13  C   UNL     1       1.659   3.159  17.584  0.00  0.00    +0.000 A 
ATOM     14  C   UNL     1       1.969   4.514  17.738  0.00  0.00    +0.000 A 
ATOM     15  C   UNL     1       3.295   5.021  17.623  0.00  0.00    +0.000 A 
ENDBRANCH   5   6
BRANCH   3  16
ATOM     16  C   UNL     1       1.294  10.812  18.495  0.00  0.00    +0.000 C 
ATOM     17  O   UNL     1       2.087  11.597  17.983  0.00  0.00    +0.000 OA
BRANCH  16  18
ATOM     18  C   UNL     1      -0.028  11.310  18.994  0.00  0.00    +0.000 A 
ATOM     19  C   UNL     1      -0.039  12.205  20.086  0.00  0.00    +0.000 A 
ATOM     20  C   UNL     1      -1.234  12.705  20.588  0.00  0.00    +0.000 A 
ATOM     21  C   UNL     1      -2.433  12.357  19.980  0.00  0.00    +0.000 A 
ATOM     22  C   UNL     1      -2.457  11.510  18.861  0.00  0.00    +0.000 A 
ATOM     23  C   UNL     1      -3.685  11.213  18.247  0.00  0.00    +0.000 A 
ATOM     24  C   UNL     1      -3.747  10.388  17.126  0.00  0.00    +0.000 A 
ATOM     25  C   UNL     1      -2.584   9.836  16.613  0.00  0.00    +0.000 A 
ATOM     26  C   UNL     1      -1.356  10.111  17.220  0.00  0.00    +0.000 A 
ATOM     27  C   UNL     1      -1.250  10.965  18.350  0.00  0.00    +0.000 A 
ENDBRANCH  16  18
ENDBRANCH   3  16
BRANCH   1  28
ATOM     28  C   UNL     1       2.138   6.388  20.696  0.00  0.00    +0.000 C 
BRANCH  28  29
ATOM     29  C   UNL     1       0.976   5.392  20.664  0.00  0.00    +0.000 C 
BRANCH  29  30
ATOM     30  C   UNL     1       1.404   3.974  21.035  0.00  0.00    +0.000 C 
BRANCH  30  32
ATOM     31  C   UNL     1       3.435   2.495  20.794  0.00  0.00    +0.000 C 
ATOM     32  C   UNL     1       2.931   3.896  21.087  0.00  0.00    +0.000 C 
ENDBRANCH  30  32
ENDBRANCH  29  30
ENDBRANCH  28  29
ENDBRANCH   1  28
TORSDOF 7
ENDMDL
MODEL 7
REMARK VINA RESULT:      -8.0      1.100      2.972
REMARK  Name = 
REMARK  8 active torsions:
REMARK  status: ('A' for Active; 'I' for Inactive)
REMARK    1  A    between atoms: C_1  and  C_2
REMARK    2  A    between atoms: C_2  and  C_3
REMARK    3  A    between atoms: C_3  and  C_4
REMARK    4  A    between atoms: C_4  and  C_5
REMARK    5  A    between atoms: C_5  and  N_6
REMARK    6  A    between atoms: C_8  and  C_9
REMARK    7  A    between atoms: C_9  and  C_11
REMARK    8  A    between atoms: C_22  and  C_23
REMARK                            x       y       z     vdW  Elec       q    Type
REMARK                         _______ _______ _______ _____ _____    ______ ____
ROOT
ATOM      1  N   UNL     1       1.824   7.963  19.717  0.00  0.00    +0.000 N 
ATOM      2  C   UNL     1       0.928   9.002  19.855  0.00  0.00    +0.000 A 
ATOM      3  C   UNL     1       0.839   9.694  18.667  0.00  0.00    +0.000 A 
ATOM      4  C   UNL     1       1.565   8.911  17.736  0.00  0.00    +0.000 A 
ATOM      5  C   UNL     1       2.305   7.938  18.405  0.00  0.00    +0.000 A 
ENDROOT
BRANCH   5   6
ATOM      6  C   UNL     1       3.375   7.061  17.837  0.00  0.00    +0.000 A 
ATOM      7  C   UNL     1       4.660   7.591  17.624  0.00  0.00    +0.000 A 
ATOM      8  C   UNL     1       5.695   6.828  17.093  0.00  0.00    +0.000 A 
ATOM      9  C   UNL     1       5.496   5.481  16.839  0.00  0.00    +0.000 A 
ATOM     10  C   UNL     1       4.264   4.878  17.107  0.00  0.00    +0.000 A 
ATOM     11  C   UNL     1       4.142   3.489  16.928  0.00  0.00    +0.000 A 
ATOM     12  C   UNL     1       2.950   2.828  17.200  0.00  0.00    +0.000 A 
ATOM     13  C   UNL     1       1.846   3.560  17.595  0.00  0.00    +0.000 A 
ATOM     14  C   UNL     1       1.944   4.948  17.738  0.00  0.00    +0.000 A 
ATOM     15  C   UNL     1       3.167   5.658  17.569  0.00  0.00    +0.000 A 
ENDBRANCH   5   6
BRANCH   3  16
ATOM     16  C   UNL     1       0.140  10.949  18.388  0.00  0.00    +0.000 C 
ATOM     17  O   UNL     1       0.736  12.020  18.461  0.00  0.00    +0.000 OA
BRANCH  16  18
ATOM     18  C   UNL     1      -1.331  10.934  18.112  0.00  0.00    +0.000 A 
ATOM     19  C   UNL     1      -1.814  10.094  17.084  0.00  0.00    +0.000 A 
ATOM     20  C   UNL     1      -3.170  10.034  16.787  0.00  0.00    +0.000 A 
ATOM     21  C   UNL     1      -4.071  10.775  17.540  0.00  0.00    +0.000 A 
ATOM     22  C   UNL     1      -3.633  11.583  18.602  0.00  0.00    +0.000 A 
ATOM     23  C   UNL     1      -4.578  12.286  19.367  0.00  0.00    +0.000 A 
ATOM     24  C   UNL     1      -4.183  13.086  20.438  0.00  0.00    +0.000 A 
ATOM     25  C   UNL     1      -2.837  13.205  20.748  0.00  0.00    +0.000 A 
ATOM     26  C   UNL     1      -1.885  12.523  19.988  0.00  0.00    +0.000 A 
ATOM     27  C   UNL     1      -2.250  11.681  18.904  0.00  0.00    +0.000 A 
ENDBRANCH  16  18
ENDBRANCH   3  16
BRANCH   1  28
ATOM     28  C   UNL     1       2.207   7.082  20.820  0.00  0.00    +0.000 C 
BRANCH  28  29
ATOM     29  C   UNL     1       1.376   5.803  20.966  0.00  0.00    +0.000 C 
BRANCH  29  30
ATOM     30  C   UNL     1       2.240   4.561  21.167  0.00  0.00    +0.000 C 
BRANCH  30  32
ATOM     31  C   UNL     1       1.503   2.322  22.070  0.00  0.00    +0.000 C 
ATOM     32  C   UNL     1       1.400   3.306  20.921  0.00  0.00    +0.000 C 
ENDBRANCH  30  32
ENDBRANCH  29  30
ENDBRANCH  28  29
ENDBRANCH   1  28
TORSDOF 7
ENDMDL
MODEL 8
REMARK VINA RESULT:      -7.8      1.951      8.106
REMARK  Name = 
REMARK  8 active torsions:
REMARK  status: ('A' for Active; 'I' for Inactive)
REMARK    1  A    between atoms: C_1  and  C_2
REMARK    2  A    between atoms: C_2  and  C_3
REMARK    3  A    between atoms: C_3  and  C_4
REMARK    4  A    between atoms: C_4  and  C_5
REMARK    5  A    between atoms: C_5  and  N_6
REMARK    6  A    between atoms: C_8  and  C_9
REMARK    7  A    between atoms: C_9  and  C_11
REMARK    8  A    between atoms: C_22  and  C_23
REMARK                            x       y       z     vdW  Elec       q    Type
REMARK                         _______ _______ _______ _____ _____    ______ ____
ROOT
ATOM      1  N   UNL     1       0.968   8.408  20.284  0.00  0.00    +0.000 N 
ATOM      2  C   UNL     1       1.894   7.387  20.273  0.00  0.00    +0.000 A 
ATOM      3  C   UNL     1       2.541   7.365  19.058  0.00  0.00    +0.000 A 
ATOM      4  C   UNL     1       2.114   8.543  18.398  0.00  0.00    +0.000 A 
ATOM      5  C   UNL     1       1.030   9.102  19.073  0.00  0.00    +0.000 A 
ENDROOT
BRANCH   5   6
ATOM      6  C   UNL     1       0.136  10.204  18.601  0.00  0.00    +0.000 A 
ATOM      7  C   UNL     1      -1.026   9.885  17.876  0.00  0.00    +0.000 A 
ATOM      8  C   UNL     1      -1.893  10.866  17.403  0.00  0.00    +0.000 A 
ATOM      9  C   UNL     1      -1.668  12.195  17.719  0.00  0.00    +0.000 A 
ATOM     10  C   UNL     1      -0.573  12.565  18.506  0.00  0.00    +0.000 A 
ATOM     11  C   UNL     1      -0.443  13.913  18.884  0.00  0.00    +0.000 A 
ATOM     12  C   UNL     1       0.611  14.340  19.685  0.00  0.00    +0.000 A 
ATOM     13  C   UNL     1       1.582  13.431  20.064  0.00  0.00    +0.000 A 
ATOM     14  C   UNL     1       1.484  12.096  19.662  0.00  0.00    +0.000 A 
ATOM     15  C   UNL     1       0.373  11.590  18.927  0.00  0.00    +0.000 A 
ENDBRANCH   5   6
BRANCH   3  16
ATOM     16  C   UNL     1       3.482   6.372  18.538  0.00  0.00    +0.000 C 
ATOM     17  O   UNL     1       4.609   6.710  18.186  0.00  0.00    +0.000 OA
BRANCH  16  18
ATOM     18  C   UNL     1       3.034   4.957  18.338  0.00  0.00    +0.000 A 
ATOM     19  C   UNL     1       3.116   4.403  17.042  0.00  0.00    +0.000 A 
ATOM     20  C   UNL     1       2.721   3.094  16.797  0.00  0.00    +0.000 A 
ATOM     21  C   UNL     1       2.281   2.302  17.850  0.00  0.00    +0.000 A 
ATOM     22  C   UNL     1       2.233   2.803  19.161  0.00  0.00    +0.000 A 
ATOM     23  C   UNL     1       1.822   1.959  20.206  0.00  0.00    +0.000 A 
ATOM     24  C   UNL     1       1.775   2.416  21.521  0.00  0.00    +0.000 A 
ATOM     25  C   UNL     1       2.125   3.727  21.807  0.00  0.00    +0.000 A 
ATOM     26  C   UNL     1       2.524   4.581  20.777  0.00  0.00    +0.000 A 
ATOM     27  C   UNL     1       2.605   4.147  19.428  0.00  0.00    +0.000 A 
ENDBRANCH  16  18
ENDBRANCH   3  16
BRANCH   1  28
ATOM     28  C   UNL     1       0.057   8.653  21.402  0.00  0.00    +0.000 C 
BRANCH  28  29
ATOM     29  C   UNL     1       0.565   9.626  22.471  0.00  0.00    +0.000 C 
BRANCH  29  30
ATOM     30  C   UNL     1      -0.565  10.393  23.153  0.00  0.00    +0.000 C 
BRANCH  30  32
ATOM     31  C   UNL     1      -1.124  12.815  22.712  0.00  0.00    +0.000 C 
ATOM     32  C   UNL     1      -1.169  11.399  22.171  0.00  0.00    +0.000 C 
ENDBRANCH  30  32
ENDBRANCH  29  30
ENDBRANCH  28  29
ENDBRANCH   1  28
TORSDOF 7
ENDMDL
MODEL 9
REMARK VINA RESULT:      -7.6      1.173      1.409
REMARK  Name = 
REMARK  8 active torsions:
REMARK  status: ('A' for Active; 'I' for Inactive)
REMARK    1  A    between atoms: C_1  and  C_2
REMARK    2  A    between atoms: C_2  and  C_3
REMARK    3  A    between atoms: C_3  and  C_4
REMARK    4  A    between atoms: C_4  and  C_5
REMARK    5  A    between atoms: C_5  and  N_6
REMARK    6  A    between atoms: C_8  and  C_9
REMARK    7  A    between atoms: C_9  and  C_11
REMARK    8  A    between atoms: C_22  and  C_23
REMARK                            x       y       z     vdW  Elec       q    Type
REMARK                         _______ _______ _______ _____ _____    ______ ____
ROOT
ATOM      1  N   UNL     1       2.633   6.527  19.211  0.00  0.00    +0.000 N 
ATOM      2  C   UNL     1       1.946   7.704  19.422  0.00  0.00    +0.000 A 
ATOM      3  C   UNL     1       2.206   8.580  18.392  0.00  0.00    +0.000 A 
ATOM      4  C   UNL     1       2.921   7.814  17.437  0.00  0.00    +0.000 A 
ATOM      5  C   UNL     1       3.326   6.606  18.000  0.00  0.00    +0.000 A 
ENDROOT
BRANCH   5   6
ATOM      6  C   UNL     1       4.288   5.614  17.428  0.00  0.00    +0.000 A 
ATOM      7  C   UNL     1       3.933   4.899  16.269  0.00  0.00    +0.000 A 
ATOM      8  C   UNL     1       4.783   3.959  15.694  0.00  0.00    +0.000 A 
ATOM      9  C   UNL     1       6.053   3.770  16.213  0.00  0.00    +0.000 A 
ATOM     10  C   UNL     1       6.491   4.510  17.314  0.00  0.00    +0.000 A 
ATOM     11  C   UNL     1       7.822   4.355  17.741  0.00  0.00    +0.000 A 
ATOM     12  C   UNL     1       8.325   5.082  18.815  0.00  0.00    +0.000 A 
ATOM     13  C   UNL     1       7.482   5.925  19.514  0.00  0.00    +0.000 A 
ATOM     14  C   UNL     1       6.146   6.058  19.123  0.00  0.00    +0.000 A 
ATOM     15  C   UNL     1       5.610   5.414  17.970  0.00  0.00    +0.000 A 
ENDBRANCH   5   6
BRANCH   3  16
ATOM     16  C   UNL     1       1.827   9.987  18.267  0.00  0.00    +0.000 C 
ATOM     17  O   UNL     1       2.507  10.756  17.593  0.00  0.00    +0.000 OA
BRANCH  16  18
ATOM     18  C   UNL     1       0.664  10.515  19.048  0.00  0.00    +0.000 A 
ATOM     19  C   UNL     1       0.914  11.121  20.299  0.00  0.00    +0.000 A 
ATOM     20  C   UNL     1      -0.125  11.635  21.066  0.00  0.00    +0.000 A 
ATOM     21  C   UNL     1      -1.424  11.592  20.577  0.00  0.00    +0.000 A 
ATOM     22  C   UNL     1      -1.705  11.041  19.316  0.00  0.00    +0.000 A 
ATOM     23  C   UNL     1      -3.026  11.053  18.838  0.00  0.00    +0.000 A 
ATOM     24  C   UNL     1      -3.341  10.529  17.586  0.00  0.00    +0.000 A 
ATOM     25  C   UNL     1      -2.342   9.974  16.801  0.00  0.00    +0.000 A 
ATOM     26  C   UNL     1      -1.026   9.943  17.269  0.00  0.00    +0.000 A 
ATOM     27  C   UNL     1      -0.662  10.486  18.529  0.00  0.00    +0.000 A 
ENDBRANCH  16  18
ENDBRANCH   3  16
BRANCH   1  28
ATOM     28  C   UNL     1       2.634   5.417  20.164  0.00  0.00    +0.000 C 
BRANCH  28  29
ATOM     29  C   UNL     1       1.263   4.807  20.473  0.00  0.00    +0.000 C 
BRANCH  29  30
ATOM     30  C   UNL     1       1.153   3.351  20.029  0.00  0.00    +0.000 C 
BRANCH  30  32
ATOM     31  C   UNL     1       2.317   2.218  18.097  0.00  0.00    +0.000 C 
ATOM     32  C   UNL     1       1.299   3.265  18.508  0.00  0.00    +0.000 C 
ENDBRANCH  30  32
ENDBRANCH  29  30
ENDBRANCH  28  29
ENDBRANCH   1  28
TORSDOF 7
ENDMDL
