MODEL 1
REMARK VINA RESULT:      -6.7      0.000      0.000
REMARK  Name = 
REMARK  4 active torsions:
REMARK  status: ('A' for Active; 'I' for Inactive)
REMARK    1  A    between atoms: C_1  and  C_2
REMARK    2  A    between atoms: C_2  and  N_3
REMARK    3  A    between atoms: N_5  and  C_6
REMARK    4  A    between atoms: C_13  and  C_14
REMARK                            x       y       z     vdW  Elec       q    Type
REMARK                         _______ _______ _______ _____ _____    ______ ____
ROOT
ATOM      1  N   UNL     1       2.570   4.602  18.379  0.00  0.00    +0.000 N 
ATOM      2  C   UNL     1       2.944   5.939  18.642  0.00  0.00    +0.000 A 
ATOM      3  N   UNL     1       2.115   6.709  19.432  0.00  0.00    +0.000 N 
ATOM      4  N   UNL     1       4.040   6.481  18.170  0.00  0.00    +0.000 NA
ATOM      5  C   UNL     1       4.873   5.648  17.411  0.00  0.00    +0.000 A 
ATOM      6  C   UNL     1       6.175   5.978  16.955  0.00  0.00    +0.000 A 
ATOM      7  C   UNL     1       6.729   4.944  16.223  0.00  0.00    +0.000 A 
ATOM      8  S   UNL     1       5.668   3.596  16.108  0.00  0.00    +0.000 S 
ATOM      9  C   UNL     1       4.505   4.385  17.052  0.00  0.00    +0.000 A 
ATOM     10  C   UNL     1       3.277   3.792  17.468  0.00  0.00    +0.000 A 
ATOM     11  O   UNL     1       2.880   2.699  17.087  0.00  0.00    +0.000 OA
ATOM     12  H   UNL     1       1.612   6.247  20.175  0.00  0.00    +0.000 HD
ENDROOT
BRANCH   3  13
ATOM     13  C   UNL     1       2.088   8.172  19.486  0.00  0.00    +0.000 C 
ATOM     14  C   UNL     1       1.622   8.717  18.129  0.00  0.00    +0.000 C 
ATOM     15  C   UNL     1       0.720   9.911  18.390  0.00  0.00    +0.000 C 
ATOM     16  C   UNL     1       0.338   9.875  19.857  0.00  0.00    +0.000 C 
ATOM     17  C   UNL     1       1.105   8.730  20.514  0.00  0.00    +0.000 C 
ENDBRANCH   3  13
BRANCH   1  19
ATOM     18  C   UNL     1       1.572   3.336  20.280  0.00  0.00    +0.000 C 
ATOM     19  C   UNL     1       1.361   3.970  18.912  0.00  0.00    +0.000 C 
ENDBRANCH   1  19
BRANCH   6  20
ATOM     20  C   UNL     1       6.876   7.195  17.203  0.00  0.00    +0.000 C 
ATOM     21  N   UNL     1       7.484   8.172  17.366  0.00  0.00    +0.000 NA
ENDBRANCH   6  20
TORSDOF 3
ENDMDL
MODEL 2
REMARK VINA RESULT:      -6.2      3.371      6.554
REMARK  Name = 
REMARK  4 active torsions:
REMARK  status: ('A' for Active; 'I' for Inactive)
REMARK    1  A    between atoms: C_1  and  C_2
REMARK    2  A    between atoms: C_2  and  N_3
REMARK    3  A    between atoms: N_5  and  C_6
REMARK    4  A    between atoms: C_13  and  C_14
REMARK                            x       y       z     vdW  Elec       q    Type
REMARK                         _______ _______ _______ _____ _____    ______ ____
ROOT
ATOM      1  N   UNL     1       2.445   7.767  18.531  0.00  0.00    +0.000 N 
ATOM      2  C   UNL     1       2.077   7.146  19.745  0.00  0.00    +0.000 A 
ATOM      3  N   UNL     1       2.397   5.815  19.925  0.00  0.00    +0.000 N 
ATOM      4  N   UNL     1       1.447   7.773  20.708  0.00  0.00    +0.000 NA
ATOM      5  C   UNL     1       1.184   9.134  20.499  0.00  0.00    +0.000 A 
ATOM      6  C   UNL     1       0.672  10.034  21.469  0.00  0.00    +0.000 A 
ATOM      7  C   UNL     1       0.516  11.304  20.945  0.00  0.00    +0.000 A 
ATOM      8  S   UNL     1       0.998  11.384  19.297  0.00  0.00    +0.000 S 
ATOM      9  C   UNL     1       1.433   9.748  19.307  0.00  0.00    +0.000 A 
ATOM     10  C   UNL     1       2.033   9.073  18.203  0.00  0.00    +0.000 A 
ATOM     11  O   UNL     1       2.183   9.572  17.096  0.00  0.00    +0.000 OA
ATOM     12  H   UNL     1       3.251   5.477  19.509  0.00  0.00    +0.000 HD
ENDROOT
BRANCH   3  13
ATOM     13  C   UNL     1       1.772   4.899  20.881  0.00  0.00    +0.000 C 
ATOM     14  C   UNL     1       0.859   3.925  20.122  0.00  0.00    +0.000 C 
ATOM     15  C   UNL     1       0.996   2.557  20.766  0.00  0.00    +0.000 C 
ATOM     16  C   UNL     1       2.228   2.595  21.649  0.00  0.00    +0.000 C 
ATOM     17  C   UNL     1       2.771   4.023  21.635  0.00  0.00    +0.000 C 
ENDBRANCH   3  13
BRANCH   1  19
ATOM     18  C   UNL     1       4.678   7.106  17.641  0.00  0.00    +0.000 C 
ATOM     19  C   UNL     1       3.168   7.090  17.451  0.00  0.00    +0.000 C 
ENDBRANCH   1  19
BRANCH   6  20
ATOM     20  C   UNL     1       0.357   9.726  22.826  0.00  0.00    +0.000 C 
ATOM     21  N   UNL     1       0.088   9.530  23.940  0.00  0.00    +0.000 NA
ENDBRANCH   6  20
TORSDOF 3
ENDMDL
MODEL 3
REMARK VINA RESULT:      -6.1      2.599      5.493
REMARK  Name = 
REMARK  4 active torsions:
REMARK  status: ('A' for Active; 'I' for Inactive)
REMARK    1  A    between atoms: C_1  and  C_2
REMARK    2  A    between atoms: C_2  and  N_3
REMARK    3  A    between atoms: N_5  and  C_6
REMARK    4  A    between atoms: C_13  and  C_14
REMARK                            x       y       z     vdW  Elec       q    Type
REMARK                         _______ _______ _______ _____ _____    ______ ____
ROOT
ATOM      1  N   UNL     1       2.923   4.379  19.285  0.00  0.00    +0.000 N 
ATOM      2  C   UNL     1       3.396   5.159  18.205  0.00  0.00    +0.000 A 
ATOM      3  N   UNL     1       4.106   4.529  17.204  0.00  0.00    +0.000 N 
ATOM      4  N   UNL     1       3.190   6.449  18.111  0.00  0.00    +0.000 NA
ATOM      5  C   UNL     1       2.425   7.037  19.128  0.00  0.00    +0.000 A 
ATOM      6  C   UNL     1       1.943   8.370  19.132  0.00  0.00    +0.000 A 
ATOM      7  C   UNL     1       1.229   8.644  20.284  0.00  0.00    +0.000 A 
ATOM      8  S   UNL     1       1.150   7.283  21.331  0.00  0.00    +0.000 S 
ATOM      9  C   UNL     1       2.034   6.343  20.235  0.00  0.00    +0.000 A 
ATOM     10  C   UNL     1       2.319   4.958  20.418  0.00  0.00    +0.000 A 
ATOM     11  O   UNL     1       2.061   4.335  21.440  0.00  0.00    +0.000 OA
ATOM     12  H   UNL     1       3.854   3.580  16.973  0.00  0.00    +0.000 HD
ENDROOT
BRANCH   3  13
ATOM     13  C   UNL     1       5.010   5.175  16.250  0.00  0.00    +0.000 C 
ATOM     14  C   UNL     1       6.426   5.211  16.843  0.00  0.00    +0.000 C 
ATOM     15  C   UNL     1       7.411   4.937  15.719  0.00  0.00    +0.000 C 
ATOM     16  C   UNL     1       6.619   4.380  14.552  0.00  0.00    +0.000 C 
ATOM     17  C   UNL     1       5.138   4.429  14.923  0.00  0.00    +0.000 C 
ENDBRANCH   3  13
BRANCH   1  19
ATOM     18  C   UNL     1       1.982   2.122  18.802  0.00  0.00    +0.000 C 
ATOM     19  C   UNL     1       3.124   2.932  19.400  0.00  0.00    +0.000 C 
ENDBRANCH   1  19
BRANCH   6  20
ATOM     20  C   UNL     1       2.128   9.341  18.103  0.00  0.00    +0.000 C 
ATOM     21  N   UNL     1       2.275  10.171  17.303  0.00  0.00    +0.000 NA
ENDBRANCH   6  20
TORSDOF 3
ENDMDL
MODEL 4
REMARK VINA RESULT:      -5.8      2.327      4.356
REMARK  Name = 
REMARK  4 active torsions:
REMARK  status: ('A' for Active; 'I' for Inactive)
REMARK    1  A    between atoms: C_1  and  C_2
REMARK    2  A    between atoms: C_2  and  N_3
REMARK    3  A    between atoms: N_5  and  C_6
REMARK    4  A    between atoms: C_13  and  C_14
REMARK                            x       y       z     vdW  Elec       q    Type
REMARK                         _______ _______ _______ _____ _____    ______ ____
ROOT
ATOM      1  N   UNL     1       2.995   7.003  18.444  0.00  0.00    +0.000 N 
ATOM      2  C   UNL     1       2.273   6.827  19.647  0.00  0.00    +0.000 A 
ATOM      3  N   UNL     1       1.560   7.897  20.147  0.00  0.00    +0.000 N 
ATOM      4  N   UNL     1       2.250   5.695  20.307  0.00  0.00    +0.000 NA
ATOM      5  C   UNL     1       2.951   4.624  19.738  0.00  0.00    +0.000 A 
ATOM      6  C   UNL     1       2.916   3.281  20.191  0.00  0.00    +0.000 A 
ATOM      7  C   UNL     1       3.726   2.468  19.420  0.00  0.00    +0.000 A 
ATOM      8  S   UNL     1       4.505   3.342  18.162  0.00  0.00    +0.000 S 
ATOM      9  C   UNL     1       3.738   4.775  18.634  0.00  0.00    +0.000 A 
ATOM     10  C   UNL     1       3.864   6.015  17.941  0.00  0.00    +0.000 A 
ATOM     11  O   UNL     1       4.632   6.202  17.006  0.00  0.00    +0.000 OA
ATOM     12  H   UNL     1       1.147   8.537  19.485  0.00  0.00    +0.000 HD
ENDROOT
BRANCH   3  13
ATOM     13  C   UNL     1       1.106   8.062  21.529  0.00  0.00    +0.000 C 
ATOM     14  C   UNL     1       1.601   9.412  22.064  0.00  0.00    +0.000 C 
ATOM     15  C   UNL     1       0.499  10.009  22.922  0.00  0.00    +0.000 C 
ATOM     16  C   UNL     1      -0.772   9.236  22.624  0.00  0.00    +0.000 C 
ATOM     17  C   UNL     1      -0.414   8.093  21.676  0.00  0.00    +0.000 C 
ENDBRANCH   3  13
BRANCH   1  19
ATOM     18  C   UNL     1       1.651   8.911  17.568  0.00  0.00    +0.000 C 
ATOM     19  C   UNL     1       3.019   8.252  17.679  0.00  0.00    +0.000 C 
ENDBRANCH   1  19
BRANCH   6  20
ATOM     20  C   UNL     1       2.150   2.776  21.284  0.00  0.00    +0.000 C 
ATOM     21  N   UNL     1       1.483   2.395  22.156  0.00  0.00    +0.000 NA
ENDBRANCH   6  20
TORSDOF 3
ENDMDL
MODEL 5
REMARK VINA RESULT:      -5.7      3.628      5.452
REMARK  Name = 
REMARK  4 active torsions:
REMARK  status: ('A' for Active; 'I' for Inactive)
REMARK    1  A    between atoms: C_1  and  C_2
REMARK    2  A    between atoms: C_2  and  N_3
REMARK    3  A    between atoms: N_5  and  C_6
REMARK    4  A    between atoms: C_13  and  C_14
REMARK                            x       y       z     vdW  Elec       q    Type
REMARK                         _______ _______ _______ _____ _____    ______ ____
ROOT
ATOM      1  N   UNL     1       5.808   5.548  16.678  0.00  0.00    +0.000 N 
ATOM      2  C   UNL     1       4.736   4.717  16.281  0.00  0.00    +0.000 A 
ATOM      3  N   UNL     1       3.692   4.527  17.163  0.00  0.00    +0.000 N 
ATOM      4  N   UNL     1       4.688   4.119  15.116  0.00  0.00    +0.000 NA
ATOM      5  C   UNL     1       5.749   4.378  14.236  0.00  0.00    +0.000 A 
ATOM      6  C   UNL     1       5.810   3.976  12.878  0.00  0.00    +0.000 A 
ATOM      7  C   UNL     1       6.995   4.377  12.287  0.00  0.00    +0.000 A 
ATOM      8  S   UNL     1       8.002   5.237  13.383  0.00  0.00    +0.000 S 
ATOM      9  C   UNL     1       6.848   5.092  14.614  0.00  0.00    +0.000 A 
ATOM     10  C   UNL     1       6.979   5.681  15.906  0.00  0.00    +0.000 A 
ATOM     11  O   UNL     1       7.989   6.247  16.301  0.00  0.00    +0.000 OA
ATOM     12  H   UNL     1       3.441   5.296  17.767  0.00  0.00    +0.000 HD
ENDROOT
BRANCH   3  13
ATOM     13  C   UNL     1       2.727   3.426  17.134  0.00  0.00    +0.000 C 
ATOM     14  C   UNL     1       3.278   2.253  17.956  0.00  0.00    +0.000 C 
ATOM     15  C   UNL     1       2.120   1.627  18.713  0.00  0.00    +0.000 C 
ATOM     16  C   UNL     1       0.963   2.607  18.658  0.00  0.00    +0.000 C 
ATOM     17  C   UNL     1       1.380   3.774  17.765  0.00  0.00    +0.000 C 
ENDBRANCH   3  13
BRANCH   1  19
ATOM     18  C   UNL     1       6.380   5.357  19.097  0.00  0.00    +0.000 C 
ATOM     19  C   UNL     1       5.872   6.242  17.967  0.00  0.00    +0.000 C 
ENDBRANCH   1  19
BRANCH   6  20
ATOM     20  C   UNL     1       4.805   3.263  12.159  0.00  0.00    +0.000 C 
ATOM     21  N   UNL     1       3.979   2.727  11.541  0.00  0.00    +0.000 NA
ENDBRANCH   6  20
TORSDOF 3
ENDMDL
MODEL 6
REMARK VINA RESULT:      -5.5      5.729      8.913
REMARK  Name = 
REMARK  4 active torsions:
REMARK  status: ('A' for Active; 'I' for Inactive)
REMARK    1  A    between atoms: C_1  and  C_2
REMARK    2  A    between atoms: C_2  and  N_3
REMARK    3  A    between atoms: N_5  and  C_6
REMARK    4  A    between atoms: C_13  and  C_14
REMARK                            x       y       z     vdW  Elec       q    Type
REMARK                         _______ _______ _______ _____ _____    ______ ____
ROOT
ATOM      1  N   UNL     1      -2.309  10.972  18.200  0.00  0.00    +0.000 N 
ATOM      2  C   UNL     1      -0.972  10.989  18.658  0.00  0.00    +0.000 A 
ATOM      3  N   UNL     1      -0.053  10.171  18.031  0.00  0.00    +0.000 N 
ATOM      4  N   UNL     1      -0.564  11.744  19.648  0.00  0.00    +0.000 NA
ATOM      5  C   UNL     1      -1.521  12.591  20.224  0.00  0.00    +0.000 A 
ATOM      6  C   UNL     1      -1.257  13.603  21.181  0.00  0.00    +0.000 A 
ATOM      7  C   UNL     1      -2.418  14.254  21.558  0.00  0.00    +0.000 A 
ATOM      8  S   UNL     1      -3.797  13.635  20.741  0.00  0.00    +0.000 S 
ATOM      9  C   UNL     1      -2.840  12.536  19.881  0.00  0.00    +0.000 A 
ATOM     10  C   UNL     1      -3.338  11.660  18.872  0.00  0.00    +0.000 A 
ATOM     11  O   UNL     1      -4.526  11.524  18.608  0.00  0.00    +0.000 OA
ATOM     12  H   UNL     1      -0.170  10.005  17.042  0.00  0.00    +0.000 HD
ENDROOT
BRANCH   3  13
ATOM     13  C   UNL     1       1.230   9.732  18.583  0.00  0.00    +0.000 C 
ATOM     14  C   UNL     1       0.983   8.997  19.907  0.00  0.00    +0.000 C 
ATOM     15  C   UNL     1       1.942   7.821  19.975  0.00  0.00    +0.000 C 
ATOM     16  C   UNL     1       2.501   7.613  18.581  0.00  0.00    +0.000 C 
ATOM     17  C   UNL     1       1.973   8.738  17.692  0.00  0.00    +0.000 C 
ENDBRANCH   3  13
BRANCH   1  19
ATOM     18  C   UNL     1      -2.748  10.883  15.748  0.00  0.00    +0.000 C 
ATOM     19  C   UNL     1      -2.782  10.151  17.083  0.00  0.00    +0.000 C 
ENDBRANCH   1  19
BRANCH   6  20
ATOM     20  C   UNL     1       0.019  13.956  21.711  0.00  0.00    +0.000 C 
ATOM     21  N   UNL     1       1.080  14.194  22.123  0.00  0.00    +0.000 NA
ENDBRANCH   6  20
TORSDOF 3
ENDMDL
MODEL 7
REMARK VINA RESULT:      -5.4      7.140      9.561
REMARK  Name = 
REMARK  4 active torsions:
REMARK  status: ('A' for Active; 'I' for Inactive)
REMARK    1  A    between atoms: C_1  and  C_2
REMARK    2  A    between atoms: C_2  and  N_3
REMARK    3  A    between atoms: N_5  and  C_6
REMARK    4  A    between atoms: C_13  and  C_14
REMARK                            x       y       z     vdW  Elec       q    Type
REMARK                         _______ _______ _______ _____ _____    ______ ____
ROOT
ATOM      1  N   UNL     1      -1.130  11.447  19.534  0.00  0.00    +0.000 N 
ATOM      2  C   UNL     1      -2.306  12.083  19.993  0.00  0.00    +0.000 A 
ATOM      3  N   UNL     1      -2.277  12.707  21.223  0.00  0.00    +0.000 N 
ATOM      4  N   UNL     1      -3.421  12.107  19.305  0.00  0.00    +0.000 NA
ATOM      5  C   UNL     1      -3.390  11.500  18.042  0.00  0.00    +0.000 A 
ATOM      6  C   UNL     1      -4.422  11.561  17.072  0.00  0.00    +0.000 A 
ATOM      7  C   UNL     1      -4.087  10.848  15.935  0.00  0.00    +0.000 A 
ATOM      8  S   UNL     1      -2.532  10.129  16.061  0.00  0.00    +0.000 S 
ATOM      9  C   UNL     1      -2.310  10.792  17.603  0.00  0.00    +0.000 A 
ATOM     10  C   UNL     1      -1.111  10.664  18.364  0.00  0.00    +0.000 A 
ATOM     11  O   UNL     1      -0.163   9.961  18.036  0.00  0.00    +0.000 OA
ATOM     12  H   UNL     1      -1.412  13.140  21.510  0.00  0.00    +0.000 HD
ENDROOT
BRANCH   3  13
ATOM     13  C   UNL     1      -3.439  13.048  22.046  0.00  0.00    +0.000 C 
ATOM     14  C   UNL     1      -3.325  12.333  23.400  0.00  0.00    +0.000 C 
ATOM     15  C   UNL     1      -3.820  13.284  24.475  0.00  0.00    +0.000 C 
ATOM     16  C   UNL     1      -3.884  14.668  23.858  0.00  0.00    +0.000 C 
ATOM     17  C   UNL     1      -3.544  14.536  22.375  0.00  0.00    +0.000 C 
ENDBRANCH   3  13
BRANCH   1  19
ATOM     18  C   UNL     1       0.187  10.326  21.330  0.00  0.00    +0.000 C 
ATOM     19  C   UNL     1       0.132  11.425  20.277  0.00  0.00    +0.000 C 
ENDBRANCH   1  19
BRANCH   6  20
ATOM     20  C   UNL     1      -5.658  12.263  17.194  0.00  0.00    +0.000 C 
ATOM     21  N   UNL     1      -6.639  12.872  17.325  0.00  0.00    +0.000 NA
ENDBRANCH   6  20
TORSDOF 3
ENDMDL
MODEL 8
REMARK VINA RESULT:      -5.4      8.596     10.437
REMARK  Name = 
REMARK  4 active torsions:
REMARK  status: ('A' for Active; 'I' for Inactive)
REMARK    1  A    between atoms: C_1  and  C_2
REMARK    2  A    between atoms: C_2  and  N_3
REMARK    3  A    between atoms: N_5  and  C_6
REMARK    4  A    between atoms: C_13  and  C_14
REMARK                            x       y       z     vdW  Elec       q    Type
REMARK                         _______ _______ _______ _____ _____    ______ ____
ROOT
ATOM      1  N   UNL     1      -5.064  12.440  20.233  0.00  0.00    +0.000 N 
ATOM      2  C   UNL     1      -3.869  12.260  19.499  0.00  0.00    +0.000 A 
ATOM      3  N   UNL     1      -3.963  11.996  18.148  0.00  0.00    +0.000 N 
ATOM      4  N   UNL     1      -2.679  12.332  20.042  0.00  0.00    +0.000 NA
ATOM      5  C   UNL     1      -2.631  12.647  21.407  0.00  0.00    +0.000 A 
ATOM      6  C   UNL     1      -1.457  12.940  22.145  0.00  0.00    +0.000 A 
ATOM      7  C   UNL     1      -1.748  13.199  23.472  0.00  0.00    +0.000 A 
ATOM      8  S   UNL     1      -3.433  13.091  23.794  0.00  0.00    +0.000 S 
ATOM      9  C   UNL     1      -3.757  12.732  22.172  0.00  0.00    +0.000 A 
ATOM     10  C   UNL     1      -5.068  12.567  21.636  0.00  0.00    +0.000 A 
ATOM     11  O   UNL     1      -6.087  12.548  22.313  0.00  0.00    +0.000 OA
ATOM     12  H   UNL     1      -4.723  12.420  17.638  0.00  0.00    +0.000 HD
ENDROOT
BRANCH   3  13
ATOM     13  C   UNL     1      -2.926  11.385  17.313  0.00  0.00    +0.000 C 
ATOM     14  C   UNL     1      -2.899   9.872  17.572  0.00  0.00    +0.000 C 
ATOM     15  C   UNL     1      -2.657   9.175  16.244  0.00  0.00    +0.000 C 
ATOM     16  C   UNL     1      -2.900  10.195  15.148  0.00  0.00    +0.000 C 
ATOM     17  C   UNL     1      -3.173  11.543  15.814  0.00  0.00    +0.000 C 
ENDBRANCH   3  13
BRANCH   1  19
ATOM     18  C   UNL     1      -6.942  10.966  19.517  0.00  0.00    +0.000 C 
ATOM     19  C   UNL     1      -6.403  12.385  19.643  0.00  0.00    +0.000 C 
ENDBRANCH   1  19
BRANCH   6  20
ATOM     20  C   UNL     1      -0.126  12.990  21.635  0.00  0.00    +0.000 C 
ATOM     21  N   UNL     1       0.961  13.085  21.234  0.00  0.00    +0.000 NA
ENDBRANCH   6  20
TORSDOF 3
ENDMDL
MODEL 9
REMARK VINA RESULT:      -5.3      9.031     11.293
REMARK  Name = 
REMARK  4 active torsions:
REMARK  status: ('A' for Active; 'I' for Inactive)
REMARK    1  A    between atoms: C_1  and  C_2
REMARK    2  A    between atoms: C_2  and  N_3
REMARK    3  A    between atoms: N_5  and  C_6
REMARK    4  A    between atoms: C_13  and  C_14
REMARK                            x       y       z     vdW  Elec       q    Type
REMARK                         _______ _______ _______ _____ _____    ______ ____
ROOT
ATOM      1  N   UNL     1      -6.162  11.759  20.072  0.00  0.00    +0.000 N 
ATOM      2  C   UNL     1      -4.992  12.088  19.350  0.00  0.00    +0.000 A 
ATOM      3  N   UNL     1      -4.866  11.621  18.057  0.00  0.00    +0.000 N 
ATOM      4  N   UNL     1      -4.024  12.816  19.849  0.00  0.00    +0.000 NA
ATOM      5  C   UNL     1      -4.216  13.307  21.148  0.00  0.00    +0.000 A 
ATOM      6  C   UNL     1      -3.382  14.244  21.808  0.00  0.00    +0.000 A 
ATOM      7  C   UNL     1      -3.839  14.514  23.085  0.00  0.00    +0.000 A 
ATOM      8  S   UNL     1      -5.269  13.636  23.455  0.00  0.00    +0.000 S 
ATOM      9  C   UNL     1      -5.281  12.934  21.915  0.00  0.00    +0.000 A 
ATOM     10  C   UNL     1      -6.309  12.068  21.438  0.00  0.00    +0.000 A 
ATOM     11  O   UNL     1      -7.224  11.646  22.132  0.00  0.00    +0.000 OA
ATOM     12  H   UNL     1      -5.706  11.536  17.504  0.00  0.00    +0.000 HD
ENDROOT
BRANCH   3  13
ATOM     13  C   UNL     1      -3.617  11.489  17.305  0.00  0.00    +0.000 C 
ATOM     14  C   UNL     1      -2.808  10.315  17.874  0.00  0.00    +0.000 C 
ATOM     15  C   UNL     1      -2.157   9.587  16.711  0.00  0.00    +0.000 C 
ATOM     16  C   UNL     1      -2.839  10.063  15.443  0.00  0.00    +0.000 C 
ATOM     17  C   UNL     1      -3.822  11.169  15.826  0.00  0.00    +0.000 C 
ENDBRANCH   3  13
BRANCH   1  19
ATOM     18  C   UNL     1      -6.975   9.471  19.512  0.00  0.00    +0.000 C 
ATOM     19  C   UNL     1      -7.265  10.965  19.526  0.00  0.00    +0.000 C 
ENDBRANCH   1  19
BRANCH   6  20
ATOM     20  C   UNL     1      -2.220  14.871  21.268  0.00  0.00    +0.000 C 
ATOM     21  N   UNL     1      -1.242  15.354  20.866  0.00  0.00    +0.000 NA
ENDBRANCH   6  20
TORSDOF 3
ENDMDL
