MODEL 1
REMARK VINA RESULT:      -8.1      0.000      0.000
REMARK  Name = 
REMARK  3 active torsions:
REMARK  status: ('A' for Active; 'I' for Inactive)
REMARK    1  A    between atoms: O_1  and  C_2
REMARK    2  A    between atoms: C_5  and  C_6
REMARK    3  A    between atoms: C_12  and  O_13
REMARK                            x       y       z     vdW  Elec       q    Type
REMARK                         _______ _______ _______ _____ _____    ______ ____
ROOT
ATOM      1  C   UNL     1       5.041   4.568  18.069  0.00  0.00    +0.000 A 
ATOM      2  N   UNL     1       5.581   5.016  19.236  0.00  0.00    +0.000 NA
ATOM      3  C   UNL     1       6.774   5.634  19.184  0.00  0.00    +0.000 A 
ATOM      4  C   UNL     1       7.484   5.820  18.018  0.00  0.00    +0.000 A 
ATOM      5  C   UNL     1       6.950   5.392  16.823  0.00  0.00    +0.000 A 
ATOM      6  N   UNL     1       7.678   5.590  15.708  0.00  0.00    +0.000 NA
ATOM      7  C   UNL     1       7.142   5.198  14.544  0.00  0.00    +0.000 A 
ATOM      8  C   UNL     1       5.899   4.645  14.387  0.00  0.00    +0.000 A 
ATOM      9  C   UNL     1       5.147   4.456  15.541  0.00  0.00    +0.000 A 
ATOM     10  C   UNL     1       5.676   4.784  16.816  0.00  0.00    +0.000 A 
ENDROOT
BRANCH   1  14
ATOM     11  C   UNL     1       1.330   2.436  18.580  0.00  0.00    +0.000 A 
ATOM     12  C   UNL     1       1.313   3.774  18.207  0.00  0.00    +0.000 A 
ATOM     13  C   UNL     1       2.526   4.458  18.043  0.00  0.00    +0.000 A 
ATOM     14  C   UNL     1       3.768   3.825  18.257  0.00  0.00    +0.000 A 
ATOM     15  C   UNL     1       3.733   2.487  18.696  0.00  0.00    +0.000 A 
ATOM     16  C   UNL     1       2.530   1.788  18.824  0.00  0.00    +0.000 A 
BRANCH  11  17
ATOM     17  O   UNL     1       0.181   1.721  18.733  0.00  0.00    +0.000 OA
ATOM     18  H   UNL     1      -0.545   2.209  18.316  0.00  0.00    +0.000 HD
ENDBRANCH  11  17
ENDBRANCH   1  14
BRANCH   7  19
ATOM     19  O   UNL     1       7.942   5.397  13.468  0.00  0.00    +0.000 OA
ATOM     20  H   UNL     1       8.520   6.099  13.814  0.00  0.00    +0.000 HD
ENDBRANCH   7  19
TORSDOF 3
ENDMDL
MODEL 2
REMARK VINA RESULT:      -8.0      0.365      1.177
REMARK  Name = 
REMARK  3 active torsions:
REMARK  status: ('A' for Active; 'I' for Inactive)
REMARK    1  A    between atoms: O_1  and  C_2
REMARK    2  A    between atoms: C_5  and  C_6
REMARK    3  A    between atoms: C_12  and  O_13
REMARK                            x       y       z     vdW  Elec       q    Type
REMARK                         _______ _______ _______ _____ _____    ______ ____
ROOT
ATOM      1  C   UNL     1       5.042   4.640  18.207  0.00  0.00    +0.000 A 
ATOM      2  N   UNL     1       5.697   5.050  19.328  0.00  0.00    +0.000 NA
ATOM      3  C   UNL     1       6.927   5.575  19.186  0.00  0.00    +0.000 A 
ATOM      4  C   UNL     1       7.564   5.702  17.971  0.00  0.00    +0.000 A 
ATOM      5  C   UNL     1       6.916   5.312  16.821  0.00  0.00    +0.000 A 
ATOM      6  N   UNL     1       7.576   5.449  15.656  0.00  0.00    +0.000 NA
ATOM      7  C   UNL     1       6.929   5.095  14.536  0.00  0.00    +0.000 A 
ATOM      8  C   UNL     1       5.640   4.638  14.472  0.00  0.00    +0.000 A 
ATOM      9  C   UNL     1       4.961   4.511  15.678  0.00  0.00    +0.000 A 
ATOM     10  C   UNL     1       5.601   4.802  16.910  0.00  0.00    +0.000 A 
ENDROOT
BRANCH   1  14
ATOM     11  C   UNL     1       1.265   2.746  19.054  0.00  0.00    +0.000 A 
ATOM     12  C   UNL     1       2.417   1.977  18.951  0.00  0.00    +0.000 A 
ATOM     13  C   UNL     1       3.641   2.603  18.676  0.00  0.00    +0.000 A 
ATOM     14  C   UNL     1       3.733   3.998  18.490  0.00  0.00    +0.000 A 
ATOM     15  C   UNL     1       2.530   4.728  18.540  0.00  0.00    +0.000 A 
ATOM     16  C   UNL     1       1.313   4.116  18.852  0.00  0.00    +0.000 A 
BRANCH  11  17
ATOM     17  O   UNL     1       0.055   2.190  19.339  0.00  0.00    +0.000 OA
ATOM     18  H   UNL     1      -0.637   2.843  19.152  0.00  0.00    +0.000 HD
ENDBRANCH  11  17
ENDBRANCH   1  14
BRANCH   7  19
ATOM     19  O   UNL     1       7.664   5.228  13.405  0.00  0.00    +0.000 OA
ATOM     20  H   UNL     1       6.983   5.567  12.798  0.00  0.00    +0.000 HD
ENDBRANCH   7  19
TORSDOF 3
ENDMDL
MODEL 3
REMARK VINA RESULT:      -7.2      2.331      6.204
REMARK  Name = 
REMARK  3 active torsions:
REMARK  status: ('A' for Active; 'I' for Inactive)
REMARK    1  A    between atoms: O_1  and  C_2
REMARK    2  A    between atoms: C_5  and  C_6
REMARK    3  A    between atoms: C_12  and  O_13
REMARK                            x       y       z     vdW  Elec       q    Type
REMARK                         _______ _______ _______ _____ _____    ______ ____
ROOT
ATOM      1  C   UNL     1       3.808   5.838  18.652  0.00  0.00    +0.000 A 
ATOM      2  N   UNL     1       3.249   7.080  18.656  0.00  0.00    +0.000 NA
ATOM      3  C   UNL     1       2.244   7.318  19.518  0.00  0.00    +0.000 A 
ATOM      4  C   UNL     1       1.740   6.369  20.379  0.00  0.00    +0.000 A 
ATOM      5  C   UNL     1       2.301   5.111  20.407  0.00  0.00    +0.000 A 
ATOM      6  N   UNL     1       1.776   4.213  21.261  0.00  0.00    +0.000 NA
ATOM      7  C   UNL     1       2.343   3.000  21.305  0.00  0.00    +0.000 A 
ATOM      8  C   UNL     1       3.437   2.606  20.580  0.00  0.00    +0.000 A 
ATOM      9  C   UNL     1       3.981   3.543  19.710  0.00  0.00    +0.000 A 
ATOM     10  C   UNL     1       3.394   4.825  19.559  0.00  0.00    +0.000 A 
ENDROOT
BRANCH   1  14
ATOM     11  C   UNL     1       6.786   5.328  15.579  0.00  0.00    +0.000 A 
ATOM     12  C   UNL     1       5.534   4.745  15.432  0.00  0.00    +0.000 A 
ATOM     13  C   UNL     1       4.572   4.918  16.437  0.00  0.00    +0.000 A 
ATOM     14  C   UNL     1       4.846   5.662  17.603  0.00  0.00    +0.000 A 
ATOM     15  C   UNL     1       6.149   6.180  17.737  0.00  0.00    +0.000 A 
ATOM     16  C   UNL     1       7.099   6.045  16.723  0.00  0.00    +0.000 A 
BRANCH  11  17
ATOM     17  O   UNL     1       7.749   5.207  14.623  0.00  0.00    +0.000 OA
ATOM     18  H   UNL     1       7.919   4.264  14.473  0.00  0.00    +0.000 HD
ENDBRANCH  11  17
ENDBRANCH   1  14
BRANCH   7  19
ATOM     19  O   UNL     1       1.744   2.136  22.162  0.00  0.00    +0.000 OA
ATOM     20  H   UNL     1       0.928   1.946  21.667  0.00  0.00    +0.000 HD
ENDBRANCH   7  19
TORSDOF 3
ENDMDL
MODEL 4
REMARK VINA RESULT:      -7.2      2.341      6.212
REMARK  Name = 
REMARK  3 active torsions:
REMARK  status: ('A' for Active; 'I' for Inactive)
REMARK    1  A    between atoms: O_1  and  C_2
REMARK    2  A    between atoms: C_5  and  C_6
REMARK    3  A    between atoms: C_12  and  O_13
REMARK                            x       y       z     vdW  Elec       q    Type
REMARK                         _______ _______ _______ _____ _____    ______ ____
ROOT
ATOM      1  C   UNL     1       3.799   5.851  18.662  0.00  0.00    +0.000 A 
ATOM      2  N   UNL     1       3.239   7.092  18.678  0.00  0.00    +0.000 NA
ATOM      3  C   UNL     1       2.238   7.323  19.546  0.00  0.00    +0.000 A 
ATOM      4  C   UNL     1       1.739   6.366  20.402  0.00  0.00    +0.000 A 
ATOM      5  C   UNL     1       2.301   5.109  20.418  0.00  0.00    +0.000 A 
ATOM      6  N   UNL     1       1.780   4.204  21.267  0.00  0.00    +0.000 NA
ATOM      7  C   UNL     1       2.350   2.991  21.299  0.00  0.00    +0.000 A 
ATOM      8  C   UNL     1       3.440   2.604  20.567  0.00  0.00    +0.000 A 
ATOM      9  C   UNL     1       3.980   3.548  19.701  0.00  0.00    +0.000 A 
ATOM     10  C   UNL     1       3.390   4.831  19.563  0.00  0.00    +0.000 A 
ENDROOT
BRANCH   1  14
ATOM     11  C   UNL     1       6.827   5.368  15.633  0.00  0.00    +0.000 A 
ATOM     12  C   UNL     1       7.097   6.123  16.766  0.00  0.00    +0.000 A 
ATOM     13  C   UNL     1       6.106   6.273  17.746  0.00  0.00    +0.000 A 
ATOM     14  C   UNL     1       4.832   5.684  17.607  0.00  0.00    +0.000 A 
ATOM     15  C   UNL     1       4.583   4.982  16.411  0.00  0.00    +0.000 A 
ATOM     16  C   UNL     1       5.578   4.795  15.449  0.00  0.00    +0.000 A 
BRANCH  11  17
ATOM     17  O   UNL     1       7.761   5.174  14.661  0.00  0.00    +0.000 OA
ATOM     18  H   UNL     1       8.527   5.737  14.852  0.00  0.00    +0.000 HD
ENDBRANCH  11  17
ENDBRANCH   1  14
BRANCH   7  19
ATOM     19  O   UNL     1       1.755   2.120  22.152  0.00  0.00    +0.000 OA
ATOM     20  H   UNL     1       1.186   1.635  21.530  0.00  0.00    +0.000 HD
ENDBRANCH   7  19
TORSDOF 3
ENDMDL
MODEL 5
REMARK VINA RESULT:      -7.2      1.779      3.070
REMARK  Name = 
REMARK  3 active torsions:
REMARK  status: ('A' for Active; 'I' for Inactive)
REMARK    1  A    between atoms: O_1  and  C_2
REMARK    2  A    between atoms: C_5  and  C_6
REMARK    3  A    between atoms: C_12  and  O_13
REMARK                            x       y       z     vdW  Elec       q    Type
REMARK                         _______ _______ _______ _____ _____    ______ ____
ROOT
ATOM      1  C   UNL     1       4.729   4.147  16.834  0.00  0.00    +0.000 A 
ATOM      2  N   UNL     1       4.802   3.913  15.495  0.00  0.00    +0.000 NA
ATOM      3  C   UNL     1       5.849   4.420  14.821  0.00  0.00    +0.000 A 
ATOM      4  C   UNL     1       6.837   5.178  15.409  0.00  0.00    +0.000 A 
ATOM      5  C   UNL     1       6.795   5.414  16.765  0.00  0.00    +0.000 A 
ATOM      6  N   UNL     1       7.778   6.163  17.298  0.00  0.00    +0.000 NA
ATOM      7  C   UNL     1       7.748   6.365  18.623  0.00  0.00    +0.000 A 
ATOM      8  C   UNL     1       6.822   5.845  19.487  0.00  0.00    +0.000 A 
ATOM      9  C   UNL     1       5.818   5.062  18.930  0.00  0.00    +0.000 A 
ATOM     10  C   UNL     1       5.745   4.859  17.528  0.00  0.00    +0.000 A 
ENDROOT
BRANCH   1  14
ATOM     11  C   UNL     1       1.158   2.582  18.671  0.00  0.00    +0.000 A 
ATOM     12  C   UNL     1       2.259   1.756  18.486  0.00  0.00    +0.000 A 
ATOM     13  C   UNL     1       3.417   2.275  17.889  0.00  0.00    +0.000 A 
ATOM     14  C   UNL     1       3.489   3.616  17.459  0.00  0.00    +0.000 A 
ATOM     15  C   UNL     1       2.326   4.397  17.608  0.00  0.00    +0.000 A 
ATOM     16  C   UNL     1       1.184   3.898  18.238  0.00  0.00    +0.000 A 
BRANCH  11  17
ATOM     17  O   UNL     1       0.017   2.132  19.265  0.00  0.00    +0.000 OA
ATOM     18  H   UNL     1       0.255   1.456  19.919  0.00  0.00    +0.000 HD
ENDBRANCH  11  17
ENDBRANCH   1  14
BRANCH   7  19
ATOM     19  O   UNL     1       8.749   7.154  19.087  0.00  0.00    +0.000 OA
ATOM     20  H   UNL     1       9.055   7.549  18.252  0.00  0.00    +0.000 HD
ENDBRANCH   7  19
TORSDOF 3
ENDMDL
MODEL 6
REMARK VINA RESULT:      -7.2      1.770      2.848
REMARK  Name = 
REMARK  3 active torsions:
REMARK  status: ('A' for Active; 'I' for Inactive)
REMARK    1  A    between atoms: O_1  and  C_2
REMARK    2  A    between atoms: C_5  and  C_6
REMARK    3  A    between atoms: C_12  and  O_13
REMARK                            x       y       z     vdW  Elec       q    Type
REMARK                         _______ _______ _______ _____ _____    ______ ____
ROOT
ATOM      1  C   UNL     1       4.765   4.074  16.831  0.00  0.00    +0.000 A 
ATOM      2  N   UNL     1       4.862   3.797  15.501  0.00  0.00    +0.000 NA
ATOM      3  C   UNL     1       5.915   4.291  14.827  0.00  0.00    +0.000 A 
ATOM      4  C   UNL     1       6.887   5.077  15.405  0.00  0.00    +0.000 A 
ATOM      5  C   UNL     1       6.822   5.357  16.752  0.00  0.00    +0.000 A 
ATOM      6  N   UNL     1       7.790   6.132  17.275  0.00  0.00    +0.000 NA
ATOM      7  C   UNL     1       7.737   6.378  18.592  0.00  0.00    +0.000 A 
ATOM      8  C   UNL     1       6.802   5.878  19.458  0.00  0.00    +0.000 A 
ATOM      9  C   UNL     1       5.813   5.068  18.912  0.00  0.00    +0.000 A 
ATOM     10  C   UNL     1       5.764   4.818  17.517  0.00  0.00    +0.000 A 
ENDROOT
BRANCH   1  14
ATOM     11  C   UNL     1       1.132   2.591  18.611  0.00  0.00    +0.000 A 
ATOM     12  C   UNL     1       1.216   3.919  18.215  0.00  0.00    +0.000 A 
ATOM     13  C   UNL     1       2.402   4.392  17.636  0.00  0.00    +0.000 A 
ATOM     14  C   UNL     1       3.521   3.553  17.453  0.00  0.00    +0.000 A 
ATOM     15  C   UNL     1       3.411   2.232  17.929  0.00  0.00    +0.000 A 
ATOM     16  C   UNL     1       2.220   1.744  18.470  0.00  0.00    +0.000 A 
BRANCH  11  17
ATOM     17  O   UNL     1      -0.004   2.077  19.159  0.00  0.00    +0.000 OA
ATOM     18  H   UNL     1      -0.450   2.777  19.660  0.00  0.00    +0.000 HD
ENDBRANCH  11  17
ENDBRANCH   1  14
BRANCH   7  19
ATOM     19  O   UNL     1       8.723   7.192  19.045  0.00  0.00    +0.000 OA
ATOM     20  H   UNL     1       9.503   6.657  18.816  0.00  0.00    +0.000 HD
ENDBRANCH   7  19
TORSDOF 3
ENDMDL
MODEL 7
REMARK VINA RESULT:      -7.1      2.537      6.001
REMARK  Name = 
REMARK  3 active torsions:
REMARK  status: ('A' for Active; 'I' for Inactive)
REMARK    1  A    between atoms: O_1  and  C_2
REMARK    2  A    between atoms: C_5  and  C_6
REMARK    3  A    between atoms: C_12  and  O_13
REMARK                            x       y       z     vdW  Elec       q    Type
REMARK                         _______ _______ _______ _____ _____    ______ ____
ROOT
ATOM      1  C   UNL     1       4.121   4.221  18.477  0.00  0.00    +0.000 A 
ATOM      2  N   UNL     1       4.109   2.927  18.901  0.00  0.00    +0.000 NA
ATOM      3  C   UNL     1       3.316   2.609  19.939  0.00  0.00    +0.000 A 
ATOM      4  C   UNL     1       2.533   3.524  20.607  0.00  0.00    +0.000 A 
ATOM      5  C   UNL     1       2.514   4.836  20.186  0.00  0.00    +0.000 A 
ATOM      6  N   UNL     1       1.738   5.698  20.869  0.00  0.00    +0.000 NA
ATOM      7  C   UNL     1       1.700   6.967  20.437  0.00  0.00    +0.000 A 
ATOM      8  C   UNL     1       2.357   7.454  19.339  0.00  0.00    +0.000 A 
ATOM      9  C   UNL     1       3.146   6.554  18.631  0.00  0.00    +0.000 A 
ATOM     10  C   UNL     1       3.289   5.211  19.067  0.00  0.00    +0.000 A 
ENDROOT
BRANCH   1  14
ATOM     11  C   UNL     1       6.916   4.973  15.284  0.00  0.00    +0.000 A 
ATOM     12  C   UNL     1       5.622   4.565  14.989  0.00  0.00    +0.000 A 
ATOM     13  C   UNL     1       4.720   4.324  16.035  0.00  0.00    +0.000 A 
ATOM     14  C   UNL     1       5.096   4.475  17.385  0.00  0.00    +0.000 A 
ATOM     15  C   UNL     1       6.436   4.828  17.638  0.00  0.00    +0.000 A 
ATOM     16  C   UNL     1       7.329   5.108  16.601  0.00  0.00    +0.000 A 
BRANCH  11  17
ATOM     17  O   UNL     1       7.825   5.240  14.305  0.00  0.00    +0.000 OA
ATOM     18  H   UNL     1       7.975   6.198  14.275  0.00  0.00    +0.000 HD
ENDBRANCH  11  17
ENDBRANCH   1  14
BRANCH   7  19
ATOM     19  O   UNL     1       0.926   7.787  21.190  0.00  0.00    +0.000 OA
ATOM     20  H   UNL     1       1.148   8.645  20.790  0.00  0.00    +0.000 HD
ENDBRANCH   7  19
TORSDOF 3
ENDMDL
MODEL 8
REMARK VINA RESULT:      -7.1      3.816      5.468
REMARK  Name = 
REMARK  3 active torsions:
REMARK  status: ('A' for Active; 'I' for Inactive)
REMARK    1  A    between atoms: O_1  and  C_2
REMARK    2  A    between atoms: C_5  and  C_6
REMARK    3  A    between atoms: C_12  and  O_13
REMARK                            x       y       z     vdW  Elec       q    Type
REMARK                         _______ _______ _______ _____ _____    ______ ____
ROOT
ATOM      1  C   UNL     1       3.161   6.760  17.933  0.00  0.00    +0.000 A 
ATOM      2  N   UNL     1       4.269   7.280  17.337  0.00  0.00    +0.000 NA
ATOM      3  C   UNL     1       5.162   6.425  16.808  0.00  0.00    +0.000 A 
ATOM      4  C   UNL     1       5.024   5.055  16.855  0.00  0.00    +0.000 A 
ATOM      5  C   UNL     1       3.903   4.506  17.437  0.00  0.00    +0.000 A 
ATOM      6  N   UNL     1       3.810   3.163  17.465  0.00  0.00    +0.000 NA
ATOM      7  C   UNL     1       2.703   2.634  18.007  0.00  0.00    +0.000 A 
ATOM      8  C   UNL     1       1.642   3.344  18.501  0.00  0.00    +0.000 A 
ATOM      9  C   UNL     1       1.740   4.729  18.457  0.00  0.00    +0.000 A 
ATOM     10  C   UNL     1       2.909   5.361  17.961  0.00  0.00    +0.000 A 
ENDROOT
BRANCH   1  14
ATOM     11  C   UNL     1       0.613   9.748  19.708  0.00  0.00    +0.000 A 
ATOM     12  C   UNL     1       0.918   9.815  18.355  0.00  0.00    +0.000 A 
ATOM     13  C   UNL     1       1.747   8.838  17.787  0.00  0.00    +0.000 A 
ATOM     14  C   UNL     1       2.290   7.789  18.558  0.00  0.00    +0.000 A 
ATOM     15  C   UNL     1       2.006   7.800  19.938  0.00  0.00    +0.000 A 
ATOM     16  C   UNL     1       1.150   8.748  20.503  0.00  0.00    +0.000 A 
BRANCH  11  17
ATOM     17  O   UNL     1      -0.203  10.661  20.305  0.00  0.00    +0.000 OA
ATOM     18  H   UNL     1       0.249  11.519  20.316  0.00  0.00    +0.000 HD
ENDBRANCH  11  17
ENDBRANCH   1  14
BRANCH   7  19
ATOM     19  O   UNL     1       2.691   1.278  18.032  0.00  0.00    +0.000 OA
ATOM     20  H   UNL     1       2.196   1.128  18.856  0.00  0.00    +0.000 HD
ENDBRANCH   7  19
TORSDOF 3
ENDMDL
MODEL 9
REMARK VINA RESULT:      -7.1      3.785      5.540
REMARK  Name = 
REMARK  3 active torsions:
REMARK  status: ('A' for Active; 'I' for Inactive)
REMARK    1  A    between atoms: O_1  and  C_2
REMARK    2  A    between atoms: C_5  and  C_6
REMARK    3  A    between atoms: C_12  and  O_13
REMARK                            x       y       z     vdW  Elec       q    Type
REMARK                         _______ _______ _______ _____ _____    ______ ____
ROOT
ATOM      1  C   UNL     1       3.180   6.685  17.900  0.00  0.00    +0.000 A 
ATOM      2  N   UNL     1       4.243   7.196  17.220  0.00  0.00    +0.000 NA
ATOM      3  C   UNL     1       5.118   6.333  16.673  0.00  0.00    +0.000 A 
ATOM      4  C   UNL     1       5.005   4.965  16.782  0.00  0.00    +0.000 A 
ATOM      5  C   UNL     1       3.929   4.423  17.449  0.00  0.00    +0.000 A 
ATOM      6  N   UNL     1       3.860   3.082  17.535  0.00  0.00    +0.000 NA
ATOM      7  C   UNL     1       2.795   2.559  18.160  0.00  0.00    +0.000 A 
ATOM      8  C   UNL     1       1.752   3.272  18.688  0.00  0.00    +0.000 A 
ATOM      9  C   UNL     1       1.825   4.656  18.583  0.00  0.00    +0.000 A 
ATOM     10  C   UNL     1       2.953   5.285  17.996  0.00  0.00    +0.000 A 
ENDROOT
BRANCH   1  14
ATOM     11  C   UNL     1       0.738   9.700  19.777  0.00  0.00    +0.000 A 
ATOM     12  C   UNL     1       1.234   8.643  20.530  0.00  0.00    +0.000 A 
ATOM     13  C   UNL     1       2.028   7.668  19.910  0.00  0.00    +0.000 A 
ATOM     14  C   UNL     1       2.330   7.726  18.534  0.00  0.00    +0.000 A 
ATOM     15  C   UNL     1       1.752   8.779  17.798  0.00  0.00    +0.000 A 
ATOM     16  C   UNL     1       0.993   9.775  18.417  0.00  0.00    +0.000 A 
BRANCH  11  17
ATOM     17  O   UNL     1      -0.021  10.683  20.335  0.00  0.00    +0.000 OA
ATOM     18  H   UNL     1       0.564  11.406  20.611  0.00  0.00    +0.000 HD
ENDBRANCH  11  17
ENDBRANCH   1  14
BRANCH   7  19
ATOM     19  O   UNL     1       2.807   1.205  18.239  0.00  0.00    +0.000 OA
ATOM     20  H   UNL     1       3.009   1.091  19.183  0.00  0.00    +0.000 HD
ENDBRANCH   7  19
TORSDOF 3
ENDMDL
