MODEL 1
REMARK VINA RESULT:      -8.7      0.000      0.000
REMARK  Name = 
REMARK  10 active torsions:
REMARK  status: ('A' for Active; 'I' for Inactive)
REMARK    1  A    between atoms: C_1  and  O_2
REMARK    2  A    between atoms: O_2  and  C_3
REMARK    3  A    between atoms: C_5  and  C_6
REMARK    4  A    between atoms: C_7  and  C_8
REMARK    5  A    between atoms: N_10  and  C_11
REMARK    6  A    between atoms: C_11  and  C_12
REMARK    7  A    between atoms: C_22  and  O_23
REMARK    8  A    between atoms: O_23  and  C_24
REMARK    9  A    between atoms: C_25  and  O_26
REMARK   10  A    between atoms: O_26  and  C_27
REMARK                            x       y       z     vdW  Elec       q    Type
REMARK                         _______ _______ _______ _____ _____    ______ ____
ROOT
ATOM      1  C   UNL     1       7.649   7.105  17.690  0.00  0.00    +0.000 C 
ATOM      2  O   UNL     1       7.965   6.295  18.554  0.00  0.00    +0.000 OA
ATOM      3  N   UNL     1       7.059   6.739  16.507  0.00  0.00    +0.000 N 
ATOM      4  H   UNL     1       6.800   7.404  15.787  0.00  0.00    +0.000 HD
ENDROOT
BRANCH   1   6
ATOM      5  C   UNL     1       8.821   9.000  18.708  0.00  0.00    +0.000 C 
ATOM      6  C   UNL     1       7.879   8.570  17.848  0.00  0.00    +0.000 C 
BRANCH   5   9
ATOM      7  C   UNL     1       9.723  12.176  20.622  0.00  0.00    +0.000 A 
ATOM      8  C   UNL     1       9.230  10.886  20.333  0.00  0.00    +0.000 A 
ATOM      9  C   UNL     1       9.169  10.401  19.028  0.00  0.00    +0.000 A 
ATOM     10  C   UNL     1       9.559  11.265  18.001  0.00  0.00    +0.000 A 
ATOM     11  C   UNL     1       9.982  12.585  18.254  0.00  0.00    +0.000 A 
ATOM     12  C   UNL     1      10.065  13.062  19.577  0.00  0.00    +0.000 A 
BRANCH   7  14
ATOM     13  C   UNL     1       8.623  12.608  22.676  0.00  0.00    +0.000 C 
ATOM     14  O   UNL     1       9.839  12.584  21.927  0.00  0.00    +0.000 OA
ENDBRANCH   7  14
BRANCH  11  15
ATOM     15  O   UNL     1      10.283  13.250  17.082  0.00  0.00    +0.000 OA
ATOM     16  C   UNL     1      11.631  13.331  16.641  0.00  0.00    +0.000 C 
ENDBRANCH  11  15
BRANCH  12  17
ATOM     17  O   UNL     1      10.458  14.365  19.726  0.00  0.00    +0.000 OA
ATOM     18  C   UNL     1       9.511  15.418  19.787  0.00  0.00    +0.000 C 
ENDBRANCH  12  17
ENDBRANCH   5   9
ENDBRANCH   1   6
BRANCH   3  19
ATOM     19  C   UNL     1       6.836   5.339  16.223  0.00  0.00    +0.000 C 
BRANCH  19  20
ATOM     20  C   UNL     1       5.491   4.899  16.698  0.00  0.00    +0.000 A 
ATOM     21  N   UNL     1       4.448   5.646  17.013  0.00  0.00    +0.000 NA
ATOM     22  C   UNL     1       3.481   4.766  17.452  0.00  0.00    +0.000 A 
ATOM     23  C   UNL     1       2.186   5.014  17.930  0.00  0.00    +0.000 A 
ATOM     24  C   UNL     1       1.403   3.932  18.357  0.00  0.00    +0.000 A 
ATOM     25  C   UNL     1       1.895   2.625  18.299  0.00  0.00    +0.000 A 
ATOM     26  C   UNL     1       3.177   2.355  17.807  0.00  0.00    +0.000 A 
ATOM     27  C   UNL     1       3.937   3.455  17.396  0.00  0.00    +0.000 A 
ATOM     28  N   UNL     1       5.202   3.563  16.877  0.00  0.00    +0.000 N 
ATOM     29  H   UNL     1       5.826   2.793  16.686  0.00  0.00    +0.000 HD
ENDBRANCH  19  20
ENDBRANCH   3  19
TORSDOF 7
ENDMDL
MODEL 2
REMARK VINA RESULT:      -8.7      1.514      2.893
REMARK  Name = 
REMARK  10 active torsions:
REMARK  status: ('A' for Active; 'I' for Inactive)
REMARK    1  A    between atoms: C_1  and  O_2
REMARK    2  A    between atoms: O_2  and  C_3
REMARK    3  A    between atoms: C_5  and  C_6
REMARK    4  A    between atoms: C_7  and  C_8
REMARK    5  A    between atoms: N_10  and  C_11
REMARK    6  A    between atoms: C_11  and  C_12
REMARK    7  A    between atoms: C_22  and  O_23
REMARK    8  A    between atoms: O_23  and  C_24
REMARK    9  A    between atoms: C_25  and  O_26
REMARK   10  A    between atoms: O_26  and  C_27
REMARK                            x       y       z     vdW  Elec       q    Type
REMARK                         _______ _______ _______ _____ _____    ______ ____
ROOT
ATOM      1  C   UNL     1       7.424   7.166  17.444  0.00  0.00    +0.000 C 
ATOM      2  O   UNL     1       7.125   6.729  16.338  0.00  0.00    +0.000 OA
ATOM      3  N   UNL     1       7.474   6.378  18.566  0.00  0.00    +0.000 N 
ATOM      4  H   UNL     1       7.716   6.735  19.483  0.00  0.00    +0.000 HD
ENDROOT
BRANCH   1   6
ATOM      5  C   UNL     1       8.749   8.917  18.530  0.00  0.00    +0.000 C 
ATOM      6  C   UNL     1       7.763   8.600  17.670  0.00  0.00    +0.000 C 
BRANCH   5   9
ATOM      7  C   UNL     1       9.839  12.570  18.356  0.00  0.00    +0.000 A 
ATOM      8  C   UNL     1       9.566  11.239  17.976  0.00  0.00    +0.000 A 
ATOM      9  C   UNL     1       9.204  10.271  18.911  0.00  0.00    +0.000 A 
ATOM     10  C   UNL     1       9.179  10.652  20.256  0.00  0.00    +0.000 A 
ATOM     11  C   UNL     1       9.522  11.955  20.671  0.00  0.00    +0.000 A 
ATOM     12  C   UNL     1       9.863  12.936  19.719  0.00  0.00    +0.000 A 
BRANCH   7  14
ATOM     13  C   UNL     1      11.365  13.355  16.722  0.00  0.00    +0.000 C 
ATOM     14  O   UNL     1      10.114  13.509  17.393  0.00  0.00    +0.000 OA
ENDBRANCH   7  14
BRANCH  11  15
ATOM     15  O   UNL     1       9.452  12.079  22.044  0.00  0.00    +0.000 OA
ATOM     16  C   UNL     1       8.187  12.155  22.685  0.00  0.00    +0.000 C 
ENDBRANCH  11  15
BRANCH  12  17
ATOM     17  O   UNL     1      10.209  14.164  20.215  0.00  0.00    +0.000 OA
ATOM     18  C   UNL     1       9.245  15.190  20.377  0.00  0.00    +0.000 C 
ENDBRANCH  12  17
ENDBRANCH   5   9
ENDBRANCH   1   6
BRANCH   3  19
ATOM     19  C   UNL     1       7.113   4.981  18.475  0.00  0.00    +0.000 C 
BRANCH  19  20
ATOM     20  C   UNL     1       5.709   4.756  18.930  0.00  0.00    +0.000 A 
ATOM     21  N   UNL     1       4.792   5.656  19.234  0.00  0.00    +0.000 NA
ATOM     22  C   UNL     1       3.693   4.938  19.656  0.00  0.00    +0.000 A 
ATOM     23  C   UNL     1       2.445   5.384  20.117  0.00  0.00    +0.000 A 
ATOM     24  C   UNL     1       1.498   4.437  20.529  0.00  0.00    +0.000 A 
ATOM     25  C   UNL     1       1.780   3.068  20.472  0.00  0.00    +0.000 A 
ATOM     26  C   UNL     1       3.011   2.603  19.997  0.00  0.00    +0.000 A 
ATOM     27  C   UNL     1       3.939   3.571  19.600  0.00  0.00    +0.000 A 
ATOM     28  N   UNL     1       5.213   3.481  19.099  0.00  0.00    +0.000 N 
ATOM     29  H   UNL     1       5.711   2.623  18.914  0.00  0.00    +0.000 HD
ENDBRANCH  19  20
ENDBRANCH   3  19
TORSDOF 7
ENDMDL
MODEL 3
REMARK VINA RESULT:      -8.6      0.457      2.504
REMARK  Name = 
REMARK  10 active torsions:
REMARK  status: ('A' for Active; 'I' for Inactive)
REMARK    1  A    between atoms: C_1  and  O_2
REMARK    2  A    between atoms: O_2  and  C_3
REMARK    3  A    between atoms: C_5  and  C_6
REMARK    4  A    between atoms: C_7  and  C_8
REMARK    5  A    between atoms: N_10  and  C_11
REMARK    6  A    between atoms: C_11  and  C_12
REMARK    7  A    between atoms: C_22  and  O_23
REMARK    8  A    between atoms: O_23  and  C_24
REMARK    9  A    between atoms: C_25  and  O_26
REMARK   10  A    between atoms: O_26  and  C_27
REMARK                            x       y       z     vdW  Elec       q    Type
REMARK                         _______ _______ _______ _____ _____    ______ ____
ROOT
ATOM      1  C   UNL     1       7.685   7.012  17.802  0.00  0.00    +0.000 C 
ATOM      2  O   UNL     1       7.839   6.258  18.757  0.00  0.00    +0.000 OA
ATOM      3  N   UNL     1       7.242   6.580  16.578  0.00  0.00    +0.000 N 
ATOM      4  H   UNL     1       7.117   7.198  15.784  0.00  0.00    +0.000 HD
ENDROOT
BRANCH   1   6
ATOM      5  C   UNL     1       8.883   8.919  18.765  0.00  0.00    +0.000 C 
ATOM      6  C   UNL     1       7.965   8.473  17.887  0.00  0.00    +0.000 C 
BRANCH   5   9
ATOM      7  C   UNL     1       9.791  12.590  18.255  0.00  0.00    +0.000 A 
ATOM      8  C   UNL     1       9.583  11.218  17.999  0.00  0.00    +0.000 A 
ATOM      9  C   UNL     1       9.272  10.322  19.020  0.00  0.00    +0.000 A 
ATOM     10  C   UNL     1       9.233  10.821  20.325  0.00  0.00    +0.000 A 
ATOM     11  C   UNL     1       9.513  12.171  20.619  0.00  0.00    +0.000 A 
ATOM     12  C   UNL     1       9.802  13.078  19.581  0.00  0.00    +0.000 A 
BRANCH   7  14
ATOM     13  C   UNL     1      11.340  13.436  16.674  0.00  0.00    +0.000 C 
ATOM     14  O   UNL     1      10.016  13.451  17.210  0.00  0.00    +0.000 OA
ENDBRANCH   7  14
BRANCH  11  15
ATOM     15  O   UNL     1       9.441  12.414  21.975  0.00  0.00    +0.000 OA
ATOM     16  C   UNL     1       8.185  12.372  22.638  0.00  0.00    +0.000 C 
ENDBRANCH  11  15
BRANCH  12  17
ATOM     17  O   UNL     1      10.088  14.361  19.961  0.00  0.00    +0.000 OA
ATOM     18  C   UNL     1      11.423  14.781  20.190  0.00  0.00    +0.000 C 
ENDBRANCH  12  17
ENDBRANCH   5   9
ENDBRANCH   1   6
BRANCH   3  19
ATOM     19  C   UNL     1       6.989   5.172  16.365  0.00  0.00    +0.000 C 
BRANCH  19  20
ATOM     20  C   UNL     1       5.608   4.801  16.795  0.00  0.00    +0.000 A 
ATOM     21  N   UNL     1       4.590   5.599  17.062  0.00  0.00    +0.000 NA
ATOM     22  C   UNL     1       3.568   4.771  17.474  0.00  0.00    +0.000 A 
ATOM     23  C   UNL     1       2.268   5.085  17.900  0.00  0.00    +0.000 A 
ATOM     24  C   UNL     1       1.421   4.046  18.309  0.00  0.00    +0.000 A 
ATOM     25  C   UNL     1       1.853   2.716  18.285  0.00  0.00    +0.000 A 
ATOM     26  C   UNL     1       3.138   2.381  17.845  0.00  0.00    +0.000 A 
ATOM     27  C   UNL     1       3.964   3.439  17.450  0.00  0.00    +0.000 A 
ATOM     28  N   UNL     1       5.251   3.482  16.978  0.00  0.00    +0.000 N 
ATOM     29  H   UNL     1       5.845   2.681  16.819  0.00  0.00    +0.000 HD
ENDBRANCH  19  20
ENDBRANCH   3  19
TORSDOF 7
ENDMDL
MODEL 4
REMARK VINA RESULT:      -8.5      1.485      1.491
REMARK  Name = 
REMARK  10 active torsions:
REMARK  status: ('A' for Active; 'I' for Inactive)
REMARK    1  A    between atoms: C_1  and  O_2
REMARK    2  A    between atoms: O_2  and  C_3
REMARK    3  A    between atoms: C_5  and  C_6
REMARK    4  A    between atoms: C_7  and  C_8
REMARK    5  A    between atoms: N_10  and  C_11
REMARK    6  A    between atoms: C_11  and  C_12
REMARK    7  A    between atoms: C_22  and  O_23
REMARK    8  A    between atoms: O_23  and  C_24
REMARK    9  A    between atoms: C_25  and  O_26
REMARK   10  A    between atoms: O_26  and  C_27
REMARK                            x       y       z     vdW  Elec       q    Type
REMARK                         _______ _______ _______ _____ _____    ______ ____
ROOT
ATOM      1  C   UNL     1       7.586   7.334  17.562  0.00  0.00    +0.000 C 
ATOM      2  O   UNL     1       7.786   6.895  16.435  0.00  0.00    +0.000 OA
ATOM      3  N   UNL     1       7.155   6.547  18.600  0.00  0.00    +0.000 N 
ATOM      4  H   UNL     1       6.983   6.906  19.533  0.00  0.00    +0.000 HD
ENDROOT
BRANCH   1   6
ATOM      5  C   UNL     1       8.980   9.157  18.417  0.00  0.00    +0.000 C 
ATOM      6  C   UNL     1       7.796   8.768  17.908  0.00  0.00    +0.000 C 
BRANCH   5   9
ATOM      7  C   UNL     1       9.813  12.179  20.594  0.00  0.00    +0.000 A 
ATOM      8  C   UNL     1       9.287  10.937  20.178  0.00  0.00    +0.000 A 
ATOM      9  C   UNL     1       9.365  10.517  18.851  0.00  0.00    +0.000 A 
ATOM     10  C   UNL     1       9.932  11.401  17.928  0.00  0.00    +0.000 A 
ATOM     11  C   UNL     1      10.394  12.678  18.302  0.00  0.00    +0.000 A 
ATOM     12  C   UNL     1      10.336  13.088  19.648  0.00  0.00    +0.000 A 
BRANCH   7  14
ATOM     13  C   UNL     1       8.529  12.992  22.413  0.00  0.00    +0.000 C 
ATOM     14  O   UNL     1       9.785  12.518  21.923  0.00  0.00    +0.000 OA
ENDBRANCH   7  14
BRANCH  11  15
ATOM     15  O   UNL     1      10.880  13.374  17.214  0.00  0.00    +0.000 OA
ATOM     16  C   UNL     1      12.280  13.444  16.985  0.00  0.00    +0.000 C 
ENDBRANCH  11  15
BRANCH  12  17
ATOM     17  O   UNL     1      10.781  14.354  19.914  0.00  0.00    +0.000 OA
ATOM     18  C   UNL     1       9.906  15.469  19.862  0.00  0.00    +0.000 C 
ENDBRANCH  12  17
ENDBRANCH   5   9
ENDBRANCH   1   6
BRANCH   3  19
ATOM     19  C   UNL     1       6.867   5.150  18.367  0.00  0.00    +0.000 C 
BRANCH  19  20
ATOM     20  C   UNL     1       5.512   4.785  18.877  0.00  0.00    +0.000 A 
ATOM     21  N   UNL     1       4.589   5.578  19.391  0.00  0.00    +0.000 NA
ATOM     22  C   UNL     1       3.553   4.748  19.764  0.00  0.00    +0.000 A 
ATOM     23  C   UNL     1       2.330   5.052  20.381  0.00  0.00    +0.000 A 
ATOM     24  C   UNL     1       1.453   4.005  20.695  0.00  0.00    +0.000 A 
ATOM     25  C   UNL     1       1.780   2.680  20.393  0.00  0.00    +0.000 A 
ATOM     26  C   UNL     1       2.985   2.358  19.761  0.00  0.00    +0.000 A 
ATOM     27  C   UNL     1       3.844   3.422  19.465  0.00  0.00    +0.000 A 
ATOM     28  N   UNL     1       5.077   3.477  18.867  0.00  0.00    +0.000 N 
ATOM     29  H   UNL     1       5.591   2.686  18.507  0.00  0.00    +0.000 HD
ENDBRANCH  19  20
ENDBRANCH   3  19
TORSDOF 7
ENDMDL
MODEL 5
REMARK VINA RESULT:      -8.4      1.184      1.487
REMARK  Name = 
REMARK  10 active torsions:
REMARK  status: ('A' for Active; 'I' for Inactive)
REMARK    1  A    between atoms: C_1  and  O_2
REMARK    2  A    between atoms: O_2  and  C_3
REMARK    3  A    between atoms: C_5  and  C_6
REMARK    4  A    between atoms: C_7  and  C_8
REMARK    5  A    between atoms: N_10  and  C_11
REMARK    6  A    between atoms: C_11  and  C_12
REMARK    7  A    between atoms: C_22  and  O_23
REMARK    8  A    between atoms: O_23  and  C_24
REMARK    9  A    between atoms: C_25  and  O_26
REMARK   10  A    between atoms: O_26  and  C_27
REMARK                            x       y       z     vdW  Elec       q    Type
REMARK                         _______ _______ _______ _____ _____    ______ ____
ROOT
ATOM      1  C   UNL     1       7.740   7.358  17.595  0.00  0.00    +0.000 C 
ATOM      2  O   UNL     1       7.612   6.927  16.454  0.00  0.00    +0.000 OA
ATOM      3  N   UNL     1       7.743   6.547  18.701  0.00  0.00    +0.000 N 
ATOM      4  H   UNL     1       7.844   6.899  19.646  0.00  0.00    +0.000 HD
ENDROOT
BRANCH   1   6
ATOM      5  C   UNL     1       8.967   9.223  18.604  0.00  0.00    +0.000 C 
ATOM      6  C   UNL     1       7.907   8.811  17.884  0.00  0.00    +0.000 C 
BRANCH   5   9
ATOM      7  C   UNL     1       9.725  12.292  20.741  0.00  0.00    +0.000 A 
ATOM      8  C   UNL     1       9.260  11.018  20.352  0.00  0.00    +0.000 A 
ATOM      9  C   UNL     1       9.285  10.605  19.021  0.00  0.00    +0.000 A 
ATOM     10  C   UNL     1       9.732  11.526  18.069  0.00  0.00    +0.000 A 
ATOM     11  C   UNL     1      10.128  12.832  18.420  0.00  0.00    +0.000 A 
ATOM     12  C   UNL     1      10.125  13.236  19.769  0.00  0.00    +0.000 A 
BRANCH   7  14
ATOM     13  C   UNL     1       8.581  12.305  22.816  0.00  0.00    +0.000 C 
ATOM     14  O   UNL     1       9.757  12.628  22.071  0.00  0.00    +0.000 OA
ENDBRANCH   7  14
BRANCH  11  15
ATOM     15  O   UNL     1      10.497  13.561  17.307  0.00  0.00    +0.000 OA
ATOM     16  C   UNL     1      11.711  13.259  16.633  0.00  0.00    +0.000 C 
ENDBRANCH  11  15
BRANCH  12  17
ATOM     17  O   UNL     1      10.499  14.529  20.014  0.00  0.00    +0.000 OA
ATOM     18  C   UNL     1       9.542  15.574  20.074  0.00  0.00    +0.000 C 
ENDBRANCH  12  17
ENDBRANCH   5   9
ENDBRANCH   1   6
BRANCH   3  19
ATOM     19  C   UNL     1       7.536   5.125  18.544  0.00  0.00    +0.000 C 
BRANCH  19  20
ATOM     20  C   UNL     1       6.080   4.792  18.512  0.00  0.00    +0.000 A 
ATOM     21  N   UNL     1       5.415   4.110  17.596  0.00  0.00    +0.000 NA
ATOM     22  C   UNL     1       4.097   4.139  17.998  0.00  0.00    +0.000 A 
ATOM     23  C   UNL     1       2.956   3.594  17.389  0.00  0.00    +0.000 A 
ATOM     24  C   UNL     1       1.706   3.799  17.989  0.00  0.00    +0.000 A 
ATOM     25  C   UNL     1       1.592   4.524  19.179  0.00  0.00    +0.000 A 
ATOM     26  C   UNL     1       2.719   5.058  19.812  0.00  0.00    +0.000 A 
ATOM     27  C   UNL     1       3.952   4.843  19.187  0.00  0.00    +0.000 A 
ATOM     28  N   UNL     1       5.232   5.214  19.512  0.00  0.00    +0.000 N 
ATOM     29  H   UNL     1       5.500   5.735  20.335  0.00  0.00    +0.000 HD
ENDBRANCH  19  20
ENDBRANCH   3  19
TORSDOF 7
ENDMDL
MODEL 6
REMARK VINA RESULT:      -8.3      1.382      1.579
REMARK  Name = 
REMARK  10 active torsions:
REMARK  status: ('A' for Active; 'I' for Inactive)
REMARK    1  A    between atoms: C_1  and  O_2
REMARK    2  A    between atoms: O_2  and  C_3
REMARK    3  A    between atoms: C_5  and  C_6
REMARK    4  A    between atoms: C_7  and  C_8
REMARK    5  A    between atoms: N_10  and  C_11
REMARK    6  A    between atoms: C_11  and  C_12
REMARK    7  A    between atoms: C_22  and  O_23
REMARK    8  A    between atoms: O_23  and  C_24
REMARK    9  A    between atoms: C_25  and  O_26
REMARK   10  A    between atoms: O_26  and  C_27
REMARK                            x       y       z     vdW  Elec       q    Type
REMARK                         _______ _______ _______ _____ _____    ______ ____
ROOT
ATOM      1  C   UNL     1       7.255   7.108  17.294  0.00  0.00    +0.000 C 
ATOM      2  O   UNL     1       7.735   6.341  16.466  0.00  0.00    +0.000 OA
ATOM      3  N   UNL     1       5.907   7.191  17.537  0.00  0.00    +0.000 N 
ATOM      4  H   UNL     1       5.505   7.827  18.216  0.00  0.00    +0.000 HD
ENDROOT
BRANCH   1   6
ATOM      5  C   UNL     1       8.225   9.311  17.748  0.00  0.00    +0.000 C 
ATOM      6  C   UNL     1       8.097   8.022  18.117  0.00  0.00    +0.000 C 
BRANCH   5   9
ATOM      7  C   UNL     1       9.809  11.550  20.401  0.00  0.00    +0.000 A 
ATOM      8  C   UNL     1       8.912  10.669  19.760  0.00  0.00    +0.000 A 
ATOM      9  C   UNL     1       9.038  10.355  18.408  0.00  0.00    +0.000 A 
ATOM     10  C   UNL     1      10.052  10.995  17.689  0.00  0.00    +0.000 A 
ATOM     11  C   UNL     1      10.912  11.937  18.286  0.00  0.00    +0.000 A 
ATOM     12  C   UNL     1      10.797  12.232  19.659  0.00  0.00    +0.000 A 
BRANCH   7  14
ATOM     13  C   UNL     1       8.363  11.820  22.260  0.00  0.00    +0.000 C 
ATOM     14  O   UNL     1       9.697  11.770  21.752  0.00  0.00    +0.000 OA
ENDBRANCH   7  14
BRANCH  11  15
ATOM     15  O   UNL     1      11.807  12.452  17.370  0.00  0.00    +0.000 OA
ATOM     16  C   UNL     1      11.472  13.619  16.632  0.00  0.00    +0.000 C 
ENDBRANCH  11  15
BRANCH  12  17
ATOM     17  O   UNL     1      11.655  13.180  20.147  0.00  0.00    +0.000 OA
ATOM     18  C   UNL     1      11.265  14.538  20.262  0.00  0.00    +0.000 C 
ENDBRANCH  12  17
ENDBRANCH   5   9
ENDBRANCH   1   6
BRANCH   3  19
ATOM     19  C   UNL     1       4.990   6.389  16.759  0.00  0.00    +0.000 C 
BRANCH  19  20
ATOM     20  C   UNL     1       3.969   5.736  17.633  0.00  0.00    +0.000 A 
ATOM     21  N   UNL     1       3.561   6.107  18.833  0.00  0.00    +0.000 NA
ATOM     22  C   UNL     1       2.661   5.141  19.233  0.00  0.00    +0.000 A 
ATOM     23  C   UNL     1       1.940   5.021  20.429  0.00  0.00    +0.000 A 
ATOM     24  C   UNL     1       1.106   3.908  20.608  0.00  0.00    +0.000 A 
ATOM     25  C   UNL     1       0.984   2.937  19.609  0.00  0.00    +0.000 A 
ATOM     26  C   UNL     1       1.679   3.049  18.401  0.00  0.00    +0.000 A 
ATOM     27  C   UNL     1       2.509   4.166  18.254  0.00  0.00    +0.000 A 
ATOM     28  N   UNL     1       3.321   4.588  17.233  0.00  0.00    +0.000 N 
ATOM     29  H   UNL     1       3.443   4.118  16.348  0.00  0.00    +0.000 HD
ENDBRANCH  19  20
ENDBRANCH   3  19
TORSDOF 7
ENDMDL
MODEL 7
REMARK VINA RESULT:      -8.3      1.614      3.100
REMARK  Name = 
REMARK  10 active torsions:
REMARK  status: ('A' for Active; 'I' for Inactive)
REMARK    1  A    between atoms: C_1  and  O_2
REMARK    2  A    between atoms: O_2  and  C_3
REMARK    3  A    between atoms: C_5  and  C_6
REMARK    4  A    between atoms: C_7  and  C_8
REMARK    5  A    between atoms: N_10  and  C_11
REMARK    6  A    between atoms: C_11  and  C_12
REMARK    7  A    between atoms: C_22  and  O_23
REMARK    8  A    between atoms: O_23  and  C_24
REMARK    9  A    between atoms: C_25  and  O_26
REMARK   10  A    between atoms: O_26  and  C_27
REMARK                            x       y       z     vdW  Elec       q    Type
REMARK                         _______ _______ _______ _____ _____    ______ ____
ROOT
ATOM      1  C   UNL     1       7.606   7.153  17.909  0.00  0.00    +0.000 C 
ATOM      2  O   UNL     1       6.893   7.485  16.968  0.00  0.00    +0.000 OA
ATOM      3  N   UNL     1       7.666   5.865  18.377  0.00  0.00    +0.000 N 
ATOM      4  H   UNL     1       8.250   5.586  19.158  0.00  0.00    +0.000 HD
ENDROOT
BRANCH   1   6
ATOM      5  C   UNL     1       8.557   9.393  18.190  0.00  0.00    +0.000 C 
ATOM      6  C   UNL     1       8.476   8.124  18.631  0.00  0.00    +0.000 C 
BRANCH   5   9
ATOM      7  C   UNL     1      10.987  12.319  18.492  0.00  0.00    +0.000 A 
ATOM      8  C   UNL     1      10.328  11.178  17.989  0.00  0.00    +0.000 A 
ATOM      9  C   UNL     1       9.385  10.484  18.745  0.00  0.00    +0.000 A 
ATOM     10  C   UNL     1       9.158  10.925  20.052  0.00  0.00    +0.000 A 
ATOM     11  C   UNL     1       9.858  12.015  20.607  0.00  0.00    +0.000 A 
ATOM     12  C   UNL     1      10.792  12.728  19.829  0.00  0.00    +0.000 A 
BRANCH   7  14
ATOM     13  C   UNL     1      11.302  13.475  16.447  0.00  0.00    +0.000 C 
ATOM     14  O   UNL     1      11.850  13.018  17.684  0.00  0.00    +0.000 OA
ENDBRANCH   7  14
BRANCH  11  15
ATOM     15  O   UNL     1       9.484  12.238  21.916  0.00  0.00    +0.000 OA
ATOM     16  C   UNL     1       8.264  12.909  22.199  0.00  0.00    +0.000 C 
ENDBRANCH  11  15
BRANCH  12  17
ATOM     17  O   UNL     1      11.445  13.752  20.459  0.00  0.00    +0.000 OA
ATOM     18  C   UNL     1      10.938  15.076  20.430  0.00  0.00    +0.000 C 
ENDBRANCH  12  17
ENDBRANCH   5   9
ENDBRANCH   1   6
BRANCH   3  19
ATOM     19  C   UNL     1       6.824   4.850  17.786  0.00  0.00    +0.000 C 
BRANCH  19  20
ATOM     20  C   UNL     1       5.584   4.639  18.592  0.00  0.00    +0.000 A 
ATOM     21  N   UNL     1       5.179   3.539  19.200  0.00  0.00    +0.000 NA
ATOM     22  C   UNL     1       3.952   3.848  19.747  0.00  0.00    +0.000 A 
ATOM     23  C   UNL     1       3.063   3.048  20.481  0.00  0.00    +0.000 A 
ATOM     24  C   UNL     1       1.843   3.598  20.897  0.00  0.00    +0.000 A 
ATOM     25  C   UNL     1       1.515   4.925  20.598  0.00  0.00    +0.000 A 
ATOM     26  C   UNL     1       2.396   5.745  19.885  0.00  0.00    +0.000 A 
ATOM     27  C   UNL     1       3.603   5.166  19.477  0.00  0.00    +0.000 A 
ATOM     28  N   UNL     1       4.674   5.658  18.776  0.00  0.00    +0.000 N 
ATOM     29  H   UNL     1       4.765   6.602  18.428  0.00  0.00    +0.000 HD
ENDBRANCH  19  20
ENDBRANCH   3  19
TORSDOF 7
ENDMDL
MODEL 8
REMARK VINA RESULT:      -8.3      1.319      2.835
REMARK  Name = 
REMARK  10 active torsions:
REMARK  status: ('A' for Active; 'I' for Inactive)
REMARK    1  A    between atoms: C_1  and  O_2
REMARK    2  A    between atoms: O_2  and  C_3
REMARK    3  A    between atoms: C_5  and  C_6
REMARK    4  A    between atoms: C_7  and  C_8
REMARK    5  A    between atoms: N_10  and  C_11
REMARK    6  A    between atoms: C_11  and  C_12
REMARK    7  A    between atoms: C_22  and  O_23
REMARK    8  A    between atoms: O_23  and  C_24
REMARK    9  A    between atoms: C_25  and  O_26
REMARK   10  A    between atoms: O_26  and  C_27
REMARK                            x       y       z     vdW  Elec       q    Type
REMARK                         _______ _______ _______ _____ _____    ______ ____
ROOT
ATOM      1  C   UNL     1       7.779   7.580  17.666  0.00  0.00    +0.000 C 
ATOM      2  O   UNL     1       7.303   7.134  16.628  0.00  0.00    +0.000 OA
ATOM      3  N   UNL     1       8.116   6.785  18.732  0.00  0.00    +0.000 N 
ATOM      4  H   UNL     1       8.505   7.149  19.594  0.00  0.00    +0.000 HD
ENDROOT
BRANCH   1   6
ATOM      5  C   UNL     1       9.038   9.422  18.678  0.00  0.00    +0.000 C 
ATOM      6  C   UNL     1       8.038   9.035  17.864  0.00  0.00    +0.000 C 
BRANCH   5   9
ATOM      7  C   UNL     1      10.119  13.072  18.412  0.00  0.00    +0.000 A 
ATOM      8  C   UNL     1       9.913  11.714  18.090  0.00  0.00    +0.000 A 
ATOM      9  C   UNL     1       9.425  10.805  19.027  0.00  0.00    +0.000 A 
ATOM     10  C   UNL     1       9.204  11.276  20.325  0.00  0.00    +0.000 A 
ATOM     11  C   UNL     1       9.475  12.608  20.695  0.00  0.00    +0.000 A 
ATOM     12  C   UNL     1       9.944  13.529  19.736  0.00  0.00    +0.000 A 
BRANCH   7  14
ATOM     13  C   UNL     1      11.529  13.458  16.546  0.00  0.00    +0.000 C 
ATOM     14  O   UNL     1      10.525  13.949  17.436  0.00  0.00    +0.000 OA
ENDBRANCH   7  14
BRANCH  11  15
ATOM     15  O   UNL     1       9.207  12.823  22.031  0.00  0.00    +0.000 OA
ATOM     16  C   UNL     1       8.345  11.937  22.732  0.00  0.00    +0.000 C 
ENDBRANCH  11  15
BRANCH  12  17
ATOM     17  O   UNL     1      10.207  14.793  20.191  0.00  0.00    +0.000 OA
ATOM     18  C   UNL     1      11.530  15.298  20.237  0.00  0.00    +0.000 C 
ENDBRANCH  12  17
ENDBRANCH   5   9
ENDBRANCH   1   6
BRANCH   3  19
ATOM     19  C   UNL     1       7.859   5.364  18.672  0.00  0.00    +0.000 C 
BRANCH  19  20
ATOM     20  C   UNL     1       6.392   5.080  18.651  0.00  0.00    +0.000 A 
ATOM     21  N   UNL     1       5.464   5.503  19.491  0.00  0.00    +0.000 NA
ATOM     22  C   UNL     1       4.291   4.912  19.073  0.00  0.00    +0.000 A 
ATOM     23  C   UNL     1       2.998   4.993  19.612  0.00  0.00    +0.000 A 
ATOM     24  C   UNL     1       1.968   4.255  19.013  0.00  0.00    +0.000 A 
ATOM     25  C   UNL     1       2.215   3.457  17.892  0.00  0.00    +0.000 A 
ATOM     26  C   UNL     1       3.493   3.379  17.328  0.00  0.00    +0.000 A 
ATOM     27  C   UNL     1       4.502   4.121  17.950  0.00  0.00    +0.000 A 
ATOM     28  N   UNL     1       5.837   4.276  17.680  0.00  0.00    +0.000 N 
ATOM     29  H   UNL     1       6.334   3.847  16.912  0.00  0.00    +0.000 HD
ENDBRANCH  19  20
ENDBRANCH   3  19
TORSDOF 7
ENDMDL
MODEL 9
REMARK VINA RESULT:      -8.1      0.799      2.731
REMARK  Name = 
REMARK  10 active torsions:
REMARK  status: ('A' for Active; 'I' for Inactive)
REMARK    1  A    between atoms: C_1  and  O_2
REMARK    2  A    between atoms: O_2  and  C_3
REMARK    3  A    between atoms: C_5  and  C_6
REMARK    4  A    between atoms: C_7  and  C_8
REMARK    5  A    between atoms: N_10  and  C_11
REMARK    6  A    between atoms: C_11  and  C_12
REMARK    7  A    between atoms: C_22  and  O_23
REMARK    8  A    between atoms: O_23  and  C_24
REMARK    9  A    between atoms: C_25  and  O_26
REMARK   10  A    between atoms: O_26  and  C_27
REMARK                            x       y       z     vdW  Elec       q    Type
REMARK                         _______ _______ _______ _____ _____    ______ ____
ROOT
ATOM      1  C   UNL     1       7.775   7.186  17.947  0.00  0.00    +0.000 C 
ATOM      2  O   UNL     1       8.083   6.423  18.856  0.00  0.00    +0.000 OA
ATOM      3  N   UNL     1       7.134   6.766  16.809  0.00  0.00    +0.000 N 
ATOM      4  H   UNL     1       6.881   7.391  16.052  0.00  0.00    +0.000 HD
ENDROOT
BRANCH   1   6
ATOM      5  C   UNL     1       8.954   9.110  18.900  0.00  0.00    +0.000 C 
ATOM      6  C   UNL     1       8.070   8.646  17.997  0.00  0.00    +0.000 C 
BRANCH   5   9
ATOM      7  C   UNL     1       9.864  12.769  18.318  0.00  0.00    +0.000 A 
ATOM      8  C   UNL     1       9.651  11.394  18.087  0.00  0.00    +0.000 A 
ATOM      9  C   UNL     1       9.349  10.516  19.127  0.00  0.00    +0.000 A 
ATOM     10  C   UNL     1       9.326  11.037  20.424  0.00  0.00    +0.000 A 
ATOM     11  C   UNL     1       9.612  12.391  20.692  0.00  0.00    +0.000 A 
ATOM     12  C   UNL     1       9.891  13.279  19.635  0.00  0.00    +0.000 A 
BRANCH   7  14
ATOM     13  C   UNL     1      11.381  13.545  16.671  0.00  0.00    +0.000 C 
ATOM     14  O   UNL     1      10.080  13.612  17.256  0.00  0.00    +0.000 OA
ENDBRANCH   7  14
BRANCH  11  15
ATOM     15  O   UNL     1       9.556  12.658  22.044  0.00  0.00    +0.000 OA
ATOM     16  C   UNL     1       8.302  12.675  22.712  0.00  0.00    +0.000 C 
ENDBRANCH  11  15
BRANCH  12  17
ATOM     17  O   UNL     1      10.184  14.568  19.990  0.00  0.00    +0.000 OA
ATOM     18  C   UNL     1       9.218  15.600  19.883  0.00  0.00    +0.000 C 
ENDBRANCH  12  17
ENDBRANCH   5   9
ENDBRANCH   1   6
BRANCH   3  19
ATOM     19  C   UNL     1       6.846   5.361  16.629  0.00  0.00    +0.000 C 
BRANCH  19  20
ATOM     20  C   UNL     1       5.639   4.953  17.409  0.00  0.00    +0.000 A 
ATOM     21  N   UNL     1       5.584   4.234  18.516  0.00  0.00    +0.000 NA
ATOM     22  C   UNL     1       4.241   4.087  18.795  0.00  0.00    +0.000 A 
ATOM     23  C   UNL     1       3.607   3.398  19.839  0.00  0.00    +0.000 A 
ATOM     24  C   UNL     1       2.206   3.367  19.877  0.00  0.00    +0.000 A 
ATOM     25  C   UNL     1       1.448   4.019  18.900  0.00  0.00    +0.000 A 
ATOM     26  C   UNL     1       2.061   4.728  17.861  0.00  0.00    +0.000 A 
ATOM     27  C   UNL     1       3.460   4.735  17.845  0.00  0.00    +0.000 A 
ATOM     28  N   UNL     1       4.373   5.310  16.998  0.00  0.00    +0.000 N 
ATOM     29  H   UNL     1       4.150   5.876  16.192  0.00  0.00    +0.000 HD
ENDBRANCH  19  20
ENDBRANCH   3  19
TORSDOF 7
ENDMDL
