MODEL 1
REMARK VINA RESULT:      -7.8      0.000      0.000
REMARK  Name = 
REMARK  14 active torsions:
REMARK  status: ('A' for Active; 'I' for Inactive)
REMARK    1  A    between atoms: C_1  and  C_2
REMARK    2  A    between atoms: C_2  and  O_3
REMARK    3  A    between atoms: O_3  and  C_4
REMARK    4  A    between atoms: N_9  and  C_10
REMARK    5  A    between atoms: C_10  and  C_11
REMARK    6  A    between atoms: C_11  and  C_12
REMARK    7  A    between atoms: C_12  and  O_13
REMARK    8  A    between atoms: O_13  and  C_14
REMARK    9  A    between atoms: C_17  and  C_18
REMARK   10  A    between atoms: C_18  and  C_20
REMARK   11  A    between atoms: C_23  and  C_24
REMARK   12  A    between atoms: C_24  and  C_25
REMARK   13  A    between atoms: C_24  and  C_26
REMARK   14  A    between atoms: C_24  and  C_27
REMARK                            x       y       z     vdW  Elec       q    Type
REMARK                         _______ _______ _______ _____ _____    ______ ____
ROOT
ATOM      1  C   UNL     1       1.936   7.319  20.207  0.00  0.00    +0.000 A 
ATOM      2  C   UNL     1       2.176   7.775  18.909  0.00  0.00    +0.000 A 
ATOM      3  C   UNL     1       1.689   9.014  18.496  0.00  0.00    +0.000 A 
ATOM      4  C   UNL     1       0.932   9.790  19.373  0.00  0.00    +0.000 A 
ATOM      5  C   UNL     1       0.644   9.312  20.659  0.00  0.00    +0.000 A 
ATOM      6  C   UNL     1       1.159   8.081  21.076  0.00  0.00    +0.000 A 
ENDROOT
BRANCH   4   7
ATOM      7  C   UNL     1       0.409  11.091  18.891  0.00  0.00    +0.000 C 
ATOM      8  O   UNL     1       1.202  11.960  18.532  0.00  0.00    +0.000 OA
BRANCH   7   9
ATOM      9  C   UNL     1      -1.048  11.358  18.800  0.00  0.00    +0.000 A 
ATOM     10  C   UNL     1      -1.744  10.802  17.729  0.00  0.00    +0.000 A 
ATOM     11  C   UNL     1      -3.122  10.976  17.631  0.00  0.00    +0.000 A 
ATOM     12  C   UNL     1      -3.850  11.708  18.590  0.00  0.00    +0.000 A 
ATOM     13  C   UNL     1      -3.117  12.301  19.636  0.00  0.00    +0.000 A 
ATOM     14  C   UNL     1      -1.728  12.141  19.733  0.00  0.00    +0.000 A 
BRANCH  12  15
ATOM     15  C   UNL     1      -5.380  11.840  18.520  0.00  0.00    +0.000 C 
ATOM     16  C   UNL     1      -5.929  12.844  19.557  0.00  0.00    +0.000 C 
ATOM     17  C   UNL     1      -5.798  12.336  17.116  0.00  0.00    +0.000 C 
ATOM     18  C   UNL     1      -6.073  10.486  18.780  0.00  0.00    +0.000 C 
ENDBRANCH  12  15
ENDBRANCH   7   9
ENDBRANCH   4   7
BRANCH   1  19
ATOM     19  O   UNL     1       2.470   6.096  20.493  0.00  0.00    +0.000 OA
BRANCH  19  20
ATOM     20  C   UNL     1       2.174   5.073  19.541  0.00  0.00    +0.000 C 
BRANCH  20  21
ATOM     21  C   UNL     1       3.435   4.240  19.363  0.00  0.00    +0.000 C 
BRANCH  21  22
ATOM     22  C   UNL     1       4.557   5.039  18.692  0.00  0.00    +0.000 C 
BRANCH  22  28
ATOM     23  C   UNL     1       7.128   4.694  14.460  0.00  0.00    +0.000 C 
ATOM     24  O   UNL     1       7.839   5.612  14.068  0.00  0.00    +0.000 OA
ATOM     25  N   UNL     1       6.501   4.676  15.684  0.00  0.00    +0.000 N 
ATOM     26  C   UNL     1       6.601   5.853  16.540  0.00  0.00    +0.000 C 
ATOM     27  C   UNL     1       5.210   6.464  16.796  0.00  0.00    +0.000 C 
ATOM     28  N   UNL     1       4.221   5.495  17.331  0.00  0.00    +0.000 NA
ATOM     29  C   UNL     1       4.135   4.354  16.381  0.00  0.00    +0.000 C 
ATOM     30  C   UNL     1       5.494   3.683  16.077  0.00  0.00    +0.000 C 
BRANCH  23  31
ATOM     31  O   UNL     1       6.803   3.617  13.698  0.00  0.00    +0.000 OA
BRANCH  31  33
ATOM     32  C   UNL     1       5.178   3.255  12.000  0.00  0.00    +0.000 C 
ATOM     33  C   UNL     1       6.502   3.922  12.333  0.00  0.00    +0.000 C 
ENDBRANCH  31  33
ENDBRANCH  23  31
ENDBRANCH  22  28
ENDBRANCH  21  22
ENDBRANCH  20  21
ENDBRANCH  19  20
ENDBRANCH   1  19
TORSDOF 10
ENDMDL
MODEL 2
REMARK VINA RESULT:      -7.5      1.874      2.687
REMARK  Name = 
REMARK  14 active torsions:
REMARK  status: ('A' for Active; 'I' for Inactive)
REMARK    1  A    between atoms: C_1  and  C_2
REMARK    2  A    between atoms: C_2  and  O_3
REMARK    3  A    between atoms: O_3  and  C_4
REMARK    4  A    between atoms: N_9  and  C_10
REMARK    5  A    between atoms: C_10  and  C_11
REMARK    6  A    between atoms: C_11  and  C_12
REMARK    7  A    between atoms: C_12  and  O_13
REMARK    8  A    between atoms: O_13  and  C_14
REMARK    9  A    between atoms: C_17  and  C_18
REMARK   10  A    between atoms: C_18  and  C_20
REMARK   11  A    between atoms: C_23  and  C_24
REMARK   12  A    between atoms: C_24  and  C_25
REMARK   13  A    between atoms: C_24  and  C_26
REMARK   14  A    between atoms: C_24  and  C_27
REMARK                            x       y       z     vdW  Elec       q    Type
REMARK                         _______ _______ _______ _____ _____    ______ ____
ROOT
ATOM      1  C   UNL     1       1.320   8.036  20.607  0.00  0.00    +0.000 A 
ATOM      2  C   UNL     1       1.138   8.421  21.937  0.00  0.00    +0.000 A 
ATOM      3  C   UNL     1       0.648   9.691  22.242  0.00  0.00    +0.000 A 
ATOM      4  C   UNL     1       0.368  10.592  21.216  0.00  0.00    +0.000 A 
ATOM      5  C   UNL     1       0.599  10.228  19.883  0.00  0.00    +0.000 A 
ATOM      6  C   UNL     1       1.064   8.944  19.582  0.00  0.00    +0.000 A 
ENDROOT
BRANCH   4   7
ATOM      7  C   UNL     1      -0.127  11.942  21.580  0.00  0.00    +0.000 C 
ATOM      8  O   UNL     1       0.680  12.862  21.706  0.00  0.00    +0.000 OA
BRANCH   7   9
ATOM      9  C   UNL     1      -1.573  12.217  21.763  0.00  0.00    +0.000 A 
ATOM     10  C   UNL     1      -2.103  12.082  23.044  0.00  0.00    +0.000 A 
ATOM     11  C   UNL     1      -3.442  12.384  23.279  0.00  0.00    +0.000 A 
ATOM     12  C   UNL     1      -4.296  12.826  22.249  0.00  0.00    +0.000 A 
ATOM     13  C   UNL     1      -3.750  12.909  20.954  0.00  0.00    +0.000 A 
ATOM     14  C   UNL     1      -2.406  12.594  20.709  0.00  0.00    +0.000 A 
BRANCH  12  15
ATOM     15  C   UNL     1      -5.754  13.227  22.521  0.00  0.00    +0.000 C 
ATOM     16  C   UNL     1      -6.220  12.819  23.936  0.00  0.00    +0.000 C 
ATOM     17  C   UNL     1      -5.907  14.762  22.399  0.00  0.00    +0.000 C 
ATOM     18  C   UNL     1      -6.717  12.565  21.512  0.00  0.00    +0.000 C 
ENDBRANCH  12  15
ENDBRANCH   7   9
ENDBRANCH   4   7
BRANCH   1  19
ATOM     19  O   UNL     1       1.797   6.769  20.437  0.00  0.00    +0.000 OA
BRANCH  19  20
ATOM     20  C   UNL     1       2.763   6.624  19.396  0.00  0.00    +0.000 C 
BRANCH  20  21
ATOM     21  C   UNL     1       3.769   5.577  19.852  0.00  0.00    +0.000 C 
BRANCH  21  22
ATOM     22  C   UNL     1       4.849   5.325  18.794  0.00  0.00    +0.000 C 
BRANCH  22  28
ATOM     23  C   UNL     1       7.041   4.565  14.406  0.00  0.00    +0.000 C 
ATOM     24  O   UNL     1       7.823   5.382  13.932  0.00  0.00    +0.000 OA
ATOM     25  N   UNL     1       6.509   4.654  15.671  0.00  0.00    +0.000 N 
ATOM     26  C   UNL     1       6.808   5.834  16.476  0.00  0.00    +0.000 C 
ATOM     27  C   UNL     1       5.519   6.610  16.807  0.00  0.00    +0.000 C 
ATOM     28  N   UNL     1       4.467   5.780  17.445  0.00  0.00    +0.000 NA
ATOM     29  C   UNL     1       4.180   4.632  16.544  0.00  0.00    +0.000 C 
ATOM     30  C   UNL     1       5.426   3.797  16.169  0.00  0.00    +0.000 C 
BRANCH  23  31
ATOM     31  O   UNL     1       6.538   3.514  13.707  0.00  0.00    +0.000 OA
BRANCH  31  33
ATOM     32  C   UNL     1       4.971   3.387  11.924  0.00  0.00    +0.000 C 
ATOM     33  C   UNL     1       6.398   3.745  12.302  0.00  0.00    +0.000 C 
ENDBRANCH  31  33
ENDBRANCH  23  31
ENDBRANCH  22  28
ENDBRANCH  21  22
ENDBRANCH  20  21
ENDBRANCH  19  20
ENDBRANCH   1  19
TORSDOF 10
ENDMDL
MODEL 3
REMARK VINA RESULT:      -7.5      2.924      4.980
REMARK  Name = 
REMARK  14 active torsions:
REMARK  status: ('A' for Active; 'I' for Inactive)
REMARK    1  A    between atoms: C_1  and  C_2
REMARK    2  A    between atoms: C_2  and  O_3
REMARK    3  A    between atoms: O_3  and  C_4
REMARK    4  A    between atoms: N_9  and  C_10
REMARK    5  A    between atoms: C_10  and  C_11
REMARK    6  A    between atoms: C_11  and  C_12
REMARK    7  A    between atoms: C_12  and  O_13
REMARK    8  A    between atoms: O_13  and  C_14
REMARK    9  A    between atoms: C_17  and  C_18
REMARK   10  A    between atoms: C_18  and  C_20
REMARK   11  A    between atoms: C_23  and  C_24
REMARK   12  A    between atoms: C_24  and  C_25
REMARK   13  A    between atoms: C_24  and  C_26
REMARK   14  A    between atoms: C_24  and  C_27
REMARK                            x       y       z     vdW  Elec       q    Type
REMARK                         _______ _______ _______ _____ _____    ______ ____
ROOT
ATOM      1  C   UNL     1       1.977   7.472  19.884  0.00  0.00    +0.000 A 
ATOM      2  C   UNL     1       2.085   7.990  18.591  0.00  0.00    +0.000 A 
ATOM      3  C   UNL     1       1.510   9.221  18.276  0.00  0.00    +0.000 A 
ATOM      4  C   UNL     1       0.797   9.923  19.246  0.00  0.00    +0.000 A 
ATOM      5  C   UNL     1       0.641   9.381  20.529  0.00  0.00    +0.000 A 
ATOM      6  C   UNL     1       1.244   8.160  20.847  0.00  0.00    +0.000 A 
ENDROOT
BRANCH   4   7
ATOM      7  C   UNL     1       0.176  11.216  18.866  0.00  0.00    +0.000 C 
ATOM      8  O   UNL     1      -1.042  11.272  18.706  0.00  0.00    +0.000 OA
BRANCH   7   9
ATOM      9  C   UNL     1       0.985  12.449  18.707  0.00  0.00    +0.000 A 
ATOM     10  C   UNL     1       0.354  13.672  18.925  0.00  0.00    +0.000 A 
ATOM     11  C   UNL     1       1.085  14.855  18.844  0.00  0.00    +0.000 A 
ATOM     12  C   UNL     1       2.461  14.861  18.542  0.00  0.00    +0.000 A 
ATOM     13  C   UNL     1       3.065  13.616  18.279  0.00  0.00    +0.000 A 
ATOM     14  C   UNL     1       2.332  12.423  18.345  0.00  0.00    +0.000 A 
BRANCH  12  15
ATOM     15  C   UNL     1       3.282  16.160  18.522  0.00  0.00    +0.000 C 
ATOM     16  C   UNL     1       3.014  17.041  19.762  0.00  0.00    +0.000 C 
ATOM     17  C   UNL     1       4.792  15.824  18.499  0.00  0.00    +0.000 C 
ATOM     18  C   UNL     1       2.958  17.010  17.275  0.00  0.00    +0.000 C 
ENDBRANCH  12  15
ENDBRANCH   7   9
ENDBRANCH   4   7
BRANCH   1  19
ATOM     19  O   UNL     1       2.587   6.265  20.070  0.00  0.00    +0.000 OA
BRANCH  19  20
ATOM     20  C   UNL     1       1.730   5.225  20.542  0.00  0.00    +0.000 C 
BRANCH  20  21
ATOM     21  C   UNL     1       2.023   3.984  19.711  0.00  0.00    +0.000 C 
BRANCH  21  22
ATOM     22  C   UNL     1       2.788   4.325  18.427  0.00  0.00    +0.000 C 
BRANCH  22  28
ATOM     23  C   UNL     1       7.036   5.998  16.478  0.00  0.00    +0.000 C 
ATOM     24  O   UNL     1       7.370   5.712  15.334  0.00  0.00    +0.000 OA
ATOM     25  N   UNL     1       5.815   5.679  17.025  0.00  0.00    +0.000 N 
ATOM     26  C   UNL     1       4.886   4.869  16.242  0.00  0.00    +0.000 C 
ATOM     27  C   UNL     1       4.592   3.534  16.954  0.00  0.00    +0.000 C 
ATOM     28  N   UNL     1       4.118   3.692  18.351  0.00  0.00    +0.000 NA
ATOM     29  C   UNL     1       5.137   4.478  19.096  0.00  0.00    +0.000 C 
ATOM     30  C   UNL     1       5.484   5.838  18.446  0.00  0.00    +0.000 C 
BRANCH  23  31
ATOM     31  O   UNL     1       7.863   6.594  17.376  0.00  0.00    +0.000 OA
BRANCH  31  33
ATOM     32  C   UNL     1       8.616   8.499  18.582  0.00  0.00    +0.000 C 
ATOM     33  C   UNL     1       7.777   8.022  17.409  0.00  0.00    +0.000 C 
ENDBRANCH  31  33
ENDBRANCH  23  31
ENDBRANCH  22  28
ENDBRANCH  21  22
ENDBRANCH  20  21
ENDBRANCH  19  20
ENDBRANCH   1  19
TORSDOF 10
ENDMDL
MODEL 4
REMARK VINA RESULT:      -7.4      1.642      2.797
REMARK  Name = 
REMARK  14 active torsions:
REMARK  status: ('A' for Active; 'I' for Inactive)
REMARK    1  A    between atoms: C_1  and  C_2
REMARK    2  A    between atoms: C_2  and  O_3
REMARK    3  A    between atoms: O_3  and  C_4
REMARK    4  A    between atoms: N_9  and  C_10
REMARK    5  A    between atoms: C_10  and  C_11
REMARK    6  A    between atoms: C_11  and  C_12
REMARK    7  A    between atoms: C_12  and  O_13
REMARK    8  A    between atoms: O_13  and  C_14
REMARK    9  A    between atoms: C_17  and  C_18
REMARK   10  A    between atoms: C_18  and  C_20
REMARK   11  A    between atoms: C_23  and  C_24
REMARK   12  A    between atoms: C_24  and  C_25
REMARK   13  A    between atoms: C_24  and  C_26
REMARK   14  A    between atoms: C_24  and  C_27
REMARK                            x       y       z     vdW  Elec       q    Type
REMARK                         _______ _______ _______ _____ _____    ______ ____
ROOT
ATOM      1  C   UNL     1       1.908   7.436  19.962  0.00  0.00    +0.000 A 
ATOM      2  C   UNL     1       2.000   7.994  18.685  0.00  0.00    +0.000 A 
ATOM      3  C   UNL     1       1.462   9.255  18.426  0.00  0.00    +0.000 A 
ATOM      4  C   UNL     1       0.802   9.949  19.439  0.00  0.00    +0.000 A 
ATOM      5  C   UNL     1       0.660   9.369  20.707  0.00  0.00    +0.000 A 
ATOM      6  C   UNL     1       1.226   8.117  20.967  0.00  0.00    +0.000 A 
ENDROOT
BRANCH   4   7
ATOM      7  C   UNL     1       0.220  11.276  19.120  0.00  0.00    +0.000 C 
ATOM      8  O   UNL     1       0.972  12.208  18.844  0.00  0.00    +0.000 OA
BRANCH   7   9
ATOM      9  C   UNL     1      -1.247  11.495  19.095  0.00  0.00    +0.000 A 
ATOM     10  C   UNL     1      -1.824  12.154  20.178  0.00  0.00    +0.000 A 
ATOM     11  C   UNL     1      -3.188  12.435  20.175  0.00  0.00    +0.000 A 
ATOM     12  C   UNL     1      -4.021  12.068  19.099  0.00  0.00    +0.000 A 
ATOM     13  C   UNL     1      -3.424  11.361  18.038  0.00  0.00    +0.000 A 
ATOM     14  C   UNL     1      -2.054  11.063  18.041  0.00  0.00    +0.000 A 
BRANCH  12  15
ATOM     15  C   UNL     1      -5.511  12.440  19.064  0.00  0.00    +0.000 C 
ATOM     16  C   UNL     1      -6.166  12.109  17.704  0.00  0.00    +0.000 C 
ATOM     17  C   UNL     1      -6.272  11.654  20.157  0.00  0.00    +0.000 C 
ATOM     18  C   UNL     1      -5.720  13.948  19.320  0.00  0.00    +0.000 C 
ENDBRANCH  12  15
ENDBRANCH   7   9
ENDBRANCH   4   7
BRANCH   1  19
ATOM     19  O   UNL     1       2.477   6.203  20.091  0.00  0.00    +0.000 OA
BRANCH  19  20
ATOM     20  C   UNL     1       1.700   5.255  20.823  0.00  0.00    +0.000 C 
BRANCH  20  21
ATOM     21  C   UNL     1       2.506   3.966  20.896  0.00  0.00    +0.000 C 
BRANCH  21  22
ATOM     22  C   UNL     1       2.131   2.995  19.771  0.00  0.00    +0.000 C 
BRANCH  22  28
ATOM     23  C   UNL     1       5.680   4.180  16.507  0.00  0.00    +0.000 C 
ATOM     24  O   UNL     1       5.582   3.884  15.322  0.00  0.00    +0.000 OA
ATOM     25  N   UNL     1       4.676   4.000  17.430  0.00  0.00    +0.000 N 
ATOM     26  C   UNL     1       3.448   3.332  17.009  0.00  0.00    +0.000 C 
ATOM     27  C   UNL     1       3.239   2.026  17.800  0.00  0.00    +0.000 C 
ATOM     28  N   UNL     1       3.273   2.205  19.272  0.00  0.00    +0.000 NA
ATOM     29  C   UNL     1       4.570   2.840  19.628  0.00  0.00    +0.000 C 
ATOM     30  C   UNL     1       4.852   4.162  18.878  0.00  0.00    +0.000 C 
BRANCH  23  31
ATOM     31  O   UNL     1       6.824   4.645  17.074  0.00  0.00    +0.000 OA
BRANCH  31  33
ATOM     32  C   UNL     1       7.435   6.791  17.896  0.00  0.00    +0.000 C 
ATOM     33  C   UNL     1       7.209   5.956  16.647  0.00  0.00    +0.000 C 
ENDBRANCH  31  33
ENDBRANCH  23  31
ENDBRANCH  22  28
ENDBRANCH  21  22
ENDBRANCH  20  21
ENDBRANCH  19  20
ENDBRANCH   1  19
TORSDOF 10
ENDMDL
MODEL 5
REMARK VINA RESULT:      -7.4      3.283      5.430
REMARK  Name = 
REMARK  14 active torsions:
REMARK  status: ('A' for Active; 'I' for Inactive)
REMARK    1  A    between atoms: C_1  and  C_2
REMARK    2  A    between atoms: C_2  and  O_3
REMARK    3  A    between atoms: O_3  and  C_4
REMARK    4  A    between atoms: N_9  and  C_10
REMARK    5  A    between atoms: C_10  and  C_11
REMARK    6  A    between atoms: C_11  and  C_12
REMARK    7  A    between atoms: C_12  and  O_13
REMARK    8  A    between atoms: O_13  and  C_14
REMARK    9  A    between atoms: C_17  and  C_18
REMARK   10  A    between atoms: C_18  and  C_20
REMARK   11  A    between atoms: C_23  and  C_24
REMARK   12  A    between atoms: C_24  and  C_25
REMARK   13  A    between atoms: C_24  and  C_26
REMARK   14  A    between atoms: C_24  and  C_27
REMARK                            x       y       z     vdW  Elec       q    Type
REMARK                         _______ _______ _______ _____ _____    ______ ____
ROOT
ATOM      1  C   UNL     1       2.066   7.210  19.824  0.00  0.00    +0.000 A 
ATOM      2  C   UNL     1       2.238   7.750  18.547  0.00  0.00    +0.000 A 
ATOM      3  C   UNL     1       1.843   9.059  18.277  0.00  0.00    +0.000 A 
ATOM      4  C   UNL     1       1.242   9.824  19.276  0.00  0.00    +0.000 A 
ATOM      5  C   UNL     1       1.018   9.267  20.543  0.00  0.00    +0.000 A 
ATOM      6  C   UNL     1       1.443   7.964  20.816  0.00  0.00    +0.000 A 
ENDROOT
BRANCH   4   7
ATOM      7  C   UNL     1       0.810  11.203  18.944  0.00  0.00    +0.000 C 
ATOM      8  O   UNL     1      -0.330  11.388  18.520  0.00  0.00    +0.000 OA
BRANCH   7   9
ATOM      9  C   UNL     1       1.707  12.368  19.141  0.00  0.00    +0.000 A 
ATOM     10  C   UNL     1       1.779  12.924  20.416  0.00  0.00    +0.000 A 
ATOM     11  C   UNL     1       2.650  13.982  20.665  0.00  0.00    +0.000 A 
ATOM     12  C   UNL     1       3.473  14.521  19.656  0.00  0.00    +0.000 A 
ATOM     13  C   UNL     1       3.347  13.974  18.365  0.00  0.00    +0.000 A 
ATOM     14  C   UNL     1       2.462  12.918  18.105  0.00  0.00    +0.000 A 
BRANCH  12  15
ATOM     15  C   UNL     1       4.484  15.641  19.947  0.00  0.00    +0.000 C 
ATOM     16  C   UNL     1       4.151  16.944  19.189  0.00  0.00    +0.000 C 
ATOM     17  C   UNL     1       4.487  15.963  21.460  0.00  0.00    +0.000 C 
ATOM     18  C   UNL     1       5.915  15.226  19.541  0.00  0.00    +0.000 C 
ENDBRANCH  12  15
ENDBRANCH   7   9
ENDBRANCH   4   7
BRANCH   1  19
ATOM     19  O   UNL     1       2.499   5.924  19.966  0.00  0.00    +0.000 OA
BRANCH  19  20
ATOM     20  C   UNL     1       1.598   5.058  20.658  0.00  0.00    +0.000 C 
BRANCH  20  21
ATOM     21  C   UNL     1       1.622   3.714  19.946  0.00  0.00    +0.000 C 
BRANCH  21  22
ATOM     22  C   UNL     1       2.262   3.815  18.557  0.00  0.00    +0.000 C 
BRANCH  22  28
ATOM     23  C   UNL     1       7.026   4.634  17.426  0.00  0.00    +0.000 C 
ATOM     24  O   UNL     1       7.422   4.598  16.266  0.00  0.00    +0.000 OA
ATOM     25  N   UNL     1       5.702   4.550  17.789  0.00  0.00    +0.000 N 
ATOM     26  C   UNL     1       4.704   4.309  16.751  0.00  0.00    +0.000 C 
ATOM     27  C   UNL     1       3.969   2.977  16.998  0.00  0.00    +0.000 C 
ATOM     28  N   UNL     1       3.371   2.866  18.351  0.00  0.00    +0.000 NA
ATOM     29  C   UNL     1       4.453   3.069  19.350  0.00  0.00    +0.000 C 
ATOM     30  C   UNL     1       5.237   4.390  19.172  0.00  0.00    +0.000 C 
BRANCH  23  31
ATOM     31  O   UNL     1       7.854   4.677  18.502  0.00  0.00    +0.000 OA
BRANCH  31  33
ATOM     32  C   UNL     1       7.835   7.023  18.119  0.00  0.00    +0.000 C 
ATOM     33  C   UNL     1       7.886   5.937  19.180  0.00  0.00    +0.000 C 
ENDBRANCH  31  33
ENDBRANCH  23  31
ENDBRANCH  22  28
ENDBRANCH  21  22
ENDBRANCH  20  21
ENDBRANCH  19  20
ENDBRANCH   1  19
TORSDOF 10
ENDMDL
MODEL 6
REMARK VINA RESULT:      -7.4      5.252     11.904
REMARK  Name = 
REMARK  14 active torsions:
REMARK  status: ('A' for Active; 'I' for Inactive)
REMARK    1  A    between atoms: C_1  and  C_2
REMARK    2  A    between atoms: C_2  and  O_3
REMARK    3  A    between atoms: O_3  and  C_4
REMARK    4  A    between atoms: N_9  and  C_10
REMARK    5  A    between atoms: C_10  and  C_11
REMARK    6  A    between atoms: C_11  and  C_12
REMARK    7  A    between atoms: C_12  and  O_13
REMARK    8  A    between atoms: O_13  and  C_14
REMARK    9  A    between atoms: C_17  and  C_18
REMARK   10  A    between atoms: C_18  and  C_20
REMARK   11  A    between atoms: C_23  and  C_24
REMARK   12  A    between atoms: C_24  and  C_25
REMARK   13  A    between atoms: C_24  and  C_26
REMARK   14  A    between atoms: C_24  and  C_27
REMARK                            x       y       z     vdW  Elec       q    Type
REMARK                         _______ _______ _______ _____ _____    ______ ____
ROOT
ATOM      1  C   UNL     1      -3.685  10.943  17.758  0.00  0.00    +0.000 A 
ATOM      2  C   UNL     1      -2.822  10.040  17.132  0.00  0.00    +0.000 A 
ATOM      3  C   UNL     1      -1.478   9.981  17.497  0.00  0.00    +0.000 A 
ATOM      4  C   UNL     1      -0.984  10.848  18.471  0.00  0.00    +0.000 A 
ATOM      5  C   UNL     1      -1.834  11.791  19.063  0.00  0.00    +0.000 A 
ATOM      6  C   UNL     1      -3.187  11.827  18.713  0.00  0.00    +0.000 A 
ENDROOT
BRANCH   4   7
ATOM      7  C   UNL     1       0.457  10.773  18.815  0.00  0.00    +0.000 C 
ATOM      8  O   UNL     1       1.072  11.813  19.047  0.00  0.00    +0.000 OA
BRANCH   7   9
ATOM      9  C   UNL     1       1.166   9.474  18.917  0.00  0.00    +0.000 A 
ATOM     10  C   UNL     1       1.135   8.812  20.142  0.00  0.00    +0.000 A 
ATOM     11  C   UNL     1       1.737   7.563  20.273  0.00  0.00    +0.000 A 
ATOM     12  C   UNL     1       2.389   6.935  19.193  0.00  0.00    +0.000 A 
ATOM     13  C   UNL     1       2.448   7.645  17.979  0.00  0.00    +0.000 A 
ATOM     14  C   UNL     1       1.856   8.908  17.845  0.00  0.00    +0.000 A 
BRANCH  12  15
ATOM     15  C   UNL     1       2.991   5.526  19.318  0.00  0.00    +0.000 C 
ATOM     16  C   UNL     1       4.535   5.548  19.340  0.00  0.00    +0.000 C 
ATOM     17  C   UNL     1       2.510   4.867  20.632  0.00  0.00    +0.000 C 
ATOM     18  C   UNL     1       2.560   4.625  18.141  0.00  0.00    +0.000 C 
ENDBRANCH  12  15
ENDBRANCH   7   9
ENDBRANCH   4   7
BRANCH   1  19
ATOM     19  O   UNL     1      -4.976  10.902  17.319  0.00  0.00    +0.000 OA
BRANCH  19  20
ATOM     20  C   UNL     1      -5.610  12.175  17.194  0.00  0.00    +0.000 C 
BRANCH  20  21
ATOM     21  C   UNL     1      -6.943  12.092  17.924  0.00  0.00    +0.000 C 
BRANCH  21  22
ATOM     22  C   UNL     1      -7.293  13.408  18.625  0.00  0.00    +0.000 C 
BRANCH  22  28
ATOM     23  C   UNL     1      -5.275  13.453  23.160  0.00  0.00    +0.000 C 
ATOM     24  O   UNL     1      -4.929  12.416  23.715  0.00  0.00    +0.000 OA
ATOM     25  N   UNL     1      -5.713  13.518  21.858  0.00  0.00    +0.000 N 
ATOM     26  C   UNL     1      -5.870  12.276  21.108  0.00  0.00    +0.000 C 
ATOM     27  C   UNL     1      -7.340  12.072  20.690  0.00  0.00    +0.000 C 
ATOM     28  N   UNL     1      -7.916  13.222  19.949  0.00  0.00    +0.000 NA
ATOM     29  C   UNL     1      -7.767  14.436  20.795  0.00  0.00    +0.000 C 
ATOM     30  C   UNL     1      -6.316  14.712  21.253  0.00  0.00    +0.000 C 
BRANCH  23  31
ATOM     31  O   UNL     1      -5.349  14.654  23.790  0.00  0.00    +0.000 OA
BRANCH  31  33
ATOM     32  C   UNL     1      -3.797  16.441  23.568  0.00  0.00    +0.000 C 
ATOM     33  C   UNL     1      -4.101  15.141  24.292  0.00  0.00    +0.000 C 
ENDBRANCH  31  33
ENDBRANCH  23  31
ENDBRANCH  22  28
ENDBRANCH  21  22
ENDBRANCH  20  21
ENDBRANCH  19  20
ENDBRANCH   1  19
TORSDOF 10
ENDMDL
MODEL 7
REMARK VINA RESULT:      -7.4      1.981      2.680
REMARK  Name = 
REMARK  14 active torsions:
REMARK  status: ('A' for Active; 'I' for Inactive)
REMARK    1  A    between atoms: C_1  and  C_2
REMARK    2  A    between atoms: C_2  and  O_3
REMARK    3  A    between atoms: O_3  and  C_4
REMARK    4  A    between atoms: N_9  and  C_10
REMARK    5  A    between atoms: C_10  and  C_11
REMARK    6  A    between atoms: C_11  and  C_12
REMARK    7  A    between atoms: C_12  and  O_13
REMARK    8  A    between atoms: O_13  and  C_14
REMARK    9  A    between atoms: C_17  and  C_18
REMARK   10  A    between atoms: C_18  and  C_20
REMARK   11  A    between atoms: C_23  and  C_24
REMARK   12  A    between atoms: C_24  and  C_25
REMARK   13  A    between atoms: C_24  and  C_26
REMARK   14  A    between atoms: C_24  and  C_27
REMARK                            x       y       z     vdW  Elec       q    Type
REMARK                         _______ _______ _______ _____ _____    ______ ____
ROOT
ATOM      1  C   UNL     1       1.618   8.049  20.075  0.00  0.00    +0.000 A 
ATOM      2  C   UNL     1       1.750   8.553  18.779  0.00  0.00    +0.000 A 
ATOM      3  C   UNL     1       1.135   9.752  18.423  0.00  0.00    +0.000 A 
ATOM      4  C   UNL     1       0.357  10.437  19.356  0.00  0.00    +0.000 A 
ATOM      5  C   UNL     1       0.179   9.908  20.641  0.00  0.00    +0.000 A 
ATOM      6  C   UNL     1       0.822   8.719  21.000  0.00  0.00    +0.000 A 
ENDROOT
BRANCH   4   7
ATOM      7  C   UNL     1      -0.304  11.697  18.934  0.00  0.00    +0.000 C 
ATOM      8  O   UNL     1       0.391  12.643  18.566  0.00  0.00    +0.000 OA
BRANCH   7   9
ATOM      9  C   UNL     1      -1.781  11.831  18.915  0.00  0.00    +0.000 A 
ATOM     10  C   UNL     1      -2.470  11.263  17.846  0.00  0.00    +0.000 A 
ATOM     11  C   UNL     1      -3.861  11.312  17.812  0.00  0.00    +0.000 A 
ATOM     12  C   UNL     1      -4.610  11.929  18.834  0.00  0.00    +0.000 A 
ATOM     13  C   UNL     1      -3.888  12.538  19.878  0.00  0.00    +0.000 A 
ATOM     14  C   UNL     1      -2.487  12.503  19.912  0.00  0.00    +0.000 A 
BRANCH  12  15
ATOM     15  C   UNL     1      -6.146  11.921  18.832  0.00  0.00    +0.000 C 
ATOM     16  C   UNL     1      -6.735  12.721  17.649  0.00  0.00    +0.000 C 
ATOM     17  C   UNL     1      -6.662  10.467  18.721  0.00  0.00    +0.000 C 
ATOM     18  C   UNL     1      -6.713  12.536  20.130  0.00  0.00    +0.000 C 
ENDBRANCH  12  15
ENDBRANCH   7   9
ENDBRANCH   4   7
BRANCH   1  19
ATOM     19  O   UNL     1       2.272   6.873  20.302  0.00  0.00    +0.000 OA
BRANCH  19  20
ATOM     20  C   UNL     1       1.435   5.788  20.705  0.00  0.00    +0.000 C 
BRANCH  20  21
ATOM     21  C   UNL     1       1.823   4.580  19.864  0.00  0.00    +0.000 C 
BRANCH  21  22
ATOM     22  C   UNL     1       3.295   4.199  20.056  0.00  0.00    +0.000 C 
BRANCH  22  28
ATOM     23  C   UNL     1       6.028   6.558  16.648  0.00  0.00    +0.000 C 
ATOM     24  O   UNL     1       5.525   7.001  15.622  0.00  0.00    +0.000 OA
ATOM     25  N   UNL     1       5.305   6.017  17.687  0.00  0.00    +0.000 N 
ATOM     26  C   UNL     1       3.861   5.870  17.534  0.00  0.00    +0.000 C 
ATOM     27  C   UNL     1       3.453   4.386  17.609  0.00  0.00    +0.000 C 
ATOM     28  N   UNL     1       3.935   3.693  18.829  0.00  0.00    +0.000 NA
ATOM     29  C   UNL     1       5.414   3.841  18.887  0.00  0.00    +0.000 C 
ATOM     30  C   UNL     1       5.905   5.306  18.822  0.00  0.00    +0.000 C 
BRANCH  23  31
ATOM     31  O   UNL     1       7.368   6.468  16.851  0.00  0.00    +0.000 OA
BRANCH  31  33
ATOM     32  C   UNL     1       7.816   8.661  17.653  0.00  0.00    +0.000 C 
ATOM     33  C   UNL     1       7.846   7.182  17.996  0.00  0.00    +0.000 C 
ENDBRANCH  31  33
ENDBRANCH  23  31
ENDBRANCH  22  28
ENDBRANCH  21  22
ENDBRANCH  20  21
ENDBRANCH  19  20
ENDBRANCH   1  19
TORSDOF 10
ENDMDL
MODEL 8
REMARK VINA RESULT:      -7.3      1.181      1.955
REMARK  Name = 
REMARK  14 active torsions:
REMARK  status: ('A' for Active; 'I' for Inactive)
REMARK    1  A    between atoms: C_1  and  C_2
REMARK    2  A    between atoms: C_2  and  O_3
REMARK    3  A    between atoms: O_3  and  C_4
REMARK    4  A    between atoms: N_9  and  C_10
REMARK    5  A    between atoms: C_10  and  C_11
REMARK    6  A    between atoms: C_11  and  C_12
REMARK    7  A    between atoms: C_12  and  O_13
REMARK    8  A    between atoms: O_13  and  C_14
REMARK    9  A    between atoms: C_17  and  C_18
REMARK   10  A    between atoms: C_18  and  C_20
REMARK   11  A    between atoms: C_23  and  C_24
REMARK   12  A    between atoms: C_24  and  C_25
REMARK   13  A    between atoms: C_24  and  C_26
REMARK   14  A    between atoms: C_24  and  C_27
REMARK                            x       y       z     vdW  Elec       q    Type
REMARK                         _______ _______ _______ _____ _____    ______ ____
ROOT
ATOM      1  C   UNL     1       1.586   8.007  20.327  0.00  0.00    +0.000 A 
ATOM      2  C   UNL     1       0.820   8.672  21.288  0.00  0.00    +0.000 A 
ATOM      3  C   UNL     1       0.160   9.858  20.966  0.00  0.00    +0.000 A 
ATOM      4  C   UNL     1       0.291  10.400  19.688  0.00  0.00    +0.000 A 
ATOM      5  C   UNL     1       1.102   9.765  18.738  0.00  0.00    +0.000 A 
ATOM      6  C   UNL     1       1.738   8.561  19.058  0.00  0.00    +0.000 A 
ENDROOT
BRANCH   4   7
ATOM      7  C   UNL     1      -0.403  11.677  19.390  0.00  0.00    +0.000 C 
ATOM      8  O   UNL     1       0.266  12.685  19.170  0.00  0.00    +0.000 OA
BRANCH   7   9
ATOM      9  C   UNL     1      -1.882  11.759  19.319  0.00  0.00    +0.000 A 
ATOM     10  C   UNL     1      -2.541  12.485  20.309  0.00  0.00    +0.000 A 
ATOM     11  C   UNL     1      -3.924  12.639  20.254  0.00  0.00    +0.000 A 
ATOM     12  C   UNL     1      -4.695  12.076  19.218  0.00  0.00    +0.000 A 
ATOM     13  C   UNL     1      -4.013  11.306  18.257  0.00  0.00    +0.000 A 
ATOM     14  C   UNL     1      -2.622  11.136  18.314  0.00  0.00    +0.000 A 
BRANCH  12  15
ATOM     15  C   UNL     1      -6.211  12.305  19.119  0.00  0.00    +0.000 C 
ATOM     16  C   UNL     1      -7.007  11.379  20.064  0.00  0.00    +0.000 C 
ATOM     17  C   UNL     1      -6.545  13.767  19.499  0.00  0.00    +0.000 C 
ATOM     18  C   UNL     1      -6.725  12.050  17.686  0.00  0.00    +0.000 C 
ENDBRANCH  12  15
ENDBRANCH   7   9
ENDBRANCH   4   7
BRANCH   1  19
ATOM     19  O   UNL     1       2.175   6.855  20.761  0.00  0.00    +0.000 OA
BRANCH  19  20
ATOM     20  C   UNL     1       1.364   5.685  20.646  0.00  0.00    +0.000 C 
BRANCH  20  21
ATOM     21  C   UNL     1       1.945   4.839  19.522  0.00  0.00    +0.000 C 
BRANCH  21  22
ATOM     22  C   UNL     1       3.454   4.629  19.687  0.00  0.00    +0.000 C 
BRANCH  22  28
ATOM     23  C   UNL     1       6.688   4.591  15.921  0.00  0.00    +0.000 C 
ATOM     24  O   UNL     1       7.890   4.451  16.114  0.00  0.00    +0.000 OA
ATOM     25  N   UNL     1       5.733   4.475  16.905  0.00  0.00    +0.000 N 
ATOM     26  C   UNL     1       6.168   4.267  18.283  0.00  0.00    +0.000 C 
ATOM     27  C   UNL     1       5.721   5.437  19.180  0.00  0.00    +0.000 C 
ATOM     28  N   UNL     1       4.265   5.718  19.115  0.00  0.00    +0.000 NA
ATOM     29  C   UNL     1       3.909   5.972  17.693  0.00  0.00    +0.000 C 
ATOM     30  C   UNL     1       4.322   4.837  16.727  0.00  0.00    +0.000 C 
BRANCH  23  31
ATOM     31  O   UNL     1       6.156   4.961  14.728  0.00  0.00    +0.000 OA
BRANCH  31  33
ATOM     32  C   UNL     1       5.824   3.574  12.826  0.00  0.00    +0.000 C 
ATOM     33  C   UNL     1       6.828   4.425  13.584  0.00  0.00    +0.000 C 
ENDBRANCH  31  33
ENDBRANCH  23  31
ENDBRANCH  22  28
ENDBRANCH  21  22
ENDBRANCH  20  21
ENDBRANCH  19  20
ENDBRANCH   1  19
TORSDOF 10
ENDMDL
MODEL 9
REMARK VINA RESULT:      -7.3      1.126      1.334
REMARK  Name = 
REMARK  14 active torsions:
REMARK  status: ('A' for Active; 'I' for Inactive)
REMARK    1  A    between atoms: C_1  and  C_2
REMARK    2  A    between atoms: C_2  and  O_3
REMARK    3  A    between atoms: O_3  and  C_4
REMARK    4  A    between atoms: N_9  and  C_10
REMARK    5  A    between atoms: C_10  and  C_11
REMARK    6  A    between atoms: C_11  and  C_12
REMARK    7  A    between atoms: C_12  and  O_13
REMARK    8  A    between atoms: O_13  and  C_14
REMARK    9  A    between atoms: C_17  and  C_18
REMARK   10  A    between atoms: C_18  and  C_20
REMARK   11  A    between atoms: C_23  and  C_24
REMARK   12  A    between atoms: C_24  and  C_25
REMARK   13  A    between atoms: C_24  and  C_26
REMARK   14  A    between atoms: C_24  and  C_27
REMARK                            x       y       z     vdW  Elec       q    Type
REMARK                         _______ _______ _______ _____ _____    ______ ____
ROOT
ATOM      1  C   UNL     1       1.594   7.590  20.512  0.00  0.00    +0.000 A 
ATOM      2  C   UNL     1       1.882   8.017  19.213  0.00  0.00    +0.000 A 
ATOM      3  C   UNL     1       1.355   9.216  18.733  0.00  0.00    +0.000 A 
ATOM      4  C   UNL     1       0.512   9.977  19.541  0.00  0.00    +0.000 A 
ATOM      5  C   UNL     1       0.179   9.526  20.825  0.00  0.00    +0.000 A 
ATOM      6  C   UNL     1       0.733   8.337  21.311  0.00  0.00    +0.000 A 
ENDROOT
BRANCH   4   7
ATOM      7  C   UNL     1      -0.050  11.234  18.987  0.00  0.00    +0.000 C 
ATOM      8  O   UNL     1       0.718  12.107  18.587  0.00  0.00    +0.000 OA
BRANCH   7   9
ATOM      9  C   UNL     1      -1.513  11.447  18.875  0.00  0.00    +0.000 A 
ATOM     10  C   UNL     1      -2.233  10.591  18.044  0.00  0.00    +0.000 A 
ATOM     11  C   UNL     1      -3.616  10.715  17.950  0.00  0.00    +0.000 A 
ATOM     12  C   UNL     1      -4.327  11.693  18.674  0.00  0.00    +0.000 A 
ATOM     13  C   UNL     1      -3.573  12.577  19.468  0.00  0.00    +0.000 A 
ATOM     14  C   UNL     1      -2.178  12.466  19.558  0.00  0.00    +0.000 A 
BRANCH  12  15
ATOM     15  C   UNL     1      -5.861  11.784  18.624  0.00  0.00    +0.000 C 
ATOM     16  C   UNL     1      -6.442  12.557  19.828  0.00  0.00    +0.000 C 
ATOM     17  C   UNL     1      -6.300  12.519  17.336  0.00  0.00    +0.000 C 
ATOM     18  C   UNL     1      -6.507  10.381  18.623  0.00  0.00    +0.000 C 
ENDBRANCH  12  15
ENDBRANCH   7   9
ENDBRANCH   4   7
BRANCH   1  19
ATOM     19  O   UNL     1       2.173   6.407  20.867  0.00  0.00    +0.000 OA
BRANCH  19  20
ATOM     20  C   UNL     1       1.384   5.247  20.600  0.00  0.00    +0.000 C 
BRANCH  20  21
ATOM     21  C   UNL     1       2.264   4.031  20.852  0.00  0.00    +0.000 C 
BRANCH  21  22
ATOM     22  C   UNL     1       3.342   3.874  19.775  0.00  0.00    +0.000 C 
BRANCH  22  28
ATOM     23  C   UNL     1       5.521   5.056  15.474  0.00  0.00    +0.000 C 
ATOM     24  O   UNL     1       5.423   6.181  14.996  0.00  0.00    +0.000 OA
ATOM     25  N   UNL     1       5.057   4.707  16.721  0.00  0.00    +0.000 N 
ATOM     26  C   UNL     1       4.316   5.698  17.495  0.00  0.00    +0.000 C 
ATOM     27  C   UNL     1       2.878   5.217  17.766  0.00  0.00    +0.000 C 
ATOM     28  N   UNL     1       2.805   3.878  18.401  0.00  0.00    +0.000 NA
ATOM     29  C   UNL     1       3.532   2.916  17.531  0.00  0.00    +0.000 C 
ATOM     30  C   UNL     1       4.989   3.328  17.216  0.00  0.00    +0.000 C 
BRANCH  23  31
ATOM     31  O   UNL     1       6.027   3.993  14.796  0.00  0.00    +0.000 OA
BRANCH  31  33
ATOM     32  C   UNL     1       6.021   3.403  12.493  0.00  0.00    +0.000 C 
ATOM     33  C   UNL     1       6.630   4.320  13.540  0.00  0.00    +0.000 C 
ENDBRANCH  31  33
ENDBRANCH  23  31
ENDBRANCH  22  28
ENDBRANCH  21  22
ENDBRANCH  20  21
ENDBRANCH  19  20
ENDBRANCH   1  19
TORSDOF 10
ENDMDL
