MODEL 1
REMARK VINA RESULT:      -8.1      0.000      0.000
REMARK  Name = 
REMARK  7 active torsions:
REMARK  status: ('A' for Active; 'I' for Inactive)
REMARK    1  A    between atoms: C_1  and  O_2
REMARK    2  A    between atoms: O_2  and  C_3
REMARK    3  A    between atoms: C_5  and  C_6
REMARK    4  A    between atoms: C_8  and  C_9
REMARK    5  A    between atoms: C_21  and  C_22
REMARK    6  A    between atoms: C_27  and  O_28
REMARK    7  A    between atoms: O_28  and  C_29
REMARK                            x       y       z     vdW  Elec       q    Type
REMARK                         _______ _______ _______ _____ _____    ______ ____
ROOT
ATOM      1  C   UNL     1       3.647   5.987  18.642  0.00  0.00    +0.000 A 
ATOM      2  C   UNL     1       3.059   7.241  18.859  0.00  0.00    +0.000 A 
ATOM      3  C   UNL     1       2.032   7.387  19.783  0.00  0.00    +0.000 A 
ATOM      4  N   UNL     1       1.599   6.362  20.546  0.00  0.00    +0.000 NA
ATOM      5  C   UNL     1       2.167   5.154  20.374  0.00  0.00    +0.000 A 
ATOM      6  N   UNL     1       1.623   4.141  21.163  0.00  0.00    +0.000 N 
ATOM      7  C   UNL     1       3.161   4.911  19.419  0.00  0.00    +0.000 A 
ATOM      8  H   UNL     1       0.966   4.566  21.814  0.00  0.00    +0.000 HD
ATOM      9  H   UNL     1       2.316   3.571  21.638  0.00  0.00    +0.000 HD
ENDROOT
BRANCH   3  10
ATOM     10  C   UNL     1       1.301   8.646  19.890  0.00  0.00    +0.000 A 
ATOM     11  C   UNL     1       1.026   9.478  18.817  0.00  0.00    +0.000 A 
ATOM     12  N   UNL     1       0.237  10.506  19.260  0.00  0.00    +0.000 N 
ATOM     13  C   UNL     1      -0.008  10.372  20.606  0.00  0.00    +0.000 A 
ATOM     14  C   UNL     1      -0.777  11.170  21.463  0.00  0.00    +0.000 A 
ATOM     15  C   UNL     1      -0.856  10.790  22.804  0.00  0.00    +0.000 A 
ATOM     16  C   UNL     1      -0.197   9.655  23.269  0.00  0.00    +0.000 A 
ATOM     17  C   UNL     1       0.559   8.864  22.396  0.00  0.00    +0.000 A 
ATOM     18  C   UNL     1       0.663   9.226  21.036  0.00  0.00    +0.000 A 
ATOM     19  H   UNL     1      -0.132  11.249  18.684  0.00  0.00    +0.000 HD
ENDBRANCH   3  10
BRANCH   1  22
ATOM     20  C   UNL     1       6.869   6.457  16.662  0.00  0.00    +0.000 A 
ATOM     21  C   UNL     1       5.831   6.662  17.579  0.00  0.00    +0.000 A 
ATOM     22  C   UNL     1       4.692   5.856  17.593  0.00  0.00    +0.000 A 
ATOM     23  C   UNL     1       4.579   4.916  16.557  0.00  0.00    +0.000 A 
ATOM     24  C   UNL     1       5.565   4.757  15.561  0.00  0.00    +0.000 A 
ATOM     25 BR   UNL     1       5.091   3.456  14.252  0.00  0.00    +0.000 Br
ATOM     26  C   UNL     1       6.743   5.516  15.612  0.00  0.00    +0.000 A 
BRANCH  20  28
ATOM     27  C   UNL     1       7.997   8.309  17.629  0.00  0.00    +0.000 C 
ATOM     28  O   UNL     1       8.029   7.202  16.725  0.00  0.00    +0.000 OA
ENDBRANCH  20  28
BRANCH  26  29
ATOM     29  O   UNL     1       7.838   5.492  14.793  0.00  0.00    +0.000 OA
ATOM     30  C   UNL     1       7.720   5.399  13.390  0.00  0.00    +0.000 C 
ENDBRANCH  26  29
ENDBRANCH   1  22
BRANCH   7  31
ATOM     31  C   UNL     1       3.635   3.562  19.265  0.00  0.00    +0.000 C 
ATOM     32  N   UNL     1       3.977   2.458  19.183  0.00  0.00    +0.000 NA
ENDBRANCH   7  31
TORSDOF 5
ENDMDL
MODEL 2
REMARK VINA RESULT:      -8.0      3.589      8.236
REMARK  Name = 
REMARK  7 active torsions:
REMARK  status: ('A' for Active; 'I' for Inactive)
REMARK    1  A    between atoms: C_1  and  O_2
REMARK    2  A    between atoms: O_2  and  C_3
REMARK    3  A    between atoms: C_5  and  C_6
REMARK    4  A    between atoms: C_8  and  C_9
REMARK    5  A    between atoms: C_21  and  C_22
REMARK    6  A    between atoms: C_27  and  O_28
REMARK    7  A    between atoms: O_28  and  C_29
REMARK                            x       y       z     vdW  Elec       q    Type
REMARK                         _______ _______ _______ _____ _____    ______ ____
ROOT
ATOM      1  C   UNL     1       2.750   6.107  18.269  0.00  0.00    +0.000 A 
ATOM      2  C   UNL     1       3.751   6.230  17.294  0.00  0.00    +0.000 A 
ATOM      3  C   UNL     1       4.438   5.111  16.845  0.00  0.00    +0.000 A 
ATOM      4  N   UNL     1       4.143   3.865  17.273  0.00  0.00    +0.000 NA
ATOM      5  C   UNL     1       3.168   3.720  18.190  0.00  0.00    +0.000 A 
ATOM      6  N   UNL     1       2.966   2.407  18.615  0.00  0.00    +0.000 N 
ATOM      7  C   UNL     1       2.473   4.803  18.738  0.00  0.00    +0.000 A 
ATOM      8  H   UNL     1       3.537   1.795  18.037  0.00  0.00    +0.000 HD
ATOM      9  H   UNL     1       1.991   2.122  18.625  0.00  0.00    +0.000 HD
ENDROOT
BRANCH   3  10
ATOM     10  C   UNL     1       5.593   5.251  15.964  0.00  0.00    +0.000 A 
ATOM     11  C   UNL     1       6.768   5.894  16.318  0.00  0.00    +0.000 A 
ATOM     12  N   UNL     1       7.667   5.742  15.295  0.00  0.00    +0.000 N 
ATOM     13  C   UNL     1       7.106   5.018  14.271  0.00  0.00    +0.000 A 
ATOM     14  C   UNL     1       7.661   4.607  13.053  0.00  0.00    +0.000 A 
ATOM     15  C   UNL     1       6.850   3.867  12.189  0.00  0.00    +0.000 A 
ATOM     16  C   UNL     1       5.540   3.546  12.533  0.00  0.00    +0.000 A 
ATOM     17  C   UNL     1       5.006   3.958  13.759  0.00  0.00    +0.000 A 
ATOM     18  C   UNL     1       5.797   4.713  14.650  0.00  0.00    +0.000 A 
ATOM     19  H   UNL     1       8.615   6.092  15.295  0.00  0.00    +0.000 HD
ENDBRANCH   3  10
BRANCH   1  22
ATOM     20  C   UNL     1       0.771   9.361  18.405  0.00  0.00    +0.000 A 
ATOM     21  C   UNL     1       1.497   8.267  17.920  0.00  0.00    +0.000 A 
ATOM     22  C   UNL     1       2.087   7.337  18.776  0.00  0.00    +0.000 A 
ATOM     23  C   UNL     1       2.029   7.627  20.148  0.00  0.00    +0.000 A 
ATOM     24  C   UNL     1       1.389   8.776  20.658  0.00  0.00    +0.000 A 
ATOM     25 BR   UNL     1       1.544   8.930  22.551  0.00  0.00    +0.000 Br
ATOM     26  C   UNL     1       0.727   9.655  19.789  0.00  0.00    +0.000 A 
BRANCH  20  28
ATOM     27  C   UNL     1      -1.290   9.985  17.403  0.00  0.00    +0.000 C 
ATOM     28  O   UNL     1       0.114  10.216  17.543  0.00  0.00    +0.000 OA
ENDBRANCH  20  28
BRANCH  26  29
ATOM     29  O   UNL     1       0.008  10.785  20.064  0.00  0.00    +0.000 OA
ATOM     30  C   UNL     1       0.635  12.003  20.407  0.00  0.00    +0.000 C 
ENDBRANCH  26  29
ENDBRANCH   1  22
BRANCH   7  31
ATOM     31  C   UNL     1       1.511   4.535  19.773  0.00  0.00    +0.000 C 
ATOM     32  N   UNL     1       0.770   4.272  20.624  0.00  0.00    +0.000 NA
ENDBRANCH   7  31
TORSDOF 5
ENDMDL
MODEL 3
REMARK VINA RESULT:      -7.8      3.404      8.131
REMARK  Name = 
REMARK  7 active torsions:
REMARK  status: ('A' for Active; 'I' for Inactive)
REMARK    1  A    between atoms: C_1  and  O_2
REMARK    2  A    between atoms: O_2  and  C_3
REMARK    3  A    between atoms: C_5  and  C_6
REMARK    4  A    between atoms: C_8  and  C_9
REMARK    5  A    between atoms: C_21  and  C_22
REMARK    6  A    between atoms: C_27  and  O_28
REMARK    7  A    between atoms: O_28  and  C_29
REMARK                            x       y       z     vdW  Elec       q    Type
REMARK                         _______ _______ _______ _____ _____    ______ ____
ROOT
ATOM      1  C   UNL     1       3.086   6.112  18.197  0.00  0.00    +0.000 A 
ATOM      2  C   UNL     1       4.015   6.174  17.148  0.00  0.00    +0.000 A 
ATOM      3  C   UNL     1       4.670   5.028  16.718  0.00  0.00    +0.000 A 
ATOM      4  N   UNL     1       4.406   3.810  17.238  0.00  0.00    +0.000 NA
ATOM      5  C   UNL     1       3.499   3.722  18.228  0.00  0.00    +0.000 A 
ATOM      6  N   UNL     1       3.328   2.438  18.743  0.00  0.00    +0.000 N 
ATOM      7  C   UNL     1       2.844   4.838  18.760  0.00  0.00    +0.000 A 
ATOM      8  H   UNL     1       3.858   1.791  18.163  0.00  0.00    +0.000 HD
ATOM      9  H   UNL     1       2.357   2.157  18.839  0.00  0.00    +0.000 HD
ENDROOT
BRANCH   3  10
ATOM     10  C   UNL     1       5.759   5.112  15.750  0.00  0.00    +0.000 A 
ATOM     11  C   UNL     1       6.981   5.713  16.005  0.00  0.00    +0.000 A 
ATOM     12  N   UNL     1       7.794   5.515  14.921  0.00  0.00    +0.000 N 
ATOM     13  C   UNL     1       7.130   4.799  13.953  0.00  0.00    +0.000 A 
ATOM     14  C   UNL     1       7.575   4.352  12.703  0.00  0.00    +0.000 A 
ATOM     15  C   UNL     1       6.675   3.632  11.914  0.00  0.00    +0.000 A 
ATOM     16  C   UNL     1       5.383   3.367  12.360  0.00  0.00    +0.000 A 
ATOM     17  C   UNL     1       4.959   3.814  13.616  0.00  0.00    +0.000 A 
ATOM     18  C   UNL     1       5.843   4.549  14.434  0.00  0.00    +0.000 A 
ATOM     19  H   UNL     1       8.751   5.828  14.844  0.00  0.00    +0.000 HD
ENDBRANCH   3  10
BRANCH   1  22
ATOM     20  C   UNL     1       1.792   9.694  18.321  0.00  0.00    +0.000 A 
ATOM     21  C   UNL     1       2.484   8.544  17.921  0.00  0.00    +0.000 A 
ATOM     22  C   UNL     1       2.460   7.372  18.676  0.00  0.00    +0.000 A 
ATOM     23  C   UNL     1       1.817   7.444  19.922  0.00  0.00    +0.000 A 
ATOM     24  C   UNL     1       1.197   8.620  20.393  0.00  0.00    +0.000 A 
ATOM     25 BR   UNL     1       0.478   8.426  22.147  0.00  0.00    +0.000 Br
ATOM     26  C   UNL     1       1.157   9.765  19.583  0.00  0.00    +0.000 A 
BRANCH  20  28
ATOM     27  C   UNL     1       2.616  11.882  17.904  0.00  0.00    +0.000 C 
ATOM     28  O   UNL     1       1.749  10.814  17.514  0.00  0.00    +0.000 OA
ENDBRANCH  20  28
BRANCH  26  29
ATOM     29  O   UNL     1       0.574  10.981  19.812  0.00  0.00    +0.000 OA
ATOM     30  C   UNL     1      -0.826  11.156  19.782  0.00  0.00    +0.000 C 
ENDBRANCH  26  29
ENDBRANCH   1  22
BRANCH   7  31
ATOM     31  C   UNL     1       1.958   4.635  19.874  0.00  0.00    +0.000 C 
ATOM     32  N   UNL     1       1.251   4.411  20.765  0.00  0.00    +0.000 NA
ENDBRANCH   7  31
TORSDOF 5
ENDMDL
MODEL 4
REMARK VINA RESULT:      -7.8      5.694      9.752
REMARK  Name = 
REMARK  7 active torsions:
REMARK  status: ('A' for Active; 'I' for Inactive)
REMARK    1  A    between atoms: C_1  and  O_2
REMARK    2  A    between atoms: O_2  and  C_3
REMARK    3  A    between atoms: C_5  and  C_6
REMARK    4  A    between atoms: C_8  and  C_9
REMARK    5  A    between atoms: C_21  and  C_22
REMARK    6  A    between atoms: C_27  and  O_28
REMARK    7  A    between atoms: O_28  and  C_29
REMARK                            x       y       z     vdW  Elec       q    Type
REMARK                         _______ _______ _______ _____ _____    ______ ____
ROOT
ATOM      1  C   UNL     1      -0.863  11.481  19.189  0.00  0.00    +0.000 A 
ATOM      2  C   UNL     1      -0.403  10.195  19.510  0.00  0.00    +0.000 A 
ATOM      3  C   UNL     1       0.921   9.991  19.875  0.00  0.00    +0.000 A 
ATOM      4  N   UNL     1       1.799  11.009  19.996  0.00  0.00    +0.000 NA
ATOM      5  C   UNL     1       1.374  12.255  19.718  0.00  0.00    +0.000 A 
ATOM      6  N   UNL     1       2.359  13.238  19.816  0.00  0.00    +0.000 N 
ATOM      7  C   UNL     1       0.075  12.536  19.283  0.00  0.00    +0.000 A 
ATOM      8  H   UNL     1       3.196  12.809  20.205  0.00  0.00    +0.000 HD
ATOM      9  H   UNL     1       2.073  14.059  20.339  0.00  0.00    +0.000 HD
ENDROOT
BRANCH   3  10
ATOM     10  C   UNL     1       1.446   8.640  20.041  0.00  0.00    +0.000 A 
ATOM     11  C   UNL     1       1.165   7.824  21.125  0.00  0.00    +0.000 A 
ATOM     12  N   UNL     1       1.733   6.598  20.900  0.00  0.00    +0.000 N 
ATOM     13  C   UNL     1       2.389   6.591  19.692  0.00  0.00    +0.000 A 
ATOM     14  C   UNL     1       3.083   5.557  19.053  0.00  0.00    +0.000 A 
ATOM     15  C   UNL     1       3.656   5.833  17.810  0.00  0.00    +0.000 A 
ATOM     16  C   UNL     1       3.537   7.092  17.228  0.00  0.00    +0.000 A 
ATOM     17  C   UNL     1       2.832   8.111  17.878  0.00  0.00    +0.000 A 
ATOM     18  C   UNL     1       2.246   7.865  19.138  0.00  0.00    +0.000 A 
ATOM     19  H   UNL     1       1.667   5.802  21.519  0.00  0.00    +0.000 HD
ENDBRANCH   3  10
BRANCH   1  22
ATOM     20  C   UNL     1      -4.006  11.390  17.037  0.00  0.00    +0.000 A 
ATOM     21  C   UNL     1      -2.663  11.347  17.430  0.00  0.00    +0.000 A 
ATOM     22  C   UNL     1      -2.267  11.648  18.733  0.00  0.00    +0.000 A 
ATOM     23  C   UNL     1      -3.267  12.126  19.594  0.00  0.00    +0.000 A 
ATOM     24  C   UNL     1      -4.611  12.275  19.194  0.00  0.00    +0.000 A 
ATOM     25 BR   UNL     1      -5.713  13.016  20.561  0.00  0.00    +0.000 Br
ATOM     26  C   UNL     1      -5.007  11.886  17.906  0.00  0.00    +0.000 A 
BRANCH  20  28
ATOM     27  C   UNL     1      -3.344  10.462  14.954  0.00  0.00    +0.000 C 
ATOM     28  O   UNL     1      -4.389  10.997  15.770  0.00  0.00    +0.000 OA
ENDBRANCH  20  28
BRANCH  26  29
ATOM     29  O   UNL     1      -6.247  11.894  17.330  0.00  0.00    +0.000 OA
ATOM     30  C   UNL     1      -6.925  13.096  17.033  0.00  0.00    +0.000 C 
ENDBRANCH  26  29
ENDBRANCH   1  22
BRANCH   7  31
ATOM     31  C   UNL     1      -0.244  13.894  18.934  0.00  0.00    +0.000 C 
ATOM     32  N   UNL     1      -0.447  14.992  18.624  0.00  0.00    +0.000 NA
ENDBRANCH   7  31
TORSDOF 5
ENDMDL
MODEL 5
REMARK VINA RESULT:      -7.8      1.210      1.923
REMARK  Name = 
REMARK  7 active torsions:
REMARK  status: ('A' for Active; 'I' for Inactive)
REMARK    1  A    between atoms: C_1  and  O_2
REMARK    2  A    between atoms: O_2  and  C_3
REMARK    3  A    between atoms: C_5  and  C_6
REMARK    4  A    between atoms: C_8  and  C_9
REMARK    5  A    between atoms: C_21  and  C_22
REMARK    6  A    between atoms: C_27  and  O_28
REMARK    7  A    between atoms: O_28  and  C_29
REMARK                            x       y       z     vdW  Elec       q    Type
REMARK                         _______ _______ _______ _____ _____    ______ ____
ROOT
ATOM      1  C   UNL     1       3.627   5.295  18.454  0.00  0.00    +0.000 A 
ATOM      2  C   UNL     1       3.133   6.497  18.983  0.00  0.00    +0.000 A 
ATOM      3  C   UNL     1       2.095   6.486  19.906  0.00  0.00    +0.000 A 
ATOM      4  N   UNL     1       1.561   5.338  20.375  0.00  0.00    +0.000 NA
ATOM      5  C   UNL     1       2.037   4.172  19.901  0.00  0.00    +0.000 A 
ATOM      6  N   UNL     1       1.393   3.040  20.398  0.00  0.00    +0.000 N 
ATOM      7  C   UNL     1       3.036   4.100  18.924  0.00  0.00    +0.000 A 
ATOM      8  H   UNL     1       0.752   3.336  21.131  0.00  0.00    +0.000 HD
ATOM      9  H   UNL     1       2.024   2.311  20.715  0.00  0.00    +0.000 HD
ENDROOT
BRANCH   3  10
ATOM     10  C   UNL     1       1.462   7.731  20.327  0.00  0.00    +0.000 A 
ATOM     11  C   UNL     1       0.872   7.923  21.566  0.00  0.00    +0.000 A 
ATOM     12  N   UNL     1       0.479   9.231  21.659  0.00  0.00    +0.000 N 
ATOM     13  C   UNL     1       0.793   9.906  20.503  0.00  0.00    +0.000 A 
ATOM     14  C   UNL     1       0.600  11.252  20.168  0.00  0.00    +0.000 A 
ATOM     15  C   UNL     1       1.025  11.672  18.906  0.00  0.00    +0.000 A 
ATOM     16  C   UNL     1       1.623  10.784  18.017  0.00  0.00    +0.000 A 
ATOM     17  C   UNL     1       1.816   9.444  18.373  0.00  0.00    +0.000 A 
ATOM     18  C   UNL     1       1.392   8.987  19.639  0.00  0.00    +0.000 A 
ATOM     19  H   UNL     1       0.040   9.653  22.465  0.00  0.00    +0.000 HD
ENDBRANCH   3  10
BRANCH   1  22
ATOM     20  C   UNL     1       6.859   6.143  16.622  0.00  0.00    +0.000 A 
ATOM     21  C   UNL     1       5.804   6.181  17.542  0.00  0.00    +0.000 A 
ATOM     22  C   UNL     1       4.689   5.352  17.416  0.00  0.00    +0.000 A 
ATOM     23  C   UNL     1       4.617   4.575  16.249  0.00  0.00    +0.000 A 
ATOM     24  C   UNL     1       5.620   4.594  15.257  0.00  0.00    +0.000 A 
ATOM     25 BR   UNL     1       5.200   3.492  13.761  0.00  0.00    +0.000 Br
ATOM     26  C   UNL     1       6.775   5.368  15.442  0.00  0.00    +0.000 A 
BRANCH  20  28
ATOM     27  C   UNL     1       7.924   7.852  17.881  0.00  0.00    +0.000 C 
ATOM     28  O   UNL     1       7.997   6.902  16.816  0.00  0.00    +0.000 OA
ENDBRANCH  20  28
BRANCH  26  29
ATOM     29  O   UNL     1       7.880   5.496  14.647  0.00  0.00    +0.000 OA
ATOM     30  C   UNL     1       7.820   5.317  13.248  0.00  0.00    +0.000 C 
ENDBRANCH  26  29
ENDBRANCH   1  22
BRANCH   7  31
ATOM     31  C   UNL     1       3.407   2.802  18.431  0.00  0.00    +0.000 C 
ATOM     32  N   UNL     1       3.647   1.740  18.032  0.00  0.00    +0.000 NA
ENDBRANCH   7  31
TORSDOF 5
ENDMDL
MODEL 6
REMARK VINA RESULT:      -7.5      3.023      4.595
REMARK  Name = 
REMARK  7 active torsions:
REMARK  status: ('A' for Active; 'I' for Inactive)
REMARK    1  A    between atoms: C_1  and  O_2
REMARK    2  A    between atoms: O_2  and  C_3
REMARK    3  A    between atoms: C_5  and  C_6
REMARK    4  A    between atoms: C_8  and  C_9
REMARK    5  A    between atoms: C_21  and  C_22
REMARK    6  A    between atoms: C_27  and  O_28
REMARK    7  A    between atoms: O_28  and  C_29
REMARK                            x       y       z     vdW  Elec       q    Type
REMARK                         _______ _______ _______ _____ _____    ______ ____
ROOT
ATOM      1  C   UNL     1       2.177   7.338  19.535  0.00  0.00    +0.000 A 
ATOM      2  C   UNL     1       1.312   7.819  20.529  0.00  0.00    +0.000 A 
ATOM      3  C   UNL     1       0.783   9.100  20.443  0.00  0.00    +0.000 A 
ATOM      4  N   UNL     1       1.022   9.908  19.389  0.00  0.00    +0.000 NA
ATOM      5  C   UNL     1       1.829   9.458  18.410  0.00  0.00    +0.000 A 
ATOM      6  N   UNL     1       2.066  10.377  17.388  0.00  0.00    +0.000 N 
ATOM      7  C   UNL     1       2.451   8.206  18.454  0.00  0.00    +0.000 A 
ATOM      8  H   UNL     1       1.463  11.182  17.541  0.00  0.00    +0.000 HD
ATOM      9  H   UNL     1       1.958   9.992  16.454  0.00  0.00    +0.000 HD
ENDROOT
BRANCH   3  10
ATOM     10  C   UNL     1       0.025   9.668  21.554  0.00  0.00    +0.000 A 
ATOM     11  C   UNL     1       0.072   9.189  22.853  0.00  0.00    +0.000 A 
ATOM     12  N   UNL     1      -0.673  10.020  23.646  0.00  0.00    +0.000 N 
ATOM     13  C   UNL     1      -1.215  11.035  22.895  0.00  0.00    +0.000 A 
ATOM     14  C   UNL     1      -2.017  12.114  23.289  0.00  0.00    +0.000 A 
ATOM     15  C   UNL     1      -2.428  13.009  22.300  0.00  0.00    +0.000 A 
ATOM     16  C   UNL     1      -2.050  12.836  20.972  0.00  0.00    +0.000 A 
ATOM     17  C   UNL     1      -1.241  11.757  20.598  0.00  0.00    +0.000 A 
ATOM     18  C   UNL     1      -0.814  10.831  21.574  0.00  0.00    +0.000 A 
ATOM     19  H   UNL     1      -0.794   9.920  24.645  0.00  0.00    +0.000 HD
ENDBRANCH   3  10
BRANCH   1  22
ATOM     20  C   UNL     1       4.641   4.433  19.416  0.00  0.00    +0.000 A 
ATOM     21  C   UNL     1       4.023   5.663  19.159  0.00  0.00    +0.000 A 
ATOM     22  C   UNL     1       2.779   5.990  19.700  0.00  0.00    +0.000 A 
ATOM     23  C   UNL     1       2.119   4.972  20.407  0.00  0.00    +0.000 A 
ATOM     24  C   UNL     1       2.676   3.690  20.595  0.00  0.00    +0.000 A 
ATOM     25 BR   UNL     1       1.509   2.506  21.527  0.00  0.00    +0.000 Br
ATOM     26  C   UNL     1       3.964   3.407  20.118  0.00  0.00    +0.000 A 
BRANCH  20  28
ATOM     27  C   UNL     1       6.228   4.734  17.676  0.00  0.00    +0.000 C 
ATOM     28  O   UNL     1       5.912   4.166  18.951  0.00  0.00    +0.000 OA
ENDBRANCH  20  28
BRANCH  26  29
ATOM     29  O   UNL     1       4.710   2.266  20.230  0.00  0.00    +0.000 OA
ATOM     30  C   UNL     1       4.470   1.134  19.422  0.00  0.00    +0.000 C 
ENDBRANCH  26  29
ENDBRANCH   1  22
BRANCH   7  31
ATOM     31  C   UNL     1       3.360   7.865  17.393  0.00  0.00    +0.000 C 
ATOM     32  N   UNL     1       4.059   7.624  16.500  0.00  0.00    +0.000 NA
ENDBRANCH   7  31
TORSDOF 5
ENDMDL
MODEL 7
REMARK VINA RESULT:      -7.4      3.522      8.239
REMARK  Name = 
REMARK  7 active torsions:
REMARK  status: ('A' for Active; 'I' for Inactive)
REMARK    1  A    between atoms: C_1  and  O_2
REMARK    2  A    between atoms: O_2  and  C_3
REMARK    3  A    between atoms: C_5  and  C_6
REMARK    4  A    between atoms: C_8  and  C_9
REMARK    5  A    between atoms: C_21  and  C_22
REMARK    6  A    between atoms: C_27  and  O_28
REMARK    7  A    between atoms: O_28  and  C_29
REMARK                            x       y       z     vdW  Elec       q    Type
REMARK                         _______ _______ _______ _____ _____    ______ ____
ROOT
ATOM      1  C   UNL     1       2.906   6.067  18.250  0.00  0.00    +0.000 A 
ATOM      2  C   UNL     1       3.882   6.183  17.249  0.00  0.00    +0.000 A 
ATOM      3  C   UNL     1       4.463   5.049  16.697  0.00  0.00    +0.000 A 
ATOM      4  N   UNL     1       4.083   3.802  17.047  0.00  0.00    +0.000 NA
ATOM      5  C   UNL     1       3.129   3.666  17.987  0.00  0.00    +0.000 A 
ATOM      6  N   UNL     1       2.836   2.346  18.326  0.00  0.00    +0.000 N 
ATOM      7  C   UNL     1       2.541   4.757  18.636  0.00  0.00    +0.000 A 
ATOM      8  H   UNL     1       3.337   1.736  17.684  0.00  0.00    +0.000 HD
ATOM      9  H   UNL     1       1.842   2.137  18.352  0.00  0.00    +0.000 HD
ENDROOT
BRANCH   3  10
ATOM     10  C   UNL     1       5.597   5.164  15.785  0.00  0.00    +0.000 A 
ATOM     11  C   UNL     1       6.786   5.801  16.099  0.00  0.00    +0.000 A 
ATOM     12  N   UNL     1       7.658   5.624  15.057  0.00  0.00    +0.000 N 
ATOM     13  C   UNL     1       7.065   4.888  14.059  0.00  0.00    +0.000 A 
ATOM     14  C   UNL     1       7.586   4.451  12.835  0.00  0.00    +0.000 A 
ATOM     15  C   UNL     1       6.747   3.704  12.005  0.00  0.00    +0.000 A 
ATOM     16  C   UNL     1       5.443   3.402  12.386  0.00  0.00    +0.000 A 
ATOM     17  C   UNL     1       4.943   3.839  13.618  0.00  0.00    +0.000 A 
ATOM     18  C   UNL     1       5.764   4.601  14.476  0.00  0.00    +0.000 A 
ATOM     19  H   UNL     1       8.609   5.965  15.028  0.00  0.00    +0.000 HD
ENDBRANCH   3  10
BRANCH   1  22
ATOM     20  C   UNL     1       1.335   8.480  20.746  0.00  0.00    +0.000 A 
ATOM     21  C   UNL     1       1.740   7.297  20.116  0.00  0.00    +0.000 A 
ATOM     22  C   UNL     1       2.361   7.304  18.867  0.00  0.00    +0.000 A 
ATOM     23  C   UNL     1       2.439   8.545  18.215  0.00  0.00    +0.000 A 
ATOM     24  C   UNL     1       1.948   9.738  18.786  0.00  0.00    +0.000 A 
ATOM     25 BR   UNL     1       2.130  11.241  17.629  0.00  0.00    +0.000 Br
ATOM     26  C   UNL     1       1.404   9.726  20.079  0.00  0.00    +0.000 A 
BRANCH  20  28
ATOM     27  C   UNL     1      -0.607   8.273  22.097  0.00  0.00    +0.000 C 
ATOM     28  O   UNL     1       0.809   8.460  22.022  0.00  0.00    +0.000 OA
ENDBRANCH  20  28
BRANCH  26  29
ATOM     29  O   UNL     1       0.922  10.756  20.837  0.00  0.00    +0.000 OA
ATOM     30  C   UNL     1      -0.266  11.441  20.498  0.00  0.00    +0.000 C 
ENDBRANCH  26  29
ENDBRANCH   1  22
BRANCH   7  31
ATOM     31  C   UNL     1       1.594   4.490  19.684  0.00  0.00    +0.000 C 
ATOM     32  N   UNL     1       0.877   4.271  20.568  0.00  0.00    +0.000 NA
ENDBRANCH   7  31
TORSDOF 5
ENDMDL
MODEL 8
REMARK VINA RESULT:      -7.4      4.321      8.253
REMARK  Name = 
REMARK  7 active torsions:
REMARK  status: ('A' for Active; 'I' for Inactive)
REMARK    1  A    between atoms: C_1  and  O_2
REMARK    2  A    between atoms: O_2  and  C_3
REMARK    3  A    between atoms: C_5  and  C_6
REMARK    4  A    between atoms: C_8  and  C_9
REMARK    5  A    between atoms: C_21  and  C_22
REMARK    6  A    between atoms: C_27  and  O_28
REMARK    7  A    between atoms: O_28  and  C_29
REMARK                            x       y       z     vdW  Elec       q    Type
REMARK                         _______ _______ _______ _____ _____    ______ ____
ROOT
ATOM      1  C   UNL     1       1.720   8.967  18.924  0.00  0.00    +0.000 A 
ATOM      2  C   UNL     1       2.586   8.445  17.953  0.00  0.00    +0.000 A 
ATOM      3  C   UNL     1       3.174   7.199  18.131  0.00  0.00    +0.000 A 
ATOM      4  N   UNL     1       2.899   6.418  19.197  0.00  0.00    +0.000 NA
ATOM      5  C   UNL     1       2.049   6.889  20.130  0.00  0.00    +0.000 A 
ATOM      6  N   UNL     1       1.864   6.042  21.222  0.00  0.00    +0.000 N 
ATOM      7  C   UNL     1       1.466   8.158  20.056  0.00  0.00    +0.000 A 
ATOM      8  H   UNL     1       2.335   5.162  21.024  0.00  0.00    +0.000 HD
ATOM      9  H   UNL     1       0.891   5.905  21.478  0.00  0.00    +0.000 HD
ENDROOT
BRANCH   3  10
ATOM     10  C   UNL     1       4.206   6.726  17.214  0.00  0.00    +0.000 A 
ATOM     11  C   UNL     1       4.275   7.074  15.875  0.00  0.00    +0.000 A 
ATOM     12  N   UNL     1       5.421   6.541  15.349  0.00  0.00    +0.000 N 
ATOM     13  C   UNL     1       6.108   5.842  16.313  0.00  0.00    +0.000 A 
ATOM     14  C   UNL     1       7.328   5.161  16.231  0.00  0.00    +0.000 A 
ATOM     15  C   UNL     1       7.798   4.532  17.387  0.00  0.00    +0.000 A 
ATOM     16  C   UNL     1       7.078   4.587  18.577  0.00  0.00    +0.000 A 
ATOM     17  C   UNL     1       5.864   5.281  18.642  0.00  0.00    +0.000 A 
ATOM     18  C   UNL     1       5.360   5.921  17.490  0.00  0.00    +0.000 A 
ATOM     19  H   UNL     1       5.736   6.657  14.395  0.00  0.00    +0.000 HD
ENDBRANCH   3  10
BRANCH   1  22
ATOM     20  C   UNL     1      -0.725  11.869  18.570  0.00  0.00    +0.000 A 
ATOM     21  C   UNL     1      -0.203  10.571  18.630  0.00  0.00    +0.000 A 
ATOM     22  C   UNL     1       1.168  10.334  18.733  0.00  0.00    +0.000 A 
ATOM     23  C   UNL     1       2.005  11.457  18.638  0.00  0.00    +0.000 A 
ATOM     24  C   UNL     1       1.508  12.767  18.476  0.00  0.00    +0.000 A 
ATOM     25 BR   UNL     1       2.891  14.066  18.303  0.00  0.00    +0.000 Br
ATOM     26  C   UNL     1       0.124  12.996  18.461  0.00  0.00    +0.000 A 
BRANCH  20  28
ATOM     27  C   UNL     1      -2.794  11.517  17.460  0.00  0.00    +0.000 C 
ATOM     28  O   UNL     1      -2.088  12.086  18.565  0.00  0.00    +0.000 OA
ENDBRANCH  20  28
BRANCH  26  29
ATOM     29  O   UNL     1      -0.569  14.171  18.368  0.00  0.00    +0.000 OA
ATOM     30  C   UNL     1      -0.518  15.151  19.383  0.00  0.00    +0.000 C 
ENDBRANCH  26  29
ENDBRANCH   1  22
BRANCH   7  31
ATOM     31  C   UNL     1       0.641   8.589  21.152  0.00  0.00    +0.000 C 
ATOM     32  N   UNL     1       0.027   8.941  22.069  0.00  0.00    +0.000 NA
ENDBRANCH   7  31
TORSDOF 5
ENDMDL
MODEL 9
REMARK VINA RESULT:      -7.3      4.072      8.264
REMARK  Name = 
REMARK  7 active torsions:
REMARK  status: ('A' for Active; 'I' for Inactive)
REMARK    1  A    between atoms: C_1  and  O_2
REMARK    2  A    between atoms: O_2  and  C_3
REMARK    3  A    between atoms: C_5  and  C_6
REMARK    4  A    between atoms: C_8  and  C_9
REMARK    5  A    between atoms: C_21  and  C_22
REMARK    6  A    between atoms: C_27  and  O_28
REMARK    7  A    between atoms: O_28  and  C_29
REMARK                            x       y       z     vdW  Elec       q    Type
REMARK                         _______ _______ _______ _____ _____    ______ ____
ROOT
ATOM      1  C   UNL     1       2.328   8.227  18.658  0.00  0.00    +0.000 A 
ATOM      2  C   UNL     1       3.352   7.914  17.752  0.00  0.00    +0.000 A 
ATOM      3  C   UNL     1       4.104   6.758  17.911  0.00  0.00    +0.000 A 
ATOM      4  N   UNL     1       3.853   5.865  18.892  0.00  0.00    +0.000 NA
ATOM      5  C   UNL     1       2.858   6.131  19.758  0.00  0.00    +0.000 A 
ATOM      6  N   UNL     1       2.703   5.184  20.770  0.00  0.00    +0.000 N 
ATOM      7  C   UNL     1       2.097   7.304  19.704  0.00  0.00    +0.000 A 
ATOM      8  H   UNL     1       3.320   4.401  20.567  0.00  0.00    +0.000 HD
ATOM      9  H   UNL     1       1.743   4.887  20.913  0.00  0.00    +0.000 HD
ENDROOT
BRANCH   3  10
ATOM     10  C   UNL     1       5.278   6.514  17.078  0.00  0.00    +0.000 A 
ATOM     11  C   UNL     1       6.502   7.135  17.260  0.00  0.00    +0.000 A 
ATOM     12  N   UNL     1       7.396   6.592  16.376  0.00  0.00    +0.000 N 
ATOM     13  C   UNL     1       6.784   5.629  15.610  0.00  0.00    +0.000 A 
ATOM     14  C   UNL     1       7.314   4.808  14.607  0.00  0.00    +0.000 A 
ATOM     15  C   UNL     1       6.450   3.902  13.988  0.00  0.00    +0.000 A 
ATOM     16  C   UNL     1       5.111   3.818  14.361  0.00  0.00    +0.000 A 
ATOM     17  C   UNL     1       4.602   4.640  15.372  0.00  0.00    +0.000 A 
ATOM     18  C   UNL     1       5.448   5.571  16.012  0.00  0.00    +0.000 A 
ATOM     19  H   UNL     1       8.373   6.843  16.304  0.00  0.00    +0.000 HD
ENDBRANCH   3  10
BRANCH   1  22
ATOM     20  C   UNL     1      -0.490  10.762  18.269  0.00  0.00    +0.000 A 
ATOM     21  C   UNL     1       0.214   9.552  18.301  0.00  0.00    +0.000 A 
ATOM     22  C   UNL     1       1.594   9.509  18.496  0.00  0.00    +0.000 A 
ATOM     23  C   UNL     1       2.260  10.745  18.525  0.00  0.00    +0.000 A 
ATOM     24  C   UNL     1       1.585  11.977  18.394  0.00  0.00    +0.000 A 
ATOM     25 BR   UNL     1       2.768  13.471  18.396  0.00  0.00    +0.000 Br
ATOM     26  C   UNL     1       0.187  12.004  18.285  0.00  0.00    +0.000 A 
BRANCH  20  28
ATOM     27  C   UNL     1      -2.410  10.071  17.054  0.00  0.00    +0.000 C 
ATOM     28  O   UNL     1      -1.867  10.780  18.171  0.00  0.00    +0.000 OA
ENDBRANCH  20  28
BRANCH  26  29
ATOM     29  O   UNL     1      -0.665  13.070  18.200  0.00  0.00    +0.000 OA
ATOM     30  C   UNL     1      -0.801  14.003  19.251  0.00  0.00    +0.000 C 
ENDBRANCH  26  29
ENDBRANCH   1  22
BRANCH   7  31
ATOM     31  C   UNL     1       1.117   7.522  20.732  0.00  0.00    +0.000 C 
ATOM     32  N   UNL     1       0.309   7.749  21.532  0.00  0.00    +0.000 NA
ENDBRANCH   7  31
TORSDOF 5
ENDMDL
