MODEL 1
REMARK VINA RESULT:      -6.5      0.000      0.000
REMARK  Name = 
REMARK  2 active torsions:
REMARK  status: ('A' for Active; 'I' for Inactive)
REMARK    1  A    between atoms: C_1  and  C_2
REMARK    2  A    between atoms: C_2  and  C_3
REMARK                            x       y       z     vdW  Elec       q    Type
REMARK                         _______ _______ _______ _____ _____    ______ ____
ROOT
ATOM      1  C   UNL     1       3.396   6.209  17.670  0.00  0.00    +0.000 A 
ATOM      2  C   UNL     1       2.287   5.435  18.057  0.00  0.00    +0.000 A 
ATOM      3  C   UNL     1       2.269   4.036  17.877  0.00  0.00    +0.000 A 
ATOM      4  C   UNL     1       3.354   3.369  17.305  0.00  0.00    +0.000 A 
ATOM      5  C   UNL     1       4.448   4.129  16.947  0.00  0.00    +0.000 A 
ATOM      6  C   UNL     1       4.474   5.513  17.140  0.00  0.00    +0.000 A 
ATOM      7  C   UNL     1       5.792   5.969  16.669  0.00  0.00    +0.000 C 
ATOM      8  O   UNL     1       6.251   7.087  16.707  0.00  0.00    +0.000 OA
ATOM      9  C   UNL     1       6.506   4.697  16.137  0.00  0.00    +0.000 C 
ATOM     10  O   UNL     1       7.603   4.644  15.632  0.00  0.00    +0.000 OA
ATOM     11  N   UNL     1       5.621   3.664  16.361  0.00  0.00    +0.000 N 
ATOM     12  H   UNL     1       5.820   2.708  16.104  0.00  0.00    +0.000 HD
ENDROOT
BRANCH   1  14
ATOM     13  C   UNL     1       1.972   8.280  17.848  0.00  0.00    +0.000 C 
ATOM     14  C   UNL     1       3.378   7.705  17.819  0.00  0.00    +0.000 C 
ENDBRANCH   1  14
TORSDOF 1
ENDMDL
MODEL 2
REMARK VINA RESULT:      -6.4      3.980      4.584
REMARK  Name = 
REMARK  2 active torsions:
REMARK  status: ('A' for Active; 'I' for Inactive)
REMARK    1  A    between atoms: C_1  and  C_2
REMARK    2  A    between atoms: C_2  and  C_3
REMARK                            x       y       z     vdW  Elec       q    Type
REMARK                         _______ _______ _______ _____ _____    ______ ____
ROOT
ATOM      1  C   UNL     1       1.863   3.830  19.331  0.00  0.00    +0.000 A 
ATOM      2  C   UNL     1       1.748   4.062  17.949  0.00  0.00    +0.000 A 
ATOM      3  C   UNL     1       2.691   3.545  17.036  0.00  0.00    +0.000 A 
ATOM      4  C   UNL     1       3.775   2.783  17.474  0.00  0.00    +0.000 A 
ATOM      5  C   UNL     1       3.872   2.539  18.828  0.00  0.00    +0.000 A 
ATOM      6  C   UNL     1       2.930   3.037  19.733  0.00  0.00    +0.000 A 
ATOM      7  C   UNL     1       3.342   2.559  21.062  0.00  0.00    +0.000 C 
ATOM      8  O   UNL     1       2.775   2.714  22.119  0.00  0.00    +0.000 OA
ATOM      9  C   UNL     1       4.659   1.769  20.829  0.00  0.00    +0.000 C 
ATOM     10  O   UNL     1       5.340   1.238  21.674  0.00  0.00    +0.000 OA
ATOM     11  N   UNL     1       4.872   1.813  19.468  0.00  0.00    +0.000 N 
ATOM     12  H   UNL     1       5.670   1.381  19.025  0.00  0.00    +0.000 HD
ENDROOT
BRANCH   1  14
ATOM     13  C   UNL     1       1.329   5.781  20.833  0.00  0.00    +0.000 C 
ATOM     14  C   UNL     1       0.880   4.433  20.296  0.00  0.00    +0.000 C 
ENDBRANCH   1  14
TORSDOF 1
ENDMDL
MODEL 3
REMARK VINA RESULT:      -6.3      1.430      1.435
REMARK  Name = 
REMARK  2 active torsions:
REMARK  status: ('A' for Active; 'I' for Inactive)
REMARK    1  A    between atoms: C_1  and  C_2
REMARK    2  A    between atoms: C_2  and  C_3
REMARK                            x       y       z     vdW  Elec       q    Type
REMARK                         _______ _______ _______ _____ _____    ______ ____
ROOT
ATOM      1  C   UNL     1       3.518   6.410  18.247  0.00  0.00    +0.000 A 
ATOM      2  C   UNL     1       2.524   5.882  19.089  0.00  0.00    +0.000 A 
ATOM      3  C   UNL     1       2.701   4.650  19.753  0.00  0.00    +0.000 A 
ATOM      4  C   UNL     1       3.874   3.909  19.595  0.00  0.00    +0.000 A 
ATOM      5  C   UNL     1       4.855   4.441  18.785  0.00  0.00    +0.000 A 
ATOM      6  C   UNL     1       4.688   5.669  18.139  0.00  0.00    +0.000 A 
ATOM      7  C   UNL     1       5.934   5.917  17.397  0.00  0.00    +0.000 C 
ATOM      8  O   UNL     1       6.233   6.892  16.747  0.00  0.00    +0.000 OA
ATOM      9  C   UNL     1       6.823   4.669  17.648  0.00  0.00    +0.000 C 
ATOM     10  O   UNL     1       7.921   4.461  17.189  0.00  0.00    +0.000 OA
ATOM     11  N   UNL     1       6.087   3.864  18.493  0.00  0.00    +0.000 N 
ATOM     12  H   UNL     1       6.420   2.970  18.823  0.00  0.00    +0.000 HD
ENDROOT
BRANCH   1  14
ATOM     13  C   UNL     1       2.004   8.395  17.906  0.00  0.00    +0.000 C 
ATOM     14  C   UNL     1       3.292   7.697  17.503  0.00  0.00    +0.000 C 
ENDBRANCH   1  14
TORSDOF 1
ENDMDL
MODEL 4
REMARK VINA RESULT:      -6.2      2.534      3.368
REMARK  Name = 
REMARK  2 active torsions:
REMARK  status: ('A' for Active; 'I' for Inactive)
REMARK    1  A    between atoms: C_1  and  C_2
REMARK    2  A    between atoms: C_2  and  C_3
REMARK                            x       y       z     vdW  Elec       q    Type
REMARK                         _______ _______ _______ _____ _____    ______ ____
ROOT
ATOM      1  C   UNL     1       5.081   4.508  16.302  0.00  0.00    +0.000 A 
ATOM      2  C   UNL     1       4.042   3.661  16.724  0.00  0.00    +0.000 A 
ATOM      3  C   UNL     1       3.865   3.337  18.085  0.00  0.00    +0.000 A 
ATOM      4  C   UNL     1       4.719   3.848  19.065  0.00  0.00    +0.000 A 
ATOM      5  C   UNL     1       5.724   4.696  18.648  0.00  0.00    +0.000 A 
ATOM      6  C   UNL     1       5.891   5.031  17.302  0.00  0.00    +0.000 A 
ATOM      7  C   UNL     1       7.030   5.961  17.246  0.00  0.00    +0.000 C 
ATOM      8  O   UNL     1       7.476   6.537  16.281  0.00  0.00    +0.000 OA
ATOM      9  C   UNL     1       7.533   6.088  18.710  0.00  0.00    +0.000 C 
ATOM     10  O   UNL     1       8.478   6.738  19.094  0.00  0.00    +0.000 OA
ATOM     11  N   UNL     1       6.679   5.304  19.457  0.00  0.00    +0.000 N 
ATOM     12  H   UNL     1       6.773   5.192  20.456  0.00  0.00    +0.000 HD
ENDROOT
BRANCH   1  14
ATOM     13  C   UNL     1       6.303   3.872  14.191  0.00  0.00    +0.000 C 
ATOM     14  C   UNL     1       5.290   4.800  14.841  0.00  0.00    +0.000 C 
ENDBRANCH   1  14
TORSDOF 1
ENDMDL
MODEL 5
REMARK VINA RESULT:      -6.2      1.401      2.995
REMARK  Name = 
REMARK  2 active torsions:
REMARK  status: ('A' for Active; 'I' for Inactive)
REMARK    1  A    between atoms: C_1  and  C_2
REMARK    2  A    between atoms: C_2  and  C_3
REMARK                            x       y       z     vdW  Elec       q    Type
REMARK                         _______ _______ _______ _____ _____    ______ ____
ROOT
ATOM      1  C   UNL     1       3.238   4.457  17.479  0.00  0.00    +0.000 A 
ATOM      2  C   UNL     1       2.308   5.322  18.082  0.00  0.00    +0.000 A 
ATOM      3  C   UNL     1       2.545   6.710  18.168  0.00  0.00    +0.000 A 
ATOM      4  C   UNL     1       3.716   7.275  17.658  0.00  0.00    +0.000 A 
ATOM      5  C   UNL     1       4.615   6.425  17.048  0.00  0.00    +0.000 A 
ATOM      6  C   UNL     1       4.374   5.052  16.947  0.00  0.00    +0.000 A 
ATOM      7  C   UNL     1       5.524   4.485  16.224  0.00  0.00    +0.000 C 
ATOM      8  O   UNL     1       5.693   3.340  15.874  0.00  0.00    +0.000 OA
ATOM      9  C   UNL     1       6.480   5.681  15.962  0.00  0.00    +0.000 C 
ATOM     10  O   UNL     1       7.559   5.635  15.418  0.00  0.00    +0.000 OA
ATOM     11  N   UNL     1       5.836   6.782  16.484  0.00  0.00    +0.000 N 
ATOM     12  H   UNL     1       6.233   7.710  16.461  0.00  0.00    +0.000 HD
ENDROOT
BRANCH   1  14
ATOM     13  C   UNL     1       1.804   2.547  18.282  0.00  0.00    +0.000 C 
ATOM     14  C   UNL     1       2.996   2.974  17.442  0.00  0.00    +0.000 C 
ENDBRANCH   1  14
TORSDOF 1
ENDMDL
MODEL 6
REMARK VINA RESULT:      -6.0      1.084      1.084
REMARK  Name = 
REMARK  2 active torsions:
REMARK  status: ('A' for Active; 'I' for Inactive)
REMARK    1  A    between atoms: C_1  and  C_2
REMARK    2  A    between atoms: C_2  and  C_3
REMARK                            x       y       z     vdW  Elec       q    Type
REMARK                         _______ _______ _______ _____ _____    ______ ____
ROOT
ATOM      1  C   UNL     1       3.718   6.151  17.865  0.00  0.00    +0.000 A 
ATOM      2  C   UNL     1       3.162   5.544  19.005  0.00  0.00    +0.000 A 
ATOM      3  C   UNL     1       3.396   4.184  19.300  0.00  0.00    +0.000 A 
ATOM      4  C   UNL     1       4.189   3.391  18.468  0.00  0.00    +0.000 A 
ATOM      5  C   UNL     1       4.749   3.997  17.364  0.00  0.00    +0.000 A 
ATOM      6  C   UNL     1       4.533   5.348  17.078  0.00  0.00    +0.000 A 
ATOM      7  C   UNL     1       5.300   5.639  15.856  0.00  0.00    +0.000 C 
ATOM      8  O   UNL     1       5.434   6.701  15.295  0.00  0.00    +0.000 OA
ATOM      9  C   UNL     1       5.946   4.289  15.440  0.00  0.00    +0.000 C 
ATOM     10  O   UNL     1       6.633   4.088  14.466  0.00  0.00    +0.000 OA
ATOM     11  N   UNL     1       5.561   3.389  16.411  0.00  0.00    +0.000 N 
ATOM     12  H   UNL     1       5.833   2.416  16.393  0.00  0.00    +0.000 HD
ENDROOT
BRANCH   1  14
ATOM     13  C   UNL     1       2.159   8.099  18.217  0.00  0.00    +0.000 C 
ATOM     14  C   UNL     1       3.416   7.586  17.535  0.00  0.00    +0.000 C 
ENDBRANCH   1  14
TORSDOF 1
ENDMDL
MODEL 7
REMARK VINA RESULT:      -6.0      3.588      4.915
REMARK  Name = 
REMARK  2 active torsions:
REMARK  status: ('A' for Active; 'I' for Inactive)
REMARK    1  A    between atoms: C_1  and  C_2
REMARK    2  A    between atoms: C_2  and  C_3
REMARK                            x       y       z     vdW  Elec       q    Type
REMARK                         _______ _______ _______ _____ _____    ______ ____
ROOT
ATOM      1  C   UNL     1       3.846   4.785  17.880  0.00  0.00    +0.000 A 
ATOM      2  C   UNL     1       3.690   6.102  17.414  0.00  0.00    +0.000 A 
ATOM      3  C   UNL     1       3.038   7.084  18.190  0.00  0.00    +0.000 A 
ATOM      4  C   UNL     1       2.523   6.780  19.451  0.00  0.00    +0.000 A 
ATOM      5  C   UNL     1       2.698   5.493  19.914  0.00  0.00    +0.000 A 
ATOM      6  C   UNL     1       3.357   4.523  19.153  0.00  0.00    +0.000 A 
ATOM      7  C   UNL     1       3.373   3.299  19.970  0.00  0.00    +0.000 C 
ATOM      8  O   UNL     1       3.893   2.238  19.714  0.00  0.00    +0.000 OA
ATOM      9  C   UNL     1       2.603   3.659  21.271  0.00  0.00    +0.000 C 
ATOM     10  O   UNL     1       2.363   2.917  22.195  0.00  0.00    +0.000 OA
ATOM     11  N   UNL     1       2.258   4.986  21.133  0.00  0.00    +0.000 N 
ATOM     12  H   UNL     1       1.737   5.492  21.835  0.00  0.00    +0.000 HD
ENDROOT
BRANCH   1  14
ATOM     13  C   UNL     1       5.241   4.323  15.833  0.00  0.00    +0.000 C 
ATOM     14  C   UNL     1       4.494   3.737  17.019  0.00  0.00    +0.000 C 
ENDBRANCH   1  14
TORSDOF 1
ENDMDL
MODEL 8
REMARK VINA RESULT:      -6.0      2.886      3.606
REMARK  Name = 
REMARK  2 active torsions:
REMARK  status: ('A' for Active; 'I' for Inactive)
REMARK    1  A    between atoms: C_1  and  C_2
REMARK    2  A    between atoms: C_2  and  C_3
REMARK                            x       y       z     vdW  Elec       q    Type
REMARK                         _______ _______ _______ _____ _____    ______ ____
ROOT
ATOM      1  C   UNL     1       5.216   4.102  17.855  0.00  0.00    +0.000 A 
ATOM      2  C   UNL     1       4.666   3.704  16.623  0.00  0.00    +0.000 A 
ATOM      3  C   UNL     1       5.037   4.332  15.416  0.00  0.00    +0.000 A 
ATOM      4  C   UNL     1       5.964   5.376  15.401  0.00  0.00    +0.000 A 
ATOM      5  C   UNL     1       6.517   5.749  16.609  0.00  0.00    +0.000 A 
ATOM      6  C   UNL     1       6.163   5.117  17.804  0.00  0.00    +0.000 A 
ATOM      7  C   UNL     1       6.964   5.756  18.861  0.00  0.00    +0.000 C 
ATOM      8  O   UNL     1       7.008   5.475  20.036  0.00  0.00    +0.000 OA
ATOM      9  C   UNL     1       7.784   6.864  18.146  0.00  0.00    +0.000 C 
ATOM     10  O   UNL     1       8.548   7.644  18.666  0.00  0.00    +0.000 OA
ATOM     11  N   UNL     1       7.448   6.762  16.813  0.00  0.00    +0.000 N 
ATOM     12  H   UNL     1       7.831   7.371  16.104  0.00  0.00    +0.000 HD
ENDROOT
BRANCH   1  14
ATOM     13  C   UNL     1       3.261   3.462  19.310  0.00  0.00    +0.000 C 
ATOM     14  C   UNL     1       4.771   3.459  19.139  0.00  0.00    +0.000 C 
ENDBRANCH   1  14
TORSDOF 1
ENDMDL
MODEL 9
REMARK VINA RESULT:      -6.0      2.597      3.405
REMARK  Name = 
REMARK  2 active torsions:
REMARK  status: ('A' for Active; 'I' for Inactive)
REMARK    1  A    between atoms: C_1  and  C_2
REMARK    2  A    between atoms: C_2  and  C_3
REMARK                            x       y       z     vdW  Elec       q    Type
REMARK                         _______ _______ _______ _____ _____    ______ ____
ROOT
ATOM      1  C   UNL     1       3.566   6.332  17.737  0.00  0.00    +0.000 A 
ATOM      2  C   UNL     1       4.498   6.918  16.864  0.00  0.00    +0.000 A 
ATOM      3  C   UNL     1       5.427   6.133  16.147  0.00  0.00    +0.000 A 
ATOM      4  C   UNL     1       5.453   4.744  16.283  0.00  0.00    +0.000 A 
ATOM      5  C   UNL     1       4.522   4.172  17.125  0.00  0.00    +0.000 A 
ATOM      6  C   UNL     1       3.591   4.946  17.823  0.00  0.00    +0.000 A 
ATOM      7  C   UNL     1       2.760   4.002  18.587  0.00  0.00    +0.000 C 
ATOM      8  O   UNL     1       1.801   4.246  19.282  0.00  0.00    +0.000 OA
ATOM      9  C   UNL     1       3.350   2.596  18.289  0.00  0.00    +0.000 C 
ATOM     10  O   UNL     1       2.972   1.544  18.750  0.00  0.00    +0.000 OA
ATOM     11  N   UNL     1       4.383   2.816  17.404  0.00  0.00    +0.000 N 
ATOM     12  H   UNL     1       4.958   2.071  17.038  0.00  0.00    +0.000 HD
ENDROOT
BRANCH   1  14
ATOM     13  C   UNL     1       2.234   8.470  17.820  0.00  0.00    +0.000 C 
ATOM     14  C   UNL     1       2.618   7.186  18.535  0.00  0.00    +0.000 C 
ENDBRANCH   1  14
TORSDOF 1
ENDMDL
