MODEL 1
REMARK VINA RESULT:      -8.5      0.000      0.000
REMARK  Name = 
REMARK  4 active torsions:
REMARK  status: ('A' for Active; 'I' for Inactive)
REMARK    1  A    between atoms: C_1  and  C_2
REMARK    2  A    between atoms: N_9  and  C_10
REMARK    3  A    between atoms: N_13  and  C_14
REMARK    4  A    between atoms: C_14  and  C_15
REMARK                            x       y       z     vdW  Elec       q    Type
REMARK                         _______ _______ _______ _____ _____    ______ ____
ROOT
ATOM      1  C   UNL     1       1.171   2.601  21.782  0.00  0.00    +0.000 C 
ATOM      2  C   UNL     1       1.688   3.053  20.449  0.00  0.00    +0.000 A 
ATOM      3  C   UNL     1       1.798   2.153  19.387  0.00  0.00    +0.000 A 
ATOM      4  C   UNL     1       2.305   2.575  18.158  0.00  0.00    +0.000 A 
ATOM      5  C   UNL     1       2.717   3.904  17.966  0.00  0.00    +0.000 A 
ATOM      6  C   UNL     1       2.570   4.825  19.016  0.00  0.00    +0.000 A 
ATOM      7  C   UNL     1       2.067   4.389  20.255  0.00  0.00    +0.000 A 
ATOM      8  C   UNL     1       2.918   6.286  18.859  0.00  0.00    +0.000 C 
ATOM      9  N   UNL     1       2.017   7.196  19.426  0.00  0.00    +0.000 N 
ATOM     10  N   UNL     1       3.998   6.716  18.258  0.00  0.00    +0.000 NA
ATOM     11  C   UNL     1       4.948   5.875  17.625  0.00  0.00    +0.000 A 
ATOM     12  C   UNL     1       6.300   6.220  17.721  0.00  0.00    +0.000 A 
ATOM     13  C   UNL     1       7.274   5.478  17.048  0.00  0.00    +0.000 A 
ATOM     14  C   UNL     1       6.863   4.423  16.256  0.00  0.00    +0.000 A 
ATOM     15  N   UNL     1       5.573   4.060  16.114  0.00  0.00    +0.000 NA
ATOM     16  C   UNL     1       4.646   4.772  16.807  0.00  0.00    +0.000 A 
ATOM     17  N   UNL     1       3.340   4.247  16.744  0.00  0.00    +0.000 N 
ATOM     18  H   UNL     1       1.097   6.835  19.662  0.00  0.00    +0.000 HD
ATOM     19  H   UNL     1       3.420   3.456  16.112  0.00  0.00    +0.000 HD
ENDROOT
BRANCH   9  20
ATOM     20  C   UNL     1       2.056   8.650  19.209  0.00  0.00    +0.000 C 
ATOM     21  C   UNL     1       1.421   9.403  20.390  0.00  0.00    +0.000 C 
ATOM     22  C   UNL     1      -0.045   9.816  20.224  0.00  0.00    +0.000 C 
ATOM     23  N   UNL     1      -0.301  10.412  18.906  0.00  0.00    +0.000 NA
ATOM     24  C   UNL     1      -0.028   9.397  17.878  0.00  0.00    +0.000 C 
ATOM     25  C   UNL     1       1.457   9.029  17.851  0.00  0.00    +0.000 C 
BRANCH  23  26
ATOM     26  C   UNL     1      -1.690  10.920  18.778  0.00  0.00    +0.000 C 
BRANCH  26  27
ATOM     27  C   UNL     1      -1.928  12.262  19.448  0.00  0.00    +0.000 A 
ATOM     28  C   UNL     1      -0.947  13.264  19.424  0.00  0.00    +0.000 A 
ATOM     29  C   UNL     1      -1.140  14.470  20.103  0.00  0.00    +0.000 A 
ATOM     30  C   UNL     1      -2.324  14.695  20.805  0.00  0.00    +0.000 A 
ATOM     31  C   UNL     1      -3.326  13.730  20.798  0.00  0.00    +0.000 A 
ATOM     32  C   UNL     1      -3.133  12.522  20.120  0.00  0.00    +0.000 A 
ENDBRANCH  26  27
ENDBRANCH  23  26
ENDBRANCH   9  20
TORSDOF 3
ENDMDL
MODEL 2
REMARK VINA RESULT:      -8.3      2.345      9.462
REMARK  Name = 
REMARK  4 active torsions:
REMARK  status: ('A' for Active; 'I' for Inactive)
REMARK    1  A    between atoms: C_1  and  C_2
REMARK    2  A    between atoms: N_9  and  C_10
REMARK    3  A    between atoms: N_13  and  C_14
REMARK    4  A    between atoms: C_14  and  C_15
REMARK                            x       y       z     vdW  Elec       q    Type
REMARK                         _______ _______ _______ _____ _____    ______ ____
ROOT
ATOM      1  C   UNL     1      -3.479  10.020  14.778  0.00  0.00    +0.000 C 
ATOM      2  C   UNL     1      -3.232  10.559  16.156  0.00  0.00    +0.000 A 
ATOM      3  C   UNL     1      -4.276  11.111  16.902  0.00  0.00    +0.000 A 
ATOM      4  C   UNL     1      -4.032  11.633  18.172  0.00  0.00    +0.000 A 
ATOM      5  C   UNL     1      -2.739  11.621  18.721  0.00  0.00    +0.000 A 
ATOM      6  C   UNL     1      -1.692  11.029  17.995  0.00  0.00    +0.000 A 
ATOM      7  C   UNL     1      -1.944  10.514  16.711  0.00  0.00    +0.000 A 
ATOM      8  C   UNL     1      -0.294  10.910  18.552  0.00  0.00    +0.000 C 
ATOM      9  N   UNL     1       0.355   9.690  18.324  0.00  0.00    +0.000 N 
ATOM     10  N   UNL     1       0.318  11.872  19.194  0.00  0.00    +0.000 NA
ATOM     11  C   UNL     1      -0.269  13.125  19.503  0.00  0.00    +0.000 A 
ATOM     12  C   UNL     1       0.540  14.264  19.439  0.00  0.00    +0.000 A 
ATOM     13  C   UNL     1       0.041  15.514  19.815  0.00  0.00    +0.000 A 
ATOM     14  C   UNL     1      -1.256  15.587  20.285  0.00  0.00    +0.000 A 
ATOM     15  N   UNL     1      -2.071  14.519  20.383  0.00  0.00    +0.000 NA
ATOM     16  C   UNL     1      -1.577  13.320  19.979  0.00  0.00    +0.000 A 
ATOM     17  N   UNL     1      -2.523  12.277  19.954  0.00  0.00    +0.000 N 
ATOM     18  H   UNL     1      -0.232   8.910  18.042  0.00  0.00    +0.000 HD
ATOM     19  H   UNL     1      -3.370  12.700  20.323  0.00  0.00    +0.000 HD
ENDROOT
BRANCH   9  20
ATOM     20  C   UNL     1       1.623   9.292  18.953  0.00  0.00    +0.000 C 
ATOM     21  C   UNL     1       2.280   8.130  18.189  0.00  0.00    +0.000 C 
ATOM     22  C   UNL     1       2.024   6.723  18.738  0.00  0.00    +0.000 C 
ATOM     23  N   UNL     1       2.182   6.667  20.197  0.00  0.00    +0.000 NA
ATOM     24  C   UNL     1       1.177   7.549  20.806  0.00  0.00    +0.000 C 
ATOM     25  C   UNL     1       1.442   9.013  20.448  0.00  0.00    +0.000 C 
BRANCH  23  26
ATOM     26  C   UNL     1       2.049   5.285  20.724  0.00  0.00    +0.000 C 
BRANCH  26  27
ATOM     27  C   UNL     1       2.358   4.198  19.710  0.00  0.00    +0.000 A 
ATOM     28  C   UNL     1       1.334   3.418  19.153  0.00  0.00    +0.000 A 
ATOM     29  C   UNL     1       1.630   2.372  18.275  0.00  0.00    +0.000 A 
ATOM     30  C   UNL     1       2.954   2.100  17.932  0.00  0.00    +0.000 A 
ATOM     31  C   UNL     1       3.976   2.895  18.439  0.00  0.00    +0.000 A 
ATOM     32  C   UNL     1       3.682   3.942  19.318  0.00  0.00    +0.000 A 
ENDBRANCH  26  27
ENDBRANCH  23  26
ENDBRANCH   9  20
TORSDOF 3
ENDMDL
MODEL 3
REMARK VINA RESULT:      -8.2      2.028      9.520
REMARK  Name = 
REMARK  4 active torsions:
REMARK  status: ('A' for Active; 'I' for Inactive)
REMARK    1  A    between atoms: C_1  and  C_2
REMARK    2  A    between atoms: N_9  and  C_10
REMARK    3  A    between atoms: N_13  and  C_14
REMARK    4  A    between atoms: C_14  and  C_15
REMARK                            x       y       z     vdW  Elec       q    Type
REMARK                         _______ _______ _______ _____ _____    ______ ____
ROOT
ATOM      1  C   UNL     1      -3.464   9.666  15.180  0.00  0.00    +0.000 C 
ATOM      2  C   UNL     1      -3.110  10.315  16.485  0.00  0.00    +0.000 A 
ATOM      3  C   UNL     1      -4.084  10.967  17.244  0.00  0.00    +0.000 A 
ATOM      4  C   UNL     1      -3.741  11.589  18.444  0.00  0.00    +0.000 A 
ATOM      5  C   UNL     1      -2.416  11.579  18.908  0.00  0.00    +0.000 A 
ATOM      6  C   UNL     1      -1.438  10.889  18.173  0.00  0.00    +0.000 A 
ATOM      7  C   UNL     1      -1.790  10.272  16.960  0.00  0.00    +0.000 A 
ATOM      8  C   UNL     1      -0.010  10.769  18.650  0.00  0.00    +0.000 C 
ATOM      9  N   UNL     1       0.585   9.511  18.491  0.00  0.00    +0.000 N 
ATOM     10  N   UNL     1       0.672  11.761  19.162  0.00  0.00    +0.000 NA
ATOM     11  C   UNL     1       0.145  13.057  19.394  0.00  0.00    +0.000 A 
ATOM     12  C   UNL     1       0.982  14.156  19.177  0.00  0.00    +0.000 A 
ATOM     13  C   UNL     1       0.547  15.451  19.469  0.00  0.00    +0.000 A 
ATOM     14  C   UNL     1      -0.713  15.612  20.013  0.00  0.00    +0.000 A 
ATOM     15  N   UNL     1      -1.552  14.586  20.257  0.00  0.00    +0.000 NA
ATOM     16  C   UNL     1      -1.122  13.339  19.932  0.00  0.00    +0.000 A 
ATOM     17  N   UNL     1      -2.099  12.332  20.062  0.00  0.00    +0.000 N 
ATOM     18  H   UNL     1      -0.042   8.731  18.318  0.00  0.00    +0.000 HD
ATOM     19  H   UNL     1      -2.906  12.817  20.444  0.00  0.00    +0.000 HD
ENDROOT
BRANCH   9  20
ATOM     20  C   UNL     1       1.880   9.124  19.071  0.00  0.00    +0.000 C 
ATOM     21  C   UNL     1       2.890   8.750  17.974  0.00  0.00    +0.000 C 
ATOM     22  C   UNL     1       3.033   7.258  17.660  0.00  0.00    +0.000 C 
ATOM     23  N   UNL     1       3.125   6.447  18.881  0.00  0.00    +0.000 NA
ATOM     24  C   UNL     1       1.874   6.604  19.636  0.00  0.00    +0.000 C 
ATOM     25  C   UNL     1       1.712   8.040  20.140  0.00  0.00    +0.000 C 
BRANCH  23  26
ATOM     26  C   UNL     1       3.378   5.014  18.588  0.00  0.00    +0.000 C 
BRANCH  26  27
ATOM     27  C   UNL     1       4.678   4.750  17.847  0.00  0.00    +0.000 A 
ATOM     28  C   UNL     1       5.916   5.059  18.430  0.00  0.00    +0.000 A 
ATOM     29  C   UNL     1       7.105   4.882  17.717  0.00  0.00    +0.000 A 
ATOM     30  C   UNL     1       7.073   4.380  16.417  0.00  0.00    +0.000 A 
ATOM     31  C   UNL     1       5.856   4.023  15.844  0.00  0.00    +0.000 A 
ATOM     32  C   UNL     1       4.665   4.201  16.555  0.00  0.00    +0.000 A 
ENDBRANCH  26  27
ENDBRANCH  23  26
ENDBRANCH   9  20
TORSDOF 3
ENDMDL
MODEL 4
REMARK VINA RESULT:      -8.2      2.100      9.656
REMARK  Name = 
REMARK  4 active torsions:
REMARK  status: ('A' for Active; 'I' for Inactive)
REMARK    1  A    between atoms: C_1  and  C_2
REMARK    2  A    between atoms: N_9  and  C_10
REMARK    3  A    between atoms: N_13  and  C_14
REMARK    4  A    between atoms: C_14  and  C_15
REMARK                            x       y       z     vdW  Elec       q    Type
REMARK                         _______ _______ _______ _____ _____    ______ ____
ROOT
ATOM      1  C   UNL     1      -3.742  10.358  14.897  0.00  0.00    +0.000 C 
ATOM      2  C   UNL     1      -3.564  10.841  16.305  0.00  0.00    +0.000 A 
ATOM      3  C   UNL     1      -4.664  11.247  17.063  0.00  0.00    +0.000 A 
ATOM      4  C   UNL     1      -4.486  11.718  18.364  0.00  0.00    +0.000 A 
ATOM      5  C   UNL     1      -3.204  11.799  18.933  0.00  0.00    +0.000 A 
ATOM      6  C   UNL     1      -2.097  11.352  18.193  0.00  0.00    +0.000 A 
ATOM      7  C   UNL     1      -2.284  10.887  16.879  0.00  0.00    +0.000 A 
ATOM      8  C   UNL     1      -0.700  11.336  18.766  0.00  0.00    +0.000 C 
ATOM      9  N   UNL     1       0.065  10.198  18.482  0.00  0.00    +0.000 N 
ATOM     10  N   UNL     1      -0.191  12.314  19.469  0.00  0.00    +0.000 NA
ATOM     11  C   UNL     1      -0.899  13.487  19.837  0.00  0.00    +0.000 A 
ATOM     12  C   UNL     1      -0.203  14.699  19.849  0.00  0.00    +0.000 A 
ATOM     13  C   UNL     1      -0.824  15.873  20.283  0.00  0.00    +0.000 A 
ATOM     14  C   UNL     1      -2.127  15.796  20.736  0.00  0.00    +0.000 A 
ATOM     15  N   UNL     1      -2.838  14.650  20.761  0.00  0.00    +0.000 NA
ATOM     16  C   UNL     1      -2.226  13.528  20.300  0.00  0.00    +0.000 A 
ATOM     17  N   UNL     1      -3.067  12.403  20.203  0.00  0.00    +0.000 N 
ATOM     18  H   UNL     1      -0.440   9.383  18.148  0.00  0.00    +0.000 HD
ATOM     19  H   UNL     1      -3.954  12.722  20.581  0.00  0.00    +0.000 HD
ENDROOT
BRANCH   9  20
ATOM     20  C   UNL     1       1.359   9.888  19.110  0.00  0.00    +0.000 C 
ATOM     21  C   UNL     1       2.218   8.996  18.198  0.00  0.00    +0.000 C 
ATOM     22  C   UNL     1       2.170   7.491  18.477  0.00  0.00    +0.000 C 
ATOM     23  N   UNL     1       2.286   7.196  19.912  0.00  0.00    +0.000 NA
ATOM     24  C   UNL     1       1.134   7.792  20.602  0.00  0.00    +0.000 C 
ATOM     25  C   UNL     1       1.174   9.320  20.520  0.00  0.00    +0.000 C 
BRANCH  23  26
ATOM     26  C   UNL     1       2.357   5.738  20.182  0.00  0.00    +0.000 C 
BRANCH  26  27
ATOM     27  C   UNL     1       3.065   4.937  19.103  0.00  0.00    +0.000 A 
ATOM     28  C   UNL     1       4.461   4.984  18.969  0.00  0.00    +0.000 A 
ATOM     29  C   UNL     1       5.102   4.303  17.931  0.00  0.00    +0.000 A 
ATOM     30  C   UNL     1       4.358   3.555  17.020  0.00  0.00    +0.000 A 
ATOM     31  C   UNL     1       2.978   3.459  17.170  0.00  0.00    +0.000 A 
ATOM     32  C   UNL     1       2.334   4.141  18.207  0.00  0.00    +0.000 A 
ENDBRANCH  26  27
ENDBRANCH  23  26
ENDBRANCH   9  20
TORSDOF 3
ENDMDL
MODEL 5
REMARK VINA RESULT:      -8.1      2.658      8.880
REMARK  Name = 
REMARK  4 active torsions:
REMARK  status: ('A' for Active; 'I' for Inactive)
REMARK    1  A    between atoms: C_1  and  C_2
REMARK    2  A    between atoms: N_9  and  C_10
REMARK    3  A    between atoms: N_13  and  C_14
REMARK    4  A    between atoms: C_14  and  C_15
REMARK                            x       y       z     vdW  Elec       q    Type
REMARK                         _______ _______ _______ _____ _____    ______ ____
ROOT
ATOM      1  C   UNL     1       0.897   1.864  18.382  0.00  0.00    +0.000 C 
ATOM      2  C   UNL     1       1.306   3.174  18.986  0.00  0.00    +0.000 A 
ATOM      3  C   UNL     1       0.880   3.530  20.268  0.00  0.00    +0.000 A 
ATOM      4  C   UNL     1       1.244   4.762  20.812  0.00  0.00    +0.000 A 
ATOM      5  C   UNL     1       2.036   5.666  20.086  0.00  0.00    +0.000 A 
ATOM      6  C   UNL     1       2.504   5.297  18.814  0.00  0.00    +0.000 A 
ATOM      7  C   UNL     1       2.125   4.058  18.268  0.00  0.00    +0.000 A 
ATOM      8  C   UNL     1       3.423   6.184  18.007  0.00  0.00    +0.000 C 
ATOM      9  N   UNL     1       4.478   5.537  17.351  0.00  0.00    +0.000 N 
ATOM     10  N   UNL     1       3.264   7.476  17.884  0.00  0.00    +0.000 NA
ATOM     11  C   UNL     1       2.249   8.222  18.537  0.00  0.00    +0.000 A 
ATOM     12  C   UNL     1       1.660   9.281  17.840  0.00  0.00    +0.000 A 
ATOM     13  C   UNL     1       0.717  10.104  18.461  0.00  0.00    +0.000 A 
ATOM     14  C   UNL     1       0.412   9.868  19.787  0.00  0.00    +0.000 A 
ATOM     15  N   UNL     1       0.964   8.871  20.509  0.00  0.00    +0.000 NA
ATOM     16  C   UNL     1       1.851   8.061  19.875  0.00  0.00    +0.000 A 
ATOM     17  N   UNL     1       2.269   6.949  20.631  0.00  0.00    +0.000 N 
ATOM     18  H   UNL     1       4.698   4.596  17.663  0.00  0.00    +0.000 HD
ATOM     19  H   UNL     1       1.817   7.077  21.532  0.00  0.00    +0.000 HD
ENDROOT
BRANCH   9  20
ATOM     20  C   UNL     1       5.596   6.229  16.692  0.00  0.00    +0.000 C 
ATOM     21  C   UNL     1       5.221   6.651  15.261  0.00  0.00    +0.000 C 
ATOM     22  C   UNL     1       5.660   5.708  14.137  0.00  0.00    +0.000 C 
ATOM     23  N   UNL     1       7.051   5.267  14.302  0.00  0.00    +0.000 NA
ATOM     24  C   UNL     1       7.149   4.505  15.555  0.00  0.00    +0.000 C 
ATOM     25  C   UNL     1       6.884   5.404  16.766  0.00  0.00    +0.000 C 
BRANCH  23  26
ATOM     26  C   UNL     1       7.521   4.446  13.158  0.00  0.00    +0.000 C 
BRANCH  26  27
ATOM     27  C   UNL     1       6.426   3.648  12.471  0.00  0.00    +0.000 A 
ATOM     28  C   UNL     1       6.687   2.379  11.933  0.00  0.00    +0.000 A 
ATOM     29  C   UNL     1       5.696   1.680  11.239  0.00  0.00    +0.000 A 
ATOM     30  C   UNL     1       4.426   2.234  11.086  0.00  0.00    +0.000 A 
ATOM     31  C   UNL     1       4.138   3.470  11.657  0.00  0.00    +0.000 A 
ATOM     32  C   UNL     1       5.129   4.172  12.350  0.00  0.00    +0.000 A 
ENDBRANCH  26  27
ENDBRANCH  23  26
ENDBRANCH   9  20
TORSDOF 3
ENDMDL
MODEL 6
REMARK VINA RESULT:      -8.1      2.889     10.081
REMARK  Name = 
REMARK  4 active torsions:
REMARK  status: ('A' for Active; 'I' for Inactive)
REMARK    1  A    between atoms: C_1  and  C_2
REMARK    2  A    between atoms: N_9  and  C_10
REMARK    3  A    between atoms: N_13  and  C_14
REMARK    4  A    between atoms: C_14  and  C_15
REMARK                            x       y       z     vdW  Elec       q    Type
REMARK                         _______ _______ _______ _____ _____    ______ ____
ROOT
ATOM      1  C   UNL     1       5.267  14.840  17.882  0.00  0.00    +0.000 C 
ATOM      2  C   UNL     1       3.803  14.948  18.188  0.00  0.00    +0.000 A 
ATOM      3  C   UNL     1       3.139  16.171  18.067  0.00  0.00    +0.000 A 
ATOM      4  C   UNL     1       1.783  16.268  18.377  0.00  0.00    +0.000 A 
ATOM      5  C   UNL     1       1.063  15.147  18.822  0.00  0.00    +0.000 A 
ATOM      6  C   UNL     1       1.713  13.904  18.905  0.00  0.00    +0.000 A 
ATOM      7  C   UNL     1       3.082  13.817  18.599  0.00  0.00    +0.000 A 
ATOM      8  C   UNL     1       0.985  12.641  19.299  0.00  0.00    +0.000 C 
ATOM      9  N   UNL     1       1.300  11.496  18.558  0.00  0.00    +0.000 N 
ATOM     10  N   UNL     1       0.124  12.574  20.282  0.00  0.00    +0.000 NA
ATOM     11  C   UNL     1      -0.284  13.685  21.064  0.00  0.00    +0.000 A 
ATOM     12  C   UNL     1      -0.510  13.481  22.429  0.00  0.00    +0.000 A 
ATOM     13  C   UNL     1      -0.995  14.516  23.232  0.00  0.00    +0.000 A 
ATOM     14  C   UNL     1      -1.281  15.729  22.636  0.00  0.00    +0.000 A 
ATOM     15  N   UNL     1      -1.097  15.973  21.323  0.00  0.00    +0.000 NA
ATOM     16  C   UNL     1      -0.591  14.964  20.568  0.00  0.00    +0.000 A 
ATOM     17  N   UNL     1      -0.274  15.327  19.245  0.00  0.00    +0.000 N 
ATOM     18  H   UNL     1       1.778  11.645  17.674  0.00  0.00    +0.000 HD
ATOM     19  H   UNL     1      -0.578  16.294  19.173  0.00  0.00    +0.000 HD
ENDROOT
BRANCH   9  20
ATOM     20  C   UNL     1       0.564  10.225  18.637  0.00  0.00    +0.000 C 
ATOM     21  C   UNL     1       0.578   9.664  20.069  0.00  0.00    +0.000 C 
ATOM     22  C   UNL     1       1.645   8.608  20.375  0.00  0.00    +0.000 C 
ATOM     23  N   UNL     1       1.733   7.594  19.317  0.00  0.00    +0.000 NA
ATOM     24  C   UNL     1       2.140   8.258  18.071  0.00  0.00    +0.000 C 
ATOM     25  C   UNL     1       1.058   9.227  17.586  0.00  0.00    +0.000 C 
BRANCH  23  26
ATOM     26  C   UNL     1       2.682   6.504  19.658  0.00  0.00    +0.000 C 
BRANCH  26  27
ATOM     27  C   UNL     1       2.103   5.107  19.520  0.00  0.00    +0.000 A 
ATOM     28  C   UNL     1       1.574   4.432  20.630  0.00  0.00    +0.000 A 
ATOM     29  C   UNL     1       1.109   3.120  20.513  0.00  0.00    +0.000 A 
ATOM     30  C   UNL     1       1.154   2.469  19.281  0.00  0.00    +0.000 A 
ATOM     31  C   UNL     1       1.630   3.142  18.160  0.00  0.00    +0.000 A 
ATOM     32  C   UNL     1       2.097   4.455  18.276  0.00  0.00    +0.000 A 
ENDBRANCH  26  27
ENDBRANCH  23  26
ENDBRANCH   9  20
TORSDOF 3
ENDMDL
MODEL 7
REMARK VINA RESULT:      -8.1      2.046      9.368
REMARK  Name = 
REMARK  4 active torsions:
REMARK  status: ('A' for Active; 'I' for Inactive)
REMARK    1  A    between atoms: C_1  and  C_2
REMARK    2  A    between atoms: N_9  and  C_10
REMARK    3  A    between atoms: N_13  and  C_14
REMARK    4  A    between atoms: C_14  and  C_15
REMARK                            x       y       z     vdW  Elec       q    Type
REMARK                         _______ _______ _______ _____ _____    ______ ____
ROOT
ATOM      1  C   UNL     1      -3.604  10.081  14.792  0.00  0.00    +0.000 C 
ATOM      2  C   UNL     1      -3.387  10.607  16.180  0.00  0.00    +0.000 A 
ATOM      3  C   UNL     1      -4.464  11.062  16.945  0.00  0.00    +0.000 A 
ATOM      4  C   UNL     1      -4.250  11.572  18.225  0.00  0.00    +0.000 A 
ATOM      5  C   UNL     1      -2.955  11.645  18.765  0.00  0.00    +0.000 A 
ATOM      6  C   UNL     1      -1.873  11.150  18.020  0.00  0.00    +0.000 A 
ATOM      7  C   UNL     1      -2.096  10.646  16.726  0.00  0.00    +0.000 A 
ATOM      8  C   UNL     1      -0.465  11.124  18.566  0.00  0.00    +0.000 C 
ATOM      9  N   UNL     1       0.271   9.961  18.306  0.00  0.00    +0.000 N 
ATOM     10  N   UNL     1       0.078  12.114  19.225  0.00  0.00    +0.000 NA
ATOM     11  C   UNL     1      -0.598  13.313  19.566  0.00  0.00    +0.000 A 
ATOM     12  C   UNL     1       0.123  14.510  19.523  0.00  0.00    +0.000 A 
ATOM     13  C   UNL     1      -0.466  15.711  19.930  0.00  0.00    +0.000 A 
ATOM     14  C   UNL     1      -1.761  15.676  20.410  0.00  0.00    +0.000 A 
ATOM     15  N   UNL     1      -2.494  14.548  20.489  0.00  0.00    +0.000 NA
ATOM     16  C   UNL     1      -1.914  13.398  20.054  0.00  0.00    +0.000 A 
ATOM     17  N   UNL     1      -2.780  12.288  20.012  0.00  0.00    +0.000 N 
ATOM     18  H   UNL     1      -0.258   9.146  18.010  0.00  0.00    +0.000 HD
ATOM     19  H   UNL     1      -3.653  12.639  20.396  0.00  0.00    +0.000 HD
ENDROOT
BRANCH   9  20
ATOM     20  C   UNL     1       1.570   9.645  18.918  0.00  0.00    +0.000 C 
ATOM     21  C   UNL     1       2.625   9.325  17.845  0.00  0.00    +0.000 C 
ATOM     22  C   UNL     1       2.855   7.842  17.539  0.00  0.00    +0.000 C 
ATOM     23  N   UNL     1       2.962   7.039  18.764  0.00  0.00    +0.000 NA
ATOM     24  C   UNL     1       1.686   7.129  19.488  0.00  0.00    +0.000 C 
ATOM     25  C   UNL     1       1.435   8.555  19.984  0.00  0.00    +0.000 C 
BRANCH  23  26
ATOM     26  C   UNL     1       3.299   5.621  18.480  0.00  0.00    +0.000 C 
BRANCH  26  27
ATOM     27  C   UNL     1       2.536   4.617  19.328  0.00  0.00    +0.000 A 
ATOM     28  C   UNL     1       1.482   3.868  18.785  0.00  0.00    +0.000 A 
ATOM     29  C   UNL     1       0.737   2.999  19.586  0.00  0.00    +0.000 A 
ATOM     30  C   UNL     1       1.045   2.857  20.939  0.00  0.00    +0.000 A 
ATOM     31  C   UNL     1       2.119   3.557  21.480  0.00  0.00    +0.000 A 
ATOM     32  C   UNL     1       2.865   4.428  20.680  0.00  0.00    +0.000 A 
ENDBRANCH  26  27
ENDBRANCH  23  26
ENDBRANCH   9  20
TORSDOF 3
ENDMDL
MODEL 8
REMARK VINA RESULT:      -8.0      1.464      2.329
REMARK  Name = 
REMARK  4 active torsions:
REMARK  status: ('A' for Active; 'I' for Inactive)
REMARK    1  A    between atoms: C_1  and  C_2
REMARK    2  A    between atoms: N_9  and  C_10
REMARK    3  A    between atoms: N_13  and  C_14
REMARK    4  A    between atoms: C_14  and  C_15
REMARK                            x       y       z     vdW  Elec       q    Type
REMARK                         _______ _______ _______ _____ _____    ______ ____
ROOT
ATOM      1  C   UNL     1       1.439   2.527  21.735  0.00  0.00    +0.000 C 
ATOM      2  C   UNL     1       1.912   2.969  20.382  0.00  0.00    +0.000 A 
ATOM      3  C   UNL     1       2.032   2.053  19.336  0.00  0.00    +0.000 A 
ATOM      4  C   UNL     1       2.498   2.467  18.088  0.00  0.00    +0.000 A 
ATOM      5  C   UNL     1       2.859   3.806  17.861  0.00  0.00    +0.000 A 
ATOM      6  C   UNL     1       2.700   4.742  18.896  0.00  0.00    +0.000 A 
ATOM      7  C   UNL     1       2.239   4.314  20.154  0.00  0.00    +0.000 A 
ATOM      8  C   UNL     1       2.993   6.211  18.703  0.00  0.00    +0.000 C 
ATOM      9  N   UNL     1       2.072   7.100  19.271  0.00  0.00    +0.000 N 
ATOM     10  N   UNL     1       4.044   6.667  18.071  0.00  0.00    +0.000 NA
ATOM     11  C   UNL     1       5.010   5.847  17.434  0.00  0.00    +0.000 A 
ATOM     12  C   UNL     1       6.351   6.241  17.495  0.00  0.00    +0.000 A 
ATOM     13  C   UNL     1       7.336   5.521  16.815  0.00  0.00    +0.000 A 
ATOM     14  C   UNL     1       6.947   4.436  16.053  0.00  0.00    +0.000 A 
ATOM     15  N   UNL     1       5.668   4.025  15.946  0.00  0.00    +0.000 NA
ATOM     16  C   UNL     1       4.731   4.718  16.645  0.00  0.00    +0.000 A 
ATOM     17  N   UNL     1       3.444   4.146  16.620  0.00  0.00    +0.000 N 
ATOM     18  H   UNL     1       1.171   6.712  19.534  0.00  0.00    +0.000 HD
ATOM     19  H   UNL     1       3.539   3.346  16.002  0.00  0.00    +0.000 HD
ENDROOT
BRANCH   9  20
ATOM     20  C   UNL     1       2.054   8.550  19.026  0.00  0.00    +0.000 C 
ATOM     21  C   UNL     1       1.597   9.319  20.276  0.00  0.00    +0.000 C 
ATOM     22  C   UNL     1       0.116   9.710  20.331  0.00  0.00    +0.000 C 
ATOM     23  N   UNL     1      -0.349  10.275  19.058  0.00  0.00    +0.000 NA
ATOM     24  C   UNL     1      -0.222   9.244  18.019  0.00  0.00    +0.000 C 
ATOM     25  C   UNL     1       1.248   8.894  17.770  0.00  0.00    +0.000 C 
BRANCH  23  26
ATOM     26  C   UNL     1      -1.749  10.763  19.137  0.00  0.00    +0.000 C 
BRANCH  26  27
ATOM     27  C   UNL     1      -2.481  10.776  17.806  0.00  0.00    +0.000 A 
ATOM     28  C   UNL     1      -3.680  11.487  17.648  0.00  0.00    +0.000 A 
ATOM     29  C   UNL     1      -4.386  11.438  16.444  0.00  0.00    +0.000 A 
ATOM     30  C   UNL     1      -3.897  10.686  15.376  0.00  0.00    +0.000 A 
ATOM     31  C   UNL     1      -2.685  10.015  15.501  0.00  0.00    +0.000 A 
ATOM     32  C   UNL     1      -1.977  10.063  16.706  0.00  0.00    +0.000 A 
ENDBRANCH  26  27
ENDBRANCH  23  26
ENDBRANCH   9  20
TORSDOF 3
ENDMDL
MODEL 9
REMARK VINA RESULT:      -7.7      2.671     10.369
REMARK  Name = 
REMARK  4 active torsions:
REMARK  status: ('A' for Active; 'I' for Inactive)
REMARK    1  A    between atoms: C_1  and  C_2
REMARK    2  A    between atoms: N_9  and  C_10
REMARK    3  A    between atoms: N_13  and  C_14
REMARK    4  A    between atoms: C_14  and  C_15
REMARK                            x       y       z     vdW  Elec       q    Type
REMARK                         _______ _______ _______ _____ _____    ______ ____
ROOT
ATOM      1  C   UNL     1       4.122  15.615  18.374  0.00  0.00    +0.000 C 
ATOM      2  C   UNL     1       2.664  15.554  18.721  0.00  0.00    +0.000 A 
ATOM      3  C   UNL     1       1.866  16.698  18.648  0.00  0.00    +0.000 A 
ATOM      4  C   UNL     1       0.518  16.638  18.997  0.00  0.00    +0.000 A 
ATOM      5  C   UNL     1      -0.062  15.435  19.432  0.00  0.00    +0.000 A 
ATOM      6  C   UNL     1       0.723  14.270  19.467  0.00  0.00    +0.000 A 
ATOM      7  C   UNL     1       2.084  14.341  19.123  0.00  0.00    +0.000 A 
ATOM      8  C   UNL     1       0.150  12.926  19.849  0.00  0.00    +0.000 C 
ATOM      9  N   UNL     1       0.568  11.839  19.071  0.00  0.00    +0.000 N 
ATOM     10  N   UNL     1      -0.669  12.742  20.852  0.00  0.00    +0.000 NA
ATOM     11  C   UNL     1      -1.173  13.784  21.672  0.00  0.00    +0.000 A 
ATOM     12  C   UNL     1      -1.336  13.527  23.037  0.00  0.00    +0.000 A 
ATOM     13  C   UNL     1      -1.908  14.484  23.879  0.00  0.00    +0.000 A 
ATOM     14  C   UNL     1      -2.342  15.671  23.322  0.00  0.00    +0.000 A 
ATOM     15  N   UNL     1      -2.225  15.962  22.011  0.00  0.00    +0.000 NA
ATOM     16  C   UNL     1      -1.634  15.032  21.217  0.00  0.00    +0.000 A 
ATOM     17  N   UNL     1      -1.397  15.457  19.895  0.00  0.00    +0.000 N 
ATOM     18  H   UNL     1       1.000  12.059  18.179  0.00  0.00    +0.000 HD
ATOM     19  H   UNL     1      -1.808  16.386  19.856  0.00  0.00    +0.000 HD
ENDROOT
BRANCH   9  20
ATOM     20  C   UNL     1      -0.022  10.493  19.138  0.00  0.00    +0.000 C 
ATOM     21  C   UNL     1       0.276   9.824  20.490  0.00  0.00    +0.000 C 
ATOM     22  C   UNL     1       1.474   8.870  20.528  0.00  0.00    +0.000 C 
ATOM     23  N   UNL     1       1.486   7.959  19.375  0.00  0.00    +0.000 NA
ATOM     24  C   UNL     1       1.623   8.762  18.152  0.00  0.00    +0.000 C 
ATOM     25  C   UNL     1       0.390   9.642  17.933  0.00  0.00    +0.000 C 
BRANCH  23  26
ATOM     26  C   UNL     1       2.577   6.956  19.462  0.00  0.00    +0.000 C 
BRANCH  26  27
ATOM     27  C   UNL     1       2.104   5.514  19.406  0.00  0.00    +0.000 A 
ATOM     28  C   UNL     1       2.079   4.810  18.192  0.00  0.00    +0.000 A 
ATOM     29  C   UNL     1       1.576   3.508  18.132  0.00  0.00    +0.000 A 
ATOM     30  C   UNL     1       1.103   2.887  19.287  0.00  0.00    +0.000 A 
ATOM     31  C   UNL     1       1.166   3.554  20.507  0.00  0.00    +0.000 A 
ATOM     32  C   UNL     1       1.669   4.858  20.568  0.00  0.00    +0.000 A 
ENDBRANCH  26  27
ENDBRANCH  23  26
ENDBRANCH   9  20
TORSDOF 3
ENDMDL
