MODEL 1
REMARK VINA RESULT:      -6.7      0.000      0.000
REMARK  Name = 
REMARK  7 active torsions:
REMARK  status: ('A' for Active; 'I' for Inactive)
REMARK    1  A    between atoms: C_2  and  C_3
REMARK    2  A    between atoms: C_3  and  N_4
REMARK    3  A    between atoms: C_5  and  S_6
REMARK    4  A    between atoms: N_7  and  N_8
REMARK    5  A    between atoms: C_9  and  C_11
REMARK    6  A    between atoms: C_17  and  O_18
REMARK    7  A    between atoms: O_18  and  C_19
REMARK                            x       y       z     vdW  Elec       q    Type
REMARK                         _______ _______ _______ _____ _____    ______ ____
ROOT
ATOM      1  N   UNL     1       4.644   5.930  16.870  0.00  0.00    +0.000 N 
ATOM      2  C   UNL     1       3.790   4.909  17.266  0.00  0.00    +0.000 C 
ATOM      3  O   UNL     1       3.648   3.849  16.672  0.00  0.00    +0.000 OA
ATOM      4  H   UNL     1       4.690   6.830  17.335  0.00  0.00    +0.000 HD
ENDROOT
BRANCH   2   5
ATOM      5  C   UNL     1       2.968   5.205  18.477  0.00  0.00    +0.000 A 
ATOM      6  C   UNL     1       2.601   4.116  19.294  0.00  0.00    +0.000 A 
ATOM      7  C   UNL     1       1.921   4.322  20.494  0.00  0.00    +0.000 A 
ATOM      8 CL   UNL     1       1.510   2.976  21.481  0.00  0.00    +0.000 Cl
ATOM      9  C   UNL     1       1.603   5.608  20.909  0.00  0.00    +0.000 A 
ATOM     10  C   UNL     1       1.970   6.694  20.113  0.00  0.00    +0.000 A 
ATOM     11  C   UNL     1       2.644   6.510  18.893  0.00  0.00    +0.000 A 
BRANCH  11  12
ATOM     12  O   UNL     1       2.992   7.692  18.299  0.00  0.00    +0.000 OA
ATOM     13  C   UNL     1       1.932   8.567  17.929  0.00  0.00    +0.000 C 
ENDBRANCH  11  12
ENDBRANCH   2   5
BRANCH   1  16
ATOM     14  N   UNL     1       7.552   5.031  15.004  0.00  0.00    +0.000 N 
ATOM     15  C   UNL     1       6.677   5.320  16.003  0.00  0.00    +0.000 C 
ATOM     16  N   UNL     1       5.468   5.755  15.794  0.00  0.00    +0.000 NA
ATOM     17  H   UNL     1       8.535   4.922  15.210  0.00  0.00    +0.000 HD
BRANCH  15  18
ATOM     18  S   UNL     1       7.320   5.060  17.621  0.00  0.00    +0.000 S 
ATOM     19  H   UNL     1       6.514   4.049  17.962  0.00  0.00    +0.000 HD
ENDBRANCH  15  18
BRANCH  14  20
ATOM     20  C   UNL     1       7.186   4.991  13.611  0.00  0.00    +0.000 C 
BRANCH  20  22
ATOM     21  C   UNL     1       5.844   3.329  12.272  0.00  0.00    +0.000 C 
ATOM     22  C   UNL     1       6.359   3.751  13.431  0.00  0.00    +0.000 C 
ENDBRANCH  20  22
ENDBRANCH  14  20
ENDBRANCH   1  16
TORSDOF 6
ENDMDL
MODEL 2
REMARK VINA RESULT:      -6.5      3.309      6.569
REMARK  Name = 
REMARK  7 active torsions:
REMARK  status: ('A' for Active; 'I' for Inactive)
REMARK    1  A    between atoms: C_2  and  C_3
REMARK    2  A    between atoms: C_3  and  N_4
REMARK    3  A    between atoms: C_5  and  S_6
REMARK    4  A    between atoms: N_7  and  N_8
REMARK    5  A    between atoms: C_9  and  C_11
REMARK    6  A    between atoms: C_17  and  O_18
REMARK    7  A    between atoms: O_18  and  C_19
REMARK                            x       y       z     vdW  Elec       q    Type
REMARK                         _______ _______ _______ _____ _____    ______ ____
ROOT
ATOM      1  N   UNL     1       4.865   4.962  18.140  0.00  0.00    +0.000 N 
ATOM      2  C   UNL     1       4.872   3.937  17.203  0.00  0.00    +0.000 C 
ATOM      3  O   UNL     1       4.269   2.879  17.322  0.00  0.00    +0.000 OA
ATOM      4  H   UNL     1       5.432   5.798  18.055  0.00  0.00    +0.000 HD
ENDROOT
BRANCH   2   5
ATOM      5  C   UNL     1       5.739   4.175  16.010  0.00  0.00    +0.000 A 
ATOM      6  C   UNL     1       5.276   3.700  14.766  0.00  0.00    +0.000 A 
ATOM      7  C   UNL     1       5.978   3.971  13.593  0.00  0.00    +0.000 A 
ATOM      8 CL   UNL     1       5.374   3.400  12.088  0.00  0.00    +0.000 Cl
ATOM      9  C   UNL     1       7.144   4.724  13.631  0.00  0.00    +0.000 A 
ATOM     10  C   UNL     1       7.606   5.208  14.855  0.00  0.00    +0.000 A 
ATOM     11  C   UNL     1       6.922   4.936  16.053  0.00  0.00    +0.000 A 
BRANCH  11  12
ATOM     12  O   UNL     1       7.479   5.564  17.133  0.00  0.00    +0.000 OA
ATOM     13  C   UNL     1       7.407   6.985  17.163  0.00  0.00    +0.000 C 
ENDBRANCH  11  12
ENDBRANCH   2   5
BRANCH   1  16
ATOM     14  N   UNL     1       2.229   5.680  20.438  0.00  0.00    +0.000 N 
ATOM     15  C   UNL     1       3.121   5.730  19.413  0.00  0.00    +0.000 C 
ATOM     16  N   UNL     1       4.081   4.866  19.255  0.00  0.00    +0.000 NA
ATOM     17  H   UNL     1       1.658   6.486  20.650  0.00  0.00    +0.000 HD
BRANCH  15  18
ATOM     18  S   UNL     1       2.872   7.078  18.308  0.00  0.00    +0.000 S 
ATOM     19  H   UNL     1       3.056   6.399  17.171  0.00  0.00    +0.000 HD
ENDBRANCH  15  18
BRANCH  14  20
ATOM     20  C   UNL     1       2.126   4.569  21.350  0.00  0.00    +0.000 C 
BRANCH  20  22
ATOM     21  C   UNL     1       1.427   2.515  20.066  0.00  0.00    +0.000 C 
ATOM     22  C   UNL     1       1.127   3.624  20.748  0.00  0.00    +0.000 C 
ENDBRANCH  20  22
ENDBRANCH  14  20
ENDBRANCH   1  16
TORSDOF 6
ENDMDL
MODEL 3
REMARK VINA RESULT:      -6.4      1.488      2.534
REMARK  Name = 
REMARK  7 active torsions:
REMARK  status: ('A' for Active; 'I' for Inactive)
REMARK    1  A    between atoms: C_2  and  C_3
REMARK    2  A    between atoms: C_3  and  N_4
REMARK    3  A    between atoms: C_5  and  S_6
REMARK    4  A    between atoms: N_7  and  N_8
REMARK    5  A    between atoms: C_9  and  C_11
REMARK    6  A    between atoms: C_17  and  O_18
REMARK    7  A    between atoms: O_18  and  C_19
REMARK                            x       y       z     vdW  Elec       q    Type
REMARK                         _______ _______ _______ _____ _____    ______ ____
ROOT
ATOM      1  N   UNL     1       4.610   4.849  16.829  0.00  0.00    +0.000 N 
ATOM      2  C   UNL     1       4.046   5.951  17.457  0.00  0.00    +0.000 C 
ATOM      3  O   UNL     1       4.225   7.113  17.120  0.00  0.00    +0.000 OA
ATOM      4  H   UNL     1       4.507   3.899  17.172  0.00  0.00    +0.000 HD
ENDROOT
BRANCH   2   5
ATOM      5  C   UNL     1       3.214   5.639  18.658  0.00  0.00    +0.000 A 
ATOM      6  C   UNL     1       2.637   6.725  19.347  0.00  0.00    +0.000 A 
ATOM      7  C   UNL     1       1.768   6.511  20.416  0.00  0.00    +0.000 A 
ATOM      8 CL   UNL     1       1.060   7.856  21.220  0.00  0.00    +0.000 Cl
ATOM      9  C   UNL     1       1.446   5.220  20.811  0.00  0.00    +0.000 A 
ATOM     10  C   UNL     1       2.003   4.138  20.129  0.00  0.00    +0.000 A 
ATOM     11  C   UNL     1       2.893   4.329  19.058  0.00  0.00    +0.000 A 
BRANCH  11  12
ATOM     12  O   UNL     1       3.265   3.154  18.465  0.00  0.00    +0.000 OA
ATOM     13  C   UNL     1       2.224   2.339  17.936  0.00  0.00    +0.000 C 
ENDBRANCH  11  12
ENDBRANCH   2   5
BRANCH   1  16
ATOM     14  N   UNL     1       7.496   4.973  14.730  0.00  0.00    +0.000 N 
ATOM     15  C   UNL     1       6.657   4.911  15.799  0.00  0.00    +0.000 C 
ATOM     16  N   UNL     1       5.363   5.014  15.700  0.00  0.00    +0.000 NA
ATOM     17  H   UNL     1       8.485   5.121  14.874  0.00  0.00    +0.000 HD
BRANCH  15  18
ATOM     18  S   UNL     1       7.472   4.683  17.342  0.00  0.00    +0.000 S 
ATOM     19  H   UNL     1       8.417   3.841  16.910  0.00  0.00    +0.000 HD
ENDBRANCH  15  18
BRANCH  14  20
ATOM     20  C   UNL     1       7.045   4.969  13.362  0.00  0.00    +0.000 C 
BRANCH  20  22
ATOM     21  C   UNL     1       5.626   3.315  12.096  0.00  0.00    +0.000 C 
ATOM     22  C   UNL     1       6.402   3.632  13.137  0.00  0.00    +0.000 C 
ENDBRANCH  20  22
ENDBRANCH  14  20
ENDBRANCH   1  16
TORSDOF 6
ENDMDL
MODEL 4
REMARK VINA RESULT:      -6.4      1.705      2.604
REMARK  Name = 
REMARK  7 active torsions:
REMARK  status: ('A' for Active; 'I' for Inactive)
REMARK    1  A    between atoms: C_2  and  C_3
REMARK    2  A    between atoms: C_3  and  N_4
REMARK    3  A    between atoms: C_5  and  S_6
REMARK    4  A    between atoms: N_7  and  N_8
REMARK    5  A    between atoms: C_9  and  C_11
REMARK    6  A    between atoms: C_17  and  O_18
REMARK    7  A    between atoms: O_18  and  C_19
REMARK                            x       y       z     vdW  Elec       q    Type
REMARK                         _______ _______ _______ _____ _____    ______ ____
ROOT
ATOM      1  N   UNL     1       4.825   5.859  17.054  0.00  0.00    +0.000 N 
ATOM      2  C   UNL     1       3.876   4.913  17.418  0.00  0.00    +0.000 C 
ATOM      3  O   UNL     1       3.583   3.928  16.754  0.00  0.00    +0.000 OA
ATOM      4  H   UNL     1       4.998   6.707  17.584  0.00  0.00    +0.000 HD
ENDROOT
BRANCH   2   5
ATOM      5  C   UNL     1       3.154   5.198  18.694  0.00  0.00    +0.000 A 
ATOM      6  C   UNL     1       2.736   6.526  18.920  0.00  0.00    +0.000 A 
ATOM      7  C   UNL     1       1.969   6.851  20.038  0.00  0.00    +0.000 A 
ATOM      8 CL   UNL     1       1.454   8.475  20.273  0.00  0.00    +0.000 Cl
ATOM      9  C   UNL     1       1.595   5.868  20.943  0.00  0.00    +0.000 A 
ATOM     10  C   UNL     1       1.994   4.549  20.723  0.00  0.00    +0.000 A 
ATOM     11  C   UNL     1       2.779   4.200  19.611  0.00  0.00    +0.000 A 
BRANCH  11  12
ATOM     12  O   UNL     1       2.996   2.852  19.522  0.00  0.00    +0.000 OA
ATOM     13  C   UNL     1       4.229   2.360  20.036  0.00  0.00    +0.000 C 
ENDBRANCH  11  12
ENDBRANCH   2   5
BRANCH   1  16
ATOM     14  N   UNL     1       7.540   4.844  14.970  0.00  0.00    +0.000 N 
ATOM     15  C   UNL     1       6.749   5.143  16.035  0.00  0.00    +0.000 C 
ATOM     16  N   UNL     1       5.570   5.682  15.922  0.00  0.00    +0.000 NA
ATOM     17  H   UNL     1       8.521   4.647  15.111  0.00  0.00    +0.000 HD
BRANCH  15  18
ATOM     18  S   UNL     1       7.458   4.742  17.595  0.00  0.00    +0.000 S 
ATOM     19  H   UNL     1       8.158   3.676  17.192  0.00  0.00    +0.000 HD
ENDBRANCH  15  18
BRANCH  14  20
ATOM     20  C   UNL     1       7.095   4.912  13.602  0.00  0.00    +0.000 C 
BRANCH  20  22
ATOM     21  C   UNL     1       5.802   3.275  12.186  0.00  0.00    +0.000 C 
ATOM     22  C   UNL     1       6.255   3.689  13.373  0.00  0.00    +0.000 C 
ENDBRANCH  20  22
ENDBRANCH  14  20
ENDBRANCH   1  16
TORSDOF 6
ENDMDL
MODEL 5
REMARK VINA RESULT:      -6.4      4.261      7.591
REMARK  Name = 
REMARK  7 active torsions:
REMARK  status: ('A' for Active; 'I' for Inactive)
REMARK    1  A    between atoms: C_2  and  C_3
REMARK    2  A    between atoms: C_3  and  N_4
REMARK    3  A    between atoms: C_5  and  S_6
REMARK    4  A    between atoms: N_7  and  N_8
REMARK    5  A    between atoms: C_9  and  C_11
REMARK    6  A    between atoms: C_17  and  O_18
REMARK    7  A    between atoms: O_18  and  C_19
REMARK                            x       y       z     vdW  Elec       q    Type
REMARK                         _______ _______ _______ _____ _____    ______ ____
ROOT
ATOM      1  N   UNL     1       2.275   7.203  19.956  0.00  0.00    +0.000 N 
ATOM      2  C   UNL     1       2.286   5.815  20.000  0.00  0.00    +0.000 C 
ATOM      3  O   UNL     1       1.733   5.141  20.858  0.00  0.00    +0.000 OA
ATOM      4  H   UNL     1       2.803   7.743  19.278  0.00  0.00    +0.000 HD
ENDROOT
BRANCH   2   5
ATOM      5  C   UNL     1       3.093   5.154  18.931  0.00  0.00    +0.000 A 
ATOM      6  C   UNL     1       4.482   5.395  18.924  0.00  0.00    +0.000 A 
ATOM      7  C   UNL     1       5.315   4.735  18.022  0.00  0.00    +0.000 A 
ATOM      8 CL   UNL     1       7.009   5.031  18.054  0.00  0.00    +0.000 Cl
ATOM      9  C   UNL     1       4.790   3.819  17.121  0.00  0.00    +0.000 A 
ATOM     10  C   UNL     1       3.418   3.565  17.127  0.00  0.00    +0.000 A 
ATOM     11  C   UNL     1       2.556   4.229  18.017  0.00  0.00    +0.000 A 
BRANCH  11  12
ATOM     12  O   UNL     1       1.264   3.786  17.930  0.00  0.00    +0.000 OA
ATOM     13  C   UNL     1       0.950   2.571  18.602  0.00  0.00    +0.000 C 
ENDBRANCH  11  12
ENDBRANCH   2   5
BRANCH   1  16
ATOM     14  N   UNL     1       0.124   9.735  21.263  0.00  0.00    +0.000 N 
ATOM     15  C   UNL     1       0.946   8.998  20.468  0.00  0.00    +0.000 C 
ATOM     16  N   UNL     1       1.542   7.912  20.865  0.00  0.00    +0.000 NA
ATOM     17  H   UNL     1      -0.125  10.677  20.995  0.00  0.00    +0.000 HD
BRANCH  15  18
ATOM     18  S   UNL     1       1.144   9.644  18.843  0.00  0.00    +0.000 S 
ATOM     19  H   UNL     1       0.791  10.904  19.118  0.00  0.00    +0.000 HD
ENDBRANCH  15  18
BRANCH  14  20
ATOM     20  C   UNL     1      -0.327   9.302  22.560  0.00  0.00    +0.000 C 
BRANCH  20  22
ATOM     21  C   UNL     1      -1.101  11.700  22.634  0.00  0.00    +0.000 C 
ATOM     22  C   UNL     1      -0.993  10.491  23.191  0.00  0.00    +0.000 C 
ENDBRANCH  20  22
ENDBRANCH  14  20
ENDBRANCH   1  16
TORSDOF 6
ENDMDL
MODEL 6
REMARK VINA RESULT:      -6.2      3.411      6.700
REMARK  Name = 
REMARK  7 active torsions:
REMARK  status: ('A' for Active; 'I' for Inactive)
REMARK    1  A    between atoms: C_2  and  C_3
REMARK    2  A    between atoms: C_3  and  N_4
REMARK    3  A    between atoms: C_5  and  S_6
REMARK    4  A    between atoms: N_7  and  N_8
REMARK    5  A    between atoms: C_9  and  C_11
REMARK    6  A    between atoms: C_17  and  O_18
REMARK    7  A    between atoms: O_18  and  C_19
REMARK                            x       y       z     vdW  Elec       q    Type
REMARK                         _______ _______ _______ _____ _____    ______ ____
ROOT
ATOM      1  N   UNL     1       3.704   4.153  17.214  0.00  0.00    +0.000 N 
ATOM      2  C   UNL     1       5.077   4.024  17.380  0.00  0.00    +0.000 C 
ATOM      3  O   UNL     1       5.630   3.787  18.445  0.00  0.00    +0.000 OA
ATOM      4  H   UNL     1       3.273   4.424  16.337  0.00  0.00    +0.000 HD
ENDROOT
BRANCH   2   5
ATOM      5  C   UNL     1       5.889   4.258  16.149  0.00  0.00    +0.000 A 
ATOM      6  C   UNL     1       5.405   3.718  14.940  0.00  0.00    +0.000 A 
ATOM      7  C   UNL     1       6.053   3.979  13.733  0.00  0.00    +0.000 A 
ATOM      8 CL   UNL     1       5.424   3.327  12.272  0.00  0.00    +0.000 Cl
ATOM      9  C   UNL     1       7.183   4.785  13.702  0.00  0.00    +0.000 A 
ATOM     10  C   UNL     1       7.664   5.333  14.892  0.00  0.00    +0.000 A 
ATOM     11  C   UNL     1       7.036   5.073  16.122  0.00  0.00    +0.000 A 
BRANCH  11  12
ATOM     12  O   UNL     1       7.601   5.764  17.159  0.00  0.00    +0.000 OA
ATOM     13  C   UNL     1       7.149   7.097  17.370  0.00  0.00    +0.000 C 
ENDBRANCH  11  12
ENDBRANCH   2   5
BRANCH   1  16
ATOM     14  N   UNL     1       1.429   4.847  19.877  0.00  0.00    +0.000 N 
ATOM     15  C   UNL     1       2.343   4.953  18.875  0.00  0.00    +0.000 C 
ATOM     16  N   UNL     1       2.862   3.927  18.266  0.00  0.00    +0.000 NA
ATOM     17  H   UNL     1       1.233   5.643  20.467  0.00  0.00    +0.000 HD
BRANCH  15  18
ATOM     18  S   UNL     1       2.774   6.611  18.467  0.00  0.00    +0.000 S 
ATOM     19  H   UNL     1       2.206   7.198  19.526  0.00  0.00    +0.000 HD
ENDBRANCH  15  18
BRANCH  14  20
ATOM     20  C   UNL     1       0.796   3.608  20.248  0.00  0.00    +0.000 C 
BRANCH  20  22
ATOM     21  C   UNL     1       2.600   2.507  21.623  0.00  0.00    +0.000 C 
ATOM     22  C   UNL     1       1.445   3.172  21.530  0.00  0.00    +0.000 C 
ENDBRANCH  20  22
ENDBRANCH  14  20
ENDBRANCH   1  16
TORSDOF 6
ENDMDL
MODEL 7
REMARK VINA RESULT:      -6.2      2.327      3.083
REMARK  Name = 
REMARK  7 active torsions:
REMARK  status: ('A' for Active; 'I' for Inactive)
REMARK    1  A    between atoms: C_2  and  C_3
REMARK    2  A    between atoms: C_3  and  N_4
REMARK    3  A    between atoms: C_5  and  S_6
REMARK    4  A    between atoms: N_7  and  N_8
REMARK    5  A    between atoms: C_9  and  C_11
REMARK    6  A    between atoms: C_17  and  O_18
REMARK    7  A    between atoms: O_18  and  C_19
REMARK                            x       y       z     vdW  Elec       q    Type
REMARK                         _______ _______ _______ _____ _____    ______ ____
ROOT
ATOM      1  N   UNL     1       4.320   6.520  17.236  0.00  0.00    +0.000 N 
ATOM      2  C   UNL     1       3.167   6.043  17.844  0.00  0.00    +0.000 C 
ATOM      3  O   UNL     1       2.652   4.959  17.608  0.00  0.00    +0.000 OA
ATOM      4  H   UNL     1       4.688   7.452  17.393  0.00  0.00    +0.000 HD
ENDROOT
BRANCH   2   5
ATOM      5  C   UNL     1       2.522   6.985  18.806  0.00  0.00    +0.000 A 
ATOM      6  C   UNL     1       2.176   8.265  18.328  0.00  0.00    +0.000 A 
ATOM      7  C   UNL     1       1.480   9.164  19.134  0.00  0.00    +0.000 A 
ATOM      8 CL   UNL     1       1.050  10.709  18.513  0.00  0.00    +0.000 Cl
ATOM      9  C   UNL     1       1.106   8.808  20.423  0.00  0.00    +0.000 A 
ATOM     10  C   UNL     1       1.434   7.540  20.903  0.00  0.00    +0.000 A 
ATOM     11  C   UNL     1       2.148   6.621  20.113  0.00  0.00    +0.000 A 
BRANCH  11  12
ATOM     12  O   UNL     1       2.300   5.407  20.724  0.00  0.00    +0.000 OA
ATOM     13  C   UNL     1       1.223   4.483  20.604  0.00  0.00    +0.000 C 
ENDBRANCH  11  12
ENDBRANCH   2   5
BRANCH   1  16
ATOM     14  N   UNL     1       7.102   4.959  15.631  0.00  0.00    +0.000 N 
ATOM     15  C   UNL     1       6.313   5.763  16.394  0.00  0.00    +0.000 C 
ATOM     16  N   UNL     1       5.013   5.728  16.363  0.00  0.00    +0.000 NA
ATOM     17  H   UNL     1       8.082   5.177  15.517  0.00  0.00    +0.000 HD
BRANCH  15  18
ATOM     18  S   UNL     1       7.204   6.870  17.433  0.00  0.00    +0.000 S 
ATOM     19  H   UNL     1       8.368   6.211  17.422  0.00  0.00    +0.000 HD
ENDBRANCH  15  18
BRANCH  14  20
ATOM     20  C   UNL     1       6.599   3.858  14.851  0.00  0.00    +0.000 C 
BRANCH  20  22
ATOM     21  C   UNL     1       6.342   3.541  12.363  0.00  0.00    +0.000 C 
ATOM     22  C   UNL     1       6.652   4.301  13.418  0.00  0.00    +0.000 C 
ENDBRANCH  20  22
ENDBRANCH  14  20
ENDBRANCH   1  16
TORSDOF 6
ENDMDL
MODEL 8
REMARK VINA RESULT:      -6.1      0.784      1.172
REMARK  Name = 
REMARK  7 active torsions:
REMARK  status: ('A' for Active; 'I' for Inactive)
REMARK    1  A    between atoms: C_2  and  C_3
REMARK    2  A    between atoms: C_3  and  N_4
REMARK    3  A    between atoms: C_5  and  S_6
REMARK    4  A    between atoms: N_7  and  N_8
REMARK    5  A    between atoms: C_9  and  C_11
REMARK    6  A    between atoms: C_17  and  O_18
REMARK    7  A    between atoms: O_18  and  C_19
REMARK                            x       y       z     vdW  Elec       q    Type
REMARK                         _______ _______ _______ _____ _____    ______ ____
ROOT
ATOM      1  N   UNL     1       4.358   5.428  16.706  0.00  0.00    +0.000 N 
ATOM      2  C   UNL     1       3.907   4.370  17.484  0.00  0.00    +0.000 C 
ATOM      3  O   UNL     1       4.135   3.191  17.255  0.00  0.00    +0.000 OA
ATOM      4  H   UNL     1       4.095   6.394  16.872  0.00  0.00    +0.000 HD
ENDROOT
BRANCH   2   5
ATOM      5  C   UNL     1       3.040   4.756  18.637  0.00  0.00    +0.000 A 
ATOM      6  C   UNL     1       2.595   3.724  19.488  0.00  0.00    +0.000 A 
ATOM      7  C   UNL     1       1.868   4.014  20.641  0.00  0.00    +0.000 A 
ATOM      8 CL   UNL     1       1.361   2.735  21.673  0.00  0.00    +0.000 Cl
ATOM      9  C   UNL     1       1.578   5.330  20.976  0.00  0.00    +0.000 A 
ATOM     10  C   UNL     1       2.022   6.360  20.146  0.00  0.00    +0.000 A 
ATOM     11  C   UNL     1       2.745   6.090  18.971  0.00  0.00    +0.000 A 
BRANCH  11  12
ATOM     12  O   UNL     1       3.165   7.228  18.338  0.00  0.00    +0.000 OA
ATOM     13  C   UNL     1       2.218   8.283  18.208  0.00  0.00    +0.000 C 
ENDBRANCH  11  12
ENDBRANCH   2   5
BRANCH   1  16
ATOM     14  N   UNL     1       7.381   5.175  14.823  0.00  0.00    +0.000 N 
ATOM     15  C   UNL     1       6.456   5.447  15.782  0.00  0.00    +0.000 C 
ATOM     16  N   UNL     1       5.186   5.194  15.644  0.00  0.00    +0.000 NA
ATOM     17  H   UNL     1       8.299   5.592  14.876  0.00  0.00    +0.000 HD
BRANCH  15  18
ATOM     18  S   UNL     1       7.121   6.181  17.237  0.00  0.00    +0.000 S 
ATOM     19  H   UNL     1       7.040   7.454  16.834  0.00  0.00    +0.000 HD
ENDBRANCH  15  18
BRANCH  14  20
ATOM     20  C   UNL     1       7.097   4.411  13.636  0.00  0.00    +0.000 C 
BRANCH  20  22
ATOM     21  C   UNL     1       8.706   6.055  12.606  0.00  0.00    +0.000 C 
ATOM     22  C   UNL     1       7.718   5.162  12.494  0.00  0.00    +0.000 C 
ENDBRANCH  20  22
ENDBRANCH  14  20
ENDBRANCH   1  16
TORSDOF 6
ENDMDL
MODEL 9
REMARK VINA RESULT:      -6.1      1.126      1.250
REMARK  Name = 
REMARK  7 active torsions:
REMARK  status: ('A' for Active; 'I' for Inactive)
REMARK    1  A    between atoms: C_2  and  C_3
REMARK    2  A    between atoms: C_3  and  N_4
REMARK    3  A    between atoms: C_5  and  S_6
REMARK    4  A    between atoms: N_7  and  N_8
REMARK    5  A    between atoms: C_9  and  C_11
REMARK    6  A    between atoms: C_17  and  O_18
REMARK    7  A    between atoms: O_18  and  C_19
REMARK                            x       y       z     vdW  Elec       q    Type
REMARK                         _______ _______ _______ _____ _____    ______ ____
ROOT
ATOM      1  N   UNL     1       4.170   4.760  16.620  0.00  0.00    +0.000 N 
ATOM      2  C   UNL     1       3.095   4.044  17.130  0.00  0.00    +0.000 C 
ATOM      3  O   UNL     1       2.505   3.153  16.534  0.00  0.00    +0.000 OA
ATOM      4  H   UNL     1       4.596   5.544  17.102  0.00  0.00    +0.000 HD
ENDROOT
BRANCH   2   5
ATOM      5  C   UNL     1       2.635   4.471  18.485  0.00  0.00    +0.000 A 
ATOM      6  C   UNL     1       2.224   3.462  19.380  0.00  0.00    +0.000 A 
ATOM      7  C   UNL     1       1.877   3.772  20.694  0.00  0.00    +0.000 A 
ATOM      8 CL   UNL     1       1.405   2.515  21.768  0.00  0.00    +0.000 Cl
ATOM      9  C   UNL     1       1.941   5.082  21.147  0.00  0.00    +0.000 A 
ATOM     10  C   UNL     1       2.356   6.088  20.273  0.00  0.00    +0.000 A 
ATOM     11  C   UNL     1       2.697   5.801  18.940  0.00  0.00    +0.000 A 
BRANCH  11  12
ATOM     12  O   UNL     1       3.159   6.899  18.266  0.00  0.00    +0.000 OA
ATOM     13  C   UNL     1       2.271   8.006  18.148  0.00  0.00    +0.000 C 
ENDBRANCH  11  12
ENDBRANCH   2   5
BRANCH   1  16
ATOM     14  N   UNL     1       6.605   3.865  14.168  0.00  0.00    +0.000 N 
ATOM     15  C   UNL     1       5.984   4.272  15.307  0.00  0.00    +0.000 C 
ATOM     16  N   UNL     1       4.696   4.432  15.402  0.00  0.00    +0.000 NA
ATOM     17  H   UNL     1       7.604   3.977  14.071  0.00  0.00    +0.000 HD
BRANCH  15  18
ATOM     18  S   UNL     1       7.075   4.573  16.654  0.00  0.00    +0.000 S 
ATOM     19  H   UNL     1       8.217   4.528  15.959  0.00  0.00    +0.000 HD
ENDBRANCH  15  18
BRANCH  14  20
ATOM     20  C   UNL     1       5.903   3.386  13.005  0.00  0.00    +0.000 C 
BRANCH  20  22
ATOM     21  C   UNL     1       7.186   2.156  11.216  0.00  0.00    +0.000 C 
ATOM     22  C   UNL     1       6.929   3.266  11.915  0.00  0.00    +0.000 C 
ENDBRANCH  20  22
ENDBRANCH  14  20
ENDBRANCH   1  16
TORSDOF 6
ENDMDL
