MODEL 1
REMARK VINA RESULT:      -7.5      0.000      0.000
REMARK  Name = 
REMARK  10 active torsions:
REMARK  status: ('A' for Active; 'I' for Inactive)
REMARK    1  A    between atoms: C_1  and  C_2
REMARK    2  A    between atoms: C_2  and  C_3
REMARK    3  A    between atoms: C_3  and  C_4
REMARK    4  A    between atoms: C_4  and  C_5
REMARK    5  A    between atoms: C_5  and  C_6
REMARK    6  A    between atoms: C_6  and  C_7
REMARK    7  A    between atoms: C_7  and  C_8
REMARK    8  A    between atoms: C_8  and  N_9
REMARK    9  A    between atoms: C_11  and  C_12
REMARK   10  A    between atoms: C_12  and  N_13
REMARK                            x       y       z     vdW  Elec       q    Type
REMARK                         _______ _______ _______ _____ _____    ______ ____
ROOT
ATOM      1  N   UNL     1       3.889   4.632  17.282  0.00  0.00    +0.000 N 
ATOM      2  C   UNL     1       3.964   5.883  17.835  0.00  0.00    +0.000 A 
ATOM      3  C   UNL     1       3.058   5.966  18.875  0.00  0.00    +0.000 A 
ATOM      4  C   UNL     1       2.366   4.710  18.915  0.00  0.00    +0.000 A 
ATOM      5  C   UNL     1       1.338   4.175  19.718  0.00  0.00    +0.000 A 
ATOM      6  F   UNL     1       0.796   4.903  20.705  0.00  0.00    +0.000 F 
ATOM      7  C   UNL     1       0.858   2.883  19.503  0.00  0.00    +0.000 A 
ATOM      8  C   UNL     1       1.400   2.098  18.493  0.00  0.00    +0.000 A 
ATOM      9  C   UNL     1       2.437   2.583  17.691  0.00  0.00    +0.000 A 
ATOM     10  C   UNL     1       2.903   3.894  17.908  0.00  0.00    +0.000 A 
ENDROOT
BRANCH   1  11
ATOM     11  C   UNL     1       4.794   4.153  16.250  0.00  0.00    +0.000 C 
BRANCH  11  12
ATOM     12  C   UNL     1       6.168   4.810  16.294  0.00  0.00    +0.000 C 
BRANCH  12  13
ATOM     13  C   UNL     1       6.924   4.590  14.987  0.00  0.00    +0.000 C 
BRANCH  13  14
ATOM     14  C   UNL     1       6.046   3.845  13.982  0.00  0.00    +0.000 C 
BRANCH  14  15
ATOM     15  C   UNL     1       6.504   4.106  12.554  0.00  0.00    +0.000 C 
BRANCH  15  16
ATOM     16  C   UNL     1       6.671   2.797  11.785  0.00  0.00    +0.000 C 
BRANCH  16  18
ATOM     17  C   UNL     1       4.256   3.181  11.206  0.00  0.00    +0.000 C 
ATOM     18  C   UNL     1       5.321   2.142  11.515  0.00  0.00    +0.000 C 
ENDBRANCH  16  18
ENDBRANCH  15  16
ENDBRANCH  14  15
ENDBRANCH  13  14
ENDBRANCH  12  13
ENDBRANCH  11  12
ENDBRANCH   1  11
BRANCH   3  19
ATOM     19  C   UNL     1       2.873   7.126  19.808  0.00  0.00    +0.000 C 
BRANCH  19  20
ATOM     20  N   UNL     1       1.622   7.866  19.531  0.00  0.00    +0.000 NA
ATOM     21  C   UNL     1       1.163   8.586  20.733  0.00  0.00    +0.000 C 
ATOM     22  C   UNL     1      -0.064   9.457  20.456  0.00  0.00    +0.000 C 
ATOM     23  C   UNL     1       0.202  10.438  19.326  0.00  0.00    +0.000 C 
ATOM     24  C   UNL     1       0.659   9.678  18.089  0.00  0.00    +0.000 C 
ATOM     25  C   UNL     1       1.861   8.785  18.403  0.00  0.00    +0.000 C 
ENDBRANCH  19  20
ENDBRANCH   3  19
TORSDOF 9
ENDMDL
MODEL 2
REMARK VINA RESULT:      -7.4      1.072      1.618
REMARK  Name = 
REMARK  10 active torsions:
REMARK  status: ('A' for Active; 'I' for Inactive)
REMARK    1  A    between atoms: C_1  and  C_2
REMARK    2  A    between atoms: C_2  and  C_3
REMARK    3  A    between atoms: C_3  and  C_4
REMARK    4  A    between atoms: C_4  and  C_5
REMARK    5  A    between atoms: C_5  and  C_6
REMARK    6  A    between atoms: C_6  and  C_7
REMARK    7  A    between atoms: C_7  and  C_8
REMARK    8  A    between atoms: C_8  and  N_9
REMARK    9  A    between atoms: C_11  and  C_12
REMARK   10  A    between atoms: C_12  and  N_13
REMARK                            x       y       z     vdW  Elec       q    Type
REMARK                         _______ _______ _______ _____ _____    ______ ____
ROOT
ATOM      1  N   UNL     1       4.708   4.965  18.859  0.00  0.00    +0.000 N 
ATOM      2  C   UNL     1       4.117   6.093  19.365  0.00  0.00    +0.000 A 
ATOM      3  C   UNL     1       2.826   5.786  19.750  0.00  0.00    +0.000 A 
ATOM      4  C   UNL     1       2.616   4.407  19.410  0.00  0.00    +0.000 A 
ATOM      5  C   UNL     1       1.530   3.517  19.530  0.00  0.00    +0.000 A 
ATOM      6  F   UNL     1       0.371   3.923  20.068  0.00  0.00    +0.000 F 
ATOM      7  C   UNL     1       1.633   2.196  19.090  0.00  0.00    +0.000 A 
ATOM      8  C   UNL     1       2.820   1.738  18.533  0.00  0.00    +0.000 A 
ATOM      9  C   UNL     1       3.928   2.585  18.419  0.00  0.00    +0.000 A 
ATOM     10  C   UNL     1       3.807   3.919  18.853  0.00  0.00    +0.000 A 
ENDROOT
BRANCH   1  11
ATOM     11  C   UNL     1       6.110   4.893  18.480  0.00  0.00    +0.000 C 
BRANCH  11  12
ATOM     12  C   UNL     1       6.408   5.536  17.131  0.00  0.00    +0.000 C 
BRANCH  12  13
ATOM     13  C   UNL     1       5.344   5.170  16.101  0.00  0.00    +0.000 C 
BRANCH  13  14
ATOM     14  C   UNL     1       5.948   5.142  14.697  0.00  0.00    +0.000 C 
BRANCH  14  15
ATOM     15  C   UNL     1       5.800   3.767  14.062  0.00  0.00    +0.000 C 
BRANCH  15  16
ATOM     16  C   UNL     1       6.404   3.743  12.660  0.00  0.00    +0.000 C 
BRANCH  16  18
ATOM     17  C   UNL     1       4.285   3.222  11.415  0.00  0.00    +0.000 C 
ATOM     18  C   UNL     1       5.682   2.740  11.767  0.00  0.00    +0.000 C 
ENDBRANCH  16  18
ENDBRANCH  15  16
ENDBRANCH  14  15
ENDBRANCH  13  14
ENDBRANCH  12  13
ENDBRANCH  11  12
ENDBRANCH   1  11
BRANCH   3  19
ATOM     19  C   UNL     1       1.856   6.702  20.435  0.00  0.00    +0.000 C 
BRANCH  19  20
ATOM     20  N   UNL     1       1.958   8.091  19.936  0.00  0.00    +0.000 NA
ATOM     21  C   UNL     1       1.803   8.134  18.471  0.00  0.00    +0.000 C 
ATOM     22  C   UNL     1       1.786   9.566  17.929  0.00  0.00    +0.000 C 
ATOM     23  C   UNL     1       0.700  10.393  18.597  0.00  0.00    +0.000 C 
ATOM     24  C   UNL     1       0.885  10.351  20.107  0.00  0.00    +0.000 C 
ATOM     25  C   UNL     1       0.939   8.910  20.617  0.00  0.00    +0.000 C 
ENDBRANCH  19  20
ENDBRANCH   3  19
TORSDOF 9
ENDMDL
MODEL 3
REMARK VINA RESULT:      -7.2      2.824      7.238
REMARK  Name = 
REMARK  10 active torsions:
REMARK  status: ('A' for Active; 'I' for Inactive)
REMARK    1  A    between atoms: C_1  and  C_2
REMARK    2  A    between atoms: C_2  and  C_3
REMARK    3  A    between atoms: C_3  and  C_4
REMARK    4  A    between atoms: C_4  and  C_5
REMARK    5  A    between atoms: C_5  and  C_6
REMARK    6  A    between atoms: C_6  and  C_7
REMARK    7  A    between atoms: C_7  and  C_8
REMARK    8  A    between atoms: C_8  and  N_9
REMARK    9  A    between atoms: C_11  and  C_12
REMARK   10  A    between atoms: C_12  and  N_13
REMARK                            x       y       z     vdW  Elec       q    Type
REMARK                         _______ _______ _______ _____ _____    ______ ____
ROOT
ATOM      1  N   UNL     1       2.445   6.338  19.643  0.00  0.00    +0.000 N 
ATOM      2  C   UNL     1       3.317   6.546  18.607  0.00  0.00    +0.000 A 
ATOM      3  C   UNL     1       3.542   5.343  17.964  0.00  0.00    +0.000 A 
ATOM      4  C   UNL     1       2.801   4.349  18.687  0.00  0.00    +0.000 A 
ATOM      5  C   UNL     1       2.625   2.958  18.551  0.00  0.00    +0.000 A 
ATOM      6  F   UNL     1       3.234   2.287  17.563  0.00  0.00    +0.000 F 
ATOM      7  C   UNL     1       1.821   2.245  19.442  0.00  0.00    +0.000 A 
ATOM      8  C   UNL     1       1.170   2.908  20.475  0.00  0.00    +0.000 A 
ATOM      9  C   UNL     1       1.300   4.292  20.628  0.00  0.00    +0.000 A 
ATOM     10  C   UNL     1       2.126   4.997  19.733  0.00  0.00    +0.000 A 
ENDROOT
BRANCH   1  11
ATOM     11  C   UNL     1       1.886   7.409  20.452  0.00  0.00    +0.000 C 
BRANCH  11  12
ATOM     12  C   UNL     1       1.420   8.607  19.633  0.00  0.00    +0.000 C 
BRANCH  12  13
ATOM     13  C   UNL     1       0.788   9.670  20.527  0.00  0.00    +0.000 C 
BRANCH  13  14
ATOM     14  C   UNL     1      -0.408  10.314  19.825  0.00  0.00    +0.000 C 
BRANCH  14  15
ATOM     15  C   UNL     1      -0.192  10.378  18.320  0.00  0.00    +0.000 C 
BRANCH  15  16
ATOM     16  C   UNL     1      -1.474  10.027  17.567  0.00  0.00    +0.000 C 
BRANCH  16  18
ATOM     17  C   UNL     1      -3.884  10.642  17.219  0.00  0.00    +0.000 C 
ATOM     18  C   UNL     1      -2.660  10.820  18.102  0.00  0.00    +0.000 C 
ENDBRANCH  16  18
ENDBRANCH  15  16
ENDBRANCH  14  15
ENDBRANCH  13  14
ENDBRANCH  12  13
ENDBRANCH  11  12
ENDBRANCH   1  11
BRANCH   3  19
ATOM     19  C   UNL     1       4.360   5.132  16.725  0.00  0.00    +0.000 C 
BRANCH  19  20
ATOM     20  N   UNL     1       5.789   5.448  16.943  0.00  0.00    +0.000 NA
ATOM     21  C   UNL     1       5.979   6.895  17.148  0.00  0.00    +0.000 C 
ATOM     22  C   UNL     1       7.428   7.248  17.491  0.00  0.00    +0.000 C 
ATOM     23  C   UNL     1       7.907   6.477  18.711  0.00  0.00    +0.000 C 
ATOM     24  C   UNL     1       7.718   4.985  18.476  0.00  0.00    +0.000 C 
ATOM     25  C   UNL     1       6.272   4.665  18.095  0.00  0.00    +0.000 C 
ENDBRANCH  19  20
ENDBRANCH   3  19
TORSDOF 9
ENDMDL
MODEL 4
REMARK VINA RESULT:      -7.1      4.536      7.358
REMARK  Name = 
REMARK  10 active torsions:
REMARK  status: ('A' for Active; 'I' for Inactive)
REMARK    1  A    between atoms: C_1  and  C_2
REMARK    2  A    between atoms: C_2  and  C_3
REMARK    3  A    between atoms: C_3  and  C_4
REMARK    4  A    between atoms: C_4  and  C_5
REMARK    5  A    between atoms: C_5  and  C_6
REMARK    6  A    between atoms: C_6  and  C_7
REMARK    7  A    between atoms: C_7  and  C_8
REMARK    8  A    between atoms: C_8  and  N_9
REMARK    9  A    between atoms: C_11  and  C_12
REMARK   10  A    between atoms: C_12  and  N_13
REMARK                            x       y       z     vdW  Elec       q    Type
REMARK                         _______ _______ _______ _____ _____    ______ ____
ROOT
ATOM      1  N   UNL     1       7.062   6.200  18.160  0.00  0.00    +0.000 N 
ATOM      2  C   UNL     1       6.383   5.630  19.204  0.00  0.00    +0.000 A 
ATOM      3  C   UNL     1       5.662   4.550  18.731  0.00  0.00    +0.000 A 
ATOM      4  C   UNL     1       5.883   4.501  17.314  0.00  0.00    +0.000 A 
ATOM      5  C   UNL     1       5.434   3.662  16.274  0.00  0.00    +0.000 A 
ATOM      6  F   UNL     1       4.605   2.640  16.532  0.00  0.00    +0.000 F 
ATOM      7  C   UNL     1       5.834   3.878  14.954  0.00  0.00    +0.000 A 
ATOM      8  C   UNL     1       6.696   4.923  14.650  0.00  0.00    +0.000 A 
ATOM      9  C   UNL     1       7.184   5.762  15.657  0.00  0.00    +0.000 A 
ATOM     10  C   UNL     1       6.761   5.544  16.983  0.00  0.00    +0.000 A 
ENDROOT
BRANCH   1  11
ATOM     11  C   UNL     1       8.024   7.279  18.319  0.00  0.00    +0.000 C 
BRANCH  11  12
ATOM     12  C   UNL     1       7.653   8.541  17.549  0.00  0.00    +0.000 C 
BRANCH  12  13
ATOM     13  C   UNL     1       8.548   9.710  17.947  0.00  0.00    +0.000 C 
BRANCH  13  14
ATOM     14  C   UNL     1       9.073   9.519  19.370  0.00  0.00    +0.000 C 
BRANCH  14  15
ATOM     15  C   UNL     1       9.474  10.850  19.991  0.00  0.00    +0.000 C 
BRANCH  15  16
ATOM     16  C   UNL     1      10.754  11.387  19.355  0.00  0.00    +0.000 C 
BRANCH  16  18
ATOM     17  C   UNL     1      10.194  13.157  21.048  0.00  0.00    +0.000 C 
ATOM     18  C   UNL     1      11.081  12.783  19.873  0.00  0.00    +0.000 C 
ENDBRANCH  16  18
ENDBRANCH  15  16
ENDBRANCH  14  15
ENDBRANCH  13  14
ENDBRANCH  12  13
ENDBRANCH  11  12
ENDBRANCH   1  11
BRANCH   3  19
ATOM     19  C   UNL     1       4.849   3.591  19.548  0.00  0.00    +0.000 C 
BRANCH  19  20
ATOM     20  N   UNL     1       3.397   3.764  19.326  0.00  0.00    +0.000 NA
ATOM     21  C   UNL     1       2.730   2.458  19.180  0.00  0.00    +0.000 C 
ATOM     22  C   UNL     1       1.210   2.591  19.064  0.00  0.00    +0.000 C 
ATOM     23  C   UNL     1       0.633   3.345  20.251  0.00  0.00    +0.000 C 
ATOM     24  C   UNL     1       1.320   4.697  20.378  0.00  0.00    +0.000 C 
ATOM     25  C   UNL     1       2.840   4.538  20.450  0.00  0.00    +0.000 C 
ENDBRANCH  19  20
ENDBRANCH   3  19
TORSDOF 9
ENDMDL
MODEL 5
REMARK VINA RESULT:      -7.1      0.756      1.025
REMARK  Name = 
REMARK  10 active torsions:
REMARK  status: ('A' for Active; 'I' for Inactive)
REMARK    1  A    between atoms: C_1  and  C_2
REMARK    2  A    between atoms: C_2  and  C_3
REMARK    3  A    between atoms: C_3  and  C_4
REMARK    4  A    between atoms: C_4  and  C_5
REMARK    5  A    between atoms: C_5  and  C_6
REMARK    6  A    between atoms: C_6  and  C_7
REMARK    7  A    between atoms: C_7  and  C_8
REMARK    8  A    between atoms: C_8  and  N_9
REMARK    9  A    between atoms: C_11  and  C_12
REMARK   10  A    between atoms: C_12  and  N_13
REMARK                            x       y       z     vdW  Elec       q    Type
REMARK                         _______ _______ _______ _____ _____    ______ ____
ROOT
ATOM      1  N   UNL     1       4.351   4.559  17.621  0.00  0.00    +0.000 N 
ATOM      2  C   UNL     1       4.323   5.778  18.245  0.00  0.00    +0.000 A 
ATOM      3  C   UNL     1       3.235   5.818  19.096  0.00  0.00    +0.000 A 
ATOM      4  C   UNL     1       2.544   4.570  18.935  0.00  0.00    +0.000 A 
ATOM      5  C   UNL     1       1.381   4.008  19.498  0.00  0.00    +0.000 A 
ATOM      6  F   UNL     1       0.663   4.689  20.402  0.00  0.00    +0.000 F 
ATOM      7  C   UNL     1       0.947   2.735  19.125  0.00  0.00    +0.000 A 
ATOM      8  C   UNL     1       1.669   1.997  18.196  0.00  0.00    +0.000 A 
ATOM      9  C   UNL     1       2.842   2.511  17.634  0.00  0.00    +0.000 A 
ATOM     10  C   UNL     1       3.262   3.802  18.006  0.00  0.00    +0.000 A 
ENDROOT
BRANCH   1  11
ATOM     11  C   UNL     1       5.435   4.123  16.755  0.00  0.00    +0.000 C 
BRANCH  11  12
ATOM     12  C   UNL     1       5.179   4.395  15.278  0.00  0.00    +0.000 C 
BRANCH  12  13
ATOM     13  C   UNL     1       6.486   4.439  14.492  0.00  0.00    +0.000 C 
BRANCH  13  14
ATOM     14  C   UNL     1       6.258   3.981  13.052  0.00  0.00    +0.000 C 
BRANCH  14  15
ATOM     15  C   UNL     1       4.894   3.325  12.894  0.00  0.00    +0.000 C 
BRANCH  15  16
ATOM     16  C   UNL     1       4.601   3.016  11.427  0.00  0.00    +0.000 C 
BRANCH  16  18
ATOM     17  C   UNL     1       2.928   3.578   9.640  0.00  0.00    +0.000 C 
ATOM     18  C   UNL     1       3.763   4.117  10.789  0.00  0.00    +0.000 C 
ENDBRANCH  16  18
ENDBRANCH  15  16
ENDBRANCH  14  15
ENDBRANCH  13  14
ENDBRANCH  12  13
ENDBRANCH  11  12
ENDBRANCH   1  11
BRANCH   3  19
ATOM     19  C   UNL     1       2.879   6.929  20.038  0.00  0.00    +0.000 C 
BRANCH  19  20
ATOM     20  N   UNL     1       1.749   7.742  19.536  0.00  0.00    +0.000 NA
ATOM     21  C   UNL     1       1.245   8.644  20.587  0.00  0.00    +0.000 C 
ATOM     22  C   UNL     1       0.152   9.584  20.071  0.00  0.00    +0.000 C 
ATOM     23  C   UNL     1       0.638  10.388  18.877  0.00  0.00    +0.000 C 
ATOM     24  C   UNL     1       1.140   9.442  17.796  0.00  0.00    +0.000 C 
ATOM     25  C   UNL     1       2.201   8.487  18.347  0.00  0.00    +0.000 C 
ENDBRANCH  19  20
ENDBRANCH   3  19
TORSDOF 9
ENDMDL
MODEL 6
REMARK VINA RESULT:      -7.1      1.072      1.528
REMARK  Name = 
REMARK  10 active torsions:
REMARK  status: ('A' for Active; 'I' for Inactive)
REMARK    1  A    between atoms: C_1  and  C_2
REMARK    2  A    between atoms: C_2  and  C_3
REMARK    3  A    between atoms: C_3  and  C_4
REMARK    4  A    between atoms: C_4  and  C_5
REMARK    5  A    between atoms: C_5  and  C_6
REMARK    6  A    between atoms: C_6  and  C_7
REMARK    7  A    between atoms: C_7  and  C_8
REMARK    8  A    between atoms: C_8  and  N_9
REMARK    9  A    between atoms: C_11  and  C_12
REMARK   10  A    between atoms: C_12  and  N_13
REMARK                            x       y       z     vdW  Elec       q    Type
REMARK                         _______ _______ _______ _____ _____    ______ ____
ROOT
ATOM      1  N   UNL     1       4.730   4.553  18.654  0.00  0.00    +0.000 N 
ATOM      2  C   UNL     1       4.394   5.681  19.355  0.00  0.00    +0.000 A 
ATOM      3  C   UNL     1       3.089   5.563  19.792  0.00  0.00    +0.000 A 
ATOM      4  C   UNL     1       2.598   4.315  19.281  0.00  0.00    +0.000 A 
ATOM      5  C   UNL     1       1.368   3.633  19.360  0.00  0.00    +0.000 A 
ATOM      6  F   UNL     1       0.337   4.161  20.036  0.00  0.00    +0.000 F 
ATOM      7  C   UNL     1       1.191   2.398  18.735  0.00  0.00    +0.000 A 
ATOM      8  C   UNL     1       2.238   1.817  18.030  0.00  0.00    +0.000 A 
ATOM      9  C   UNL     1       3.481   2.452  17.950  0.00  0.00    +0.000 A 
ATOM     10  C   UNL     1       3.644   3.704  18.572  0.00  0.00    +0.000 A 
ENDROOT
BRANCH   1  11
ATOM     11  C   UNL     1       6.070   4.280  18.162  0.00  0.00    +0.000 C 
BRANCH  11  12
ATOM     12  C   UNL     1       6.810   5.528  17.693  0.00  0.00    +0.000 C 
BRANCH  12  13
ATOM     13  C   UNL     1       6.869   5.591  16.169  0.00  0.00    +0.000 C 
BRANCH  13  14
ATOM     14  C   UNL     1       5.469   5.790  15.589  0.00  0.00    +0.000 C 
BRANCH  14  15
ATOM     15  C   UNL     1       5.084   4.636  14.675  0.00  0.00    +0.000 C 
BRANCH  15  16
ATOM     16  C   UNL     1       6.313   3.826  14.267  0.00  0.00    +0.000 C 
BRANCH  16  18
ATOM     17  C   UNL     1       5.480   3.090  12.015  0.00  0.00    +0.000 C 
ATOM     18  C   UNL     1       6.537   3.886  12.761  0.00  0.00    +0.000 C 
ENDBRANCH  16  18
ENDBRANCH  15  16
ENDBRANCH  14  15
ENDBRANCH  13  14
ENDBRANCH  12  13
ENDBRANCH  11  12
ENDBRANCH   1  11
BRANCH   3  19
ATOM     19  C   UNL     1       2.349   6.529  20.669  0.00  0.00    +0.000 C 
BRANCH  19  20
ATOM     20  N   UNL     1       1.548   7.492  19.882  0.00  0.00    +0.000 NA
ATOM     21  C   UNL     1       1.166   8.652  20.707  0.00  0.00    +0.000 C 
ATOM     22  C   UNL     1       0.435   9.726  19.897  0.00  0.00    +0.000 C 
ATOM     23  C   UNL     1       1.266  10.178  18.708  0.00  0.00    +0.000 C 
ATOM     24  C   UNL     1       1.638   8.971  17.859  0.00  0.00    +0.000 C 
ATOM     25  C   UNL     1       2.330   7.897  18.700  0.00  0.00    +0.000 C 
ENDBRANCH  19  20
ENDBRANCH   3  19
TORSDOF 9
ENDMDL
MODEL 7
REMARK VINA RESULT:      -7.1      0.997      1.528
REMARK  Name = 
REMARK  10 active torsions:
REMARK  status: ('A' for Active; 'I' for Inactive)
REMARK    1  A    between atoms: C_1  and  C_2
REMARK    2  A    between atoms: C_2  and  C_3
REMARK    3  A    between atoms: C_3  and  C_4
REMARK    4  A    between atoms: C_4  and  C_5
REMARK    5  A    between atoms: C_5  and  C_6
REMARK    6  A    between atoms: C_6  and  C_7
REMARK    7  A    between atoms: C_7  and  C_8
REMARK    8  A    between atoms: C_8  and  N_9
REMARK    9  A    between atoms: C_11  and  C_12
REMARK   10  A    between atoms: C_12  and  N_13
REMARK                            x       y       z     vdW  Elec       q    Type
REMARK                         _______ _______ _______ _____ _____    ______ ____
ROOT
ATOM      1  N   UNL     1       3.759   6.118  17.577  0.00  0.00    +0.000 N 
ATOM      2  C   UNL     1       3.331   7.097  18.435  0.00  0.00    +0.000 A 
ATOM      3  C   UNL     1       2.425   6.547  19.322  0.00  0.00    +0.000 A 
ATOM      4  C   UNL     1       2.263   5.172  18.943  0.00  0.00    +0.000 A 
ATOM      5  C   UNL     1       1.490   4.100  19.429  0.00  0.00    +0.000 A 
ATOM      6  F   UNL     1       0.676   4.268  20.481  0.00  0.00    +0.000 F 
ATOM      7  C   UNL     1       1.547   2.842  18.826  0.00  0.00    +0.000 A 
ATOM      8  C   UNL     1       2.383   2.630  17.737  0.00  0.00    +0.000 A 
ATOM      9  C   UNL     1       3.185   3.663  17.241  0.00  0.00    +0.000 A 
ATOM     10  C   UNL     1       3.107   4.931  17.848  0.00  0.00    +0.000 A 
ENDROOT
BRANCH   1  11
ATOM     11  C   UNL     1       4.814   6.313  16.597  0.00  0.00    +0.000 C 
BRANCH  11  12
ATOM     12  C   UNL     1       6.125   5.632  16.972  0.00  0.00    +0.000 C 
BRANCH  12  13
ATOM     13  C   UNL     1       6.824   5.067  15.739  0.00  0.00    +0.000 C 
BRANCH  13  14
ATOM     14  C   UNL     1       6.098   3.818  15.240  0.00  0.00    +0.000 C 
BRANCH  14  15
ATOM     15  C   UNL     1       5.503   4.044  13.858  0.00  0.00    +0.000 C 
BRANCH  15  16
ATOM     16  C   UNL     1       6.452   3.552  12.766  0.00  0.00    +0.000 C 
BRANCH  16  18
ATOM     17  C   UNL     1       4.235   3.259  11.621  0.00  0.00    +0.000 C 
ATOM     18  C   UNL     1       5.691   2.826  11.663  0.00  0.00    +0.000 C 
ENDBRANCH  16  18
ENDBRANCH  15  16
ENDBRANCH  14  15
ENDBRANCH  13  14
ENDBRANCH  12  13
ENDBRANCH  11  12
ENDBRANCH   1  11
BRANCH   3  19
ATOM     19  C   UNL     1       1.778   7.242  20.483  0.00  0.00    +0.000 C 
BRANCH  19  20
ATOM     20  N   UNL     1       1.654   8.699  20.259  0.00  0.00    +0.000 NA
ATOM     21  C   UNL     1       0.903   8.976  19.022  0.00  0.00    +0.000 C 
ATOM     22  C   UNL     1       0.653  10.472  18.816  0.00  0.00    +0.000 C 
ATOM     23  C   UNL     1      -0.063  11.079  20.011  0.00  0.00    +0.000 C 
ATOM     24  C   UNL     1       0.734  10.798  21.277  0.00  0.00    +0.000 C 
ATOM     25  C   UNL     1       1.005   9.301  21.438  0.00  0.00    +0.000 C 
ENDBRANCH  19  20
ENDBRANCH   3  19
TORSDOF 9
ENDMDL
MODEL 8
REMARK VINA RESULT:      -7.1      3.815      6.680
REMARK  Name = 
REMARK  10 active torsions:
REMARK  status: ('A' for Active; 'I' for Inactive)
REMARK    1  A    between atoms: C_1  and  C_2
REMARK    2  A    between atoms: C_2  and  C_3
REMARK    3  A    between atoms: C_3  and  C_4
REMARK    4  A    between atoms: C_4  and  C_5
REMARK    5  A    between atoms: C_5  and  C_6
REMARK    6  A    between atoms: C_6  and  C_7
REMARK    7  A    between atoms: C_7  and  C_8
REMARK    8  A    between atoms: C_8  and  N_9
REMARK    9  A    between atoms: C_11  and  C_12
REMARK   10  A    between atoms: C_12  and  N_13
REMARK                            x       y       z     vdW  Elec       q    Type
REMARK                         _______ _______ _______ _____ _____    ______ ____
ROOT
ATOM      1  N   UNL     1       1.403   9.038  18.912  0.00  0.00    +0.000 N 
ATOM      2  C   UNL     1       0.685   9.844  18.068  0.00  0.00    +0.000 A 
ATOM      3  C   UNL     1      -0.178  10.619  18.819  0.00  0.00    +0.000 A 
ATOM      4  C   UNL     1      -0.001  10.219  20.186  0.00  0.00    +0.000 A 
ATOM      5  C   UNL     1      -0.580  10.611  21.410  0.00  0.00    +0.000 A 
ATOM      6  F   UNL     1      -1.523  11.563  21.445  0.00  0.00    +0.000 F 
ATOM      7  C   UNL     1      -0.191  10.015  22.611  0.00  0.00    +0.000 A 
ATOM      8  C   UNL     1       0.788   9.029  22.614  0.00  0.00    +0.000 A 
ATOM      9  C   UNL     1       1.403   8.631  21.423  0.00  0.00    +0.000 A 
ATOM     10  C   UNL     1       0.992   9.228  20.216  0.00  0.00    +0.000 A 
ENDROOT
BRANCH   1  11
ATOM     11  C   UNL     1       2.497   8.185  18.473  0.00  0.00    +0.000 C 
BRANCH  11  12
ATOM     12  C   UNL     1       2.129   6.707  18.417  0.00  0.00    +0.000 C 
BRANCH  12  13
ATOM     13  C   UNL     1       3.293   5.871  17.893  0.00  0.00    +0.000 C 
BRANCH  13  14
ATOM     14  C   UNL     1       3.013   4.382  18.096  0.00  0.00    +0.000 C 
BRANCH  14  15
ATOM     15  C   UNL     1       1.536   4.069  17.899  0.00  0.00    +0.000 C 
BRANCH  15  16
ATOM     16  C   UNL     1       1.044   3.067  18.942  0.00  0.00    +0.000 C 
BRANCH  16  18
ATOM     17  C   UNL     1       1.645   2.907  21.376  0.00  0.00    +0.000 C 
ATOM     18  C   UNL     1       0.921   3.718  20.315  0.00  0.00    +0.000 C 
ENDBRANCH  16  18
ENDBRANCH  15  16
ENDBRANCH  14  15
ENDBRANCH  13  14
ENDBRANCH  12  13
ENDBRANCH  11  12
ENDBRANCH   1  11
BRANCH   3  19
ATOM     19  C   UNL     1      -1.082  11.700  18.307  0.00  0.00    +0.000 C 
BRANCH  19  20
ATOM     20  N   UNL     1      -2.447  11.198  18.032  0.00  0.00    +0.000 NA
ATOM     21  C   UNL     1      -3.447  11.947  18.812  0.00  0.00    +0.000 C 
ATOM     22  C   UNL     1      -4.881  11.535  18.468  0.00  0.00    +0.000 C 
ATOM     23  C   UNL     1      -5.154  11.686  16.981  0.00  0.00    +0.000 C 
ATOM     24  C   UNL     1      -4.122  10.894  16.191  0.00  0.00    +0.000 C 
ATOM     25  C   UNL     1      -2.699  11.296  16.583  0.00  0.00    +0.000 C 
ENDBRANCH  19  20
ENDBRANCH   3  19
TORSDOF 9
ENDMDL
MODEL 9
REMARK VINA RESULT:      -7.1      2.849      7.098
REMARK  Name = 
REMARK  10 active torsions:
REMARK  status: ('A' for Active; 'I' for Inactive)
REMARK    1  A    between atoms: C_1  and  C_2
REMARK    2  A    between atoms: C_2  and  C_3
REMARK    3  A    between atoms: C_3  and  C_4
REMARK    4  A    between atoms: C_4  and  C_5
REMARK    5  A    between atoms: C_5  and  C_6
REMARK    6  A    between atoms: C_6  and  C_7
REMARK    7  A    between atoms: C_7  and  C_8
REMARK    8  A    between atoms: C_8  and  N_9
REMARK    9  A    between atoms: C_11  and  C_12
REMARK   10  A    between atoms: C_12  and  N_13
REMARK                            x       y       z     vdW  Elec       q    Type
REMARK                         _______ _______ _______ _____ _____    ______ ____
ROOT
ATOM      1  N   UNL     1       2.536   6.494  18.872  0.00  0.00    +0.000 N 
ATOM      2  C   UNL     1       3.579   6.356  17.994  0.00  0.00    +0.000 A 
ATOM      3  C   UNL     1       3.967   5.030  17.967  0.00  0.00    +0.000 A 
ATOM      4  C   UNL     1       3.142   4.344  18.920  0.00  0.00    +0.000 A 
ATOM      5  C   UNL     1       3.049   3.009  19.363  0.00  0.00    +0.000 A 
ATOM      6  F   UNL     1       3.859   2.066  18.861  0.00  0.00    +0.000 F 
ATOM      7  C   UNL     1       2.120   2.639  20.337  0.00  0.00    +0.000 A 
ATOM      8  C   UNL     1       1.261   3.589  20.876  0.00  0.00    +0.000 A 
ATOM      9  C   UNL     1       1.306   4.918  20.444  0.00  0.00    +0.000 A 
ATOM     10  C   UNL     1       2.258   5.282  19.473  0.00  0.00    +0.000 A 
ENDROOT
BRANCH   1  11
ATOM     11  C   UNL     1       1.794   7.731  19.052  0.00  0.00    +0.000 C 
BRANCH  11  12
ATOM     12  C   UNL     1       2.118   8.791  18.005  0.00  0.00    +0.000 C 
BRANCH  12  13
ATOM     13  C   UNL     1       1.336  10.075  18.264  0.00  0.00    +0.000 C 
BRANCH  13  14
ATOM     14  C   UNL     1       0.609   9.996  19.606  0.00  0.00    +0.000 C 
BRANCH  14  15
ATOM     15  C   UNL     1      -0.848  10.411  19.466  0.00  0.00    +0.000 C 
BRANCH  15  16
ATOM     16  C   UNL     1      -1.248  10.521  17.996  0.00  0.00    +0.000 C 
BRANCH  16  18
ATOM     17  C   UNL     1      -3.050   9.807  16.398  0.00  0.00    +0.000 C 
ATOM     18  C   UNL     1      -2.740  10.270  17.812  0.00  0.00    +0.000 C 
ENDBRANCH  16  18
ENDBRANCH  15  16
ENDBRANCH  14  15
ENDBRANCH  13  14
ENDBRANCH  12  13
ENDBRANCH  11  12
ENDBRANCH   1  11
BRANCH   3  19
ATOM     19  C   UNL     1       5.011   4.423  17.078  0.00  0.00    +0.000 C 
BRANCH  19  20
ATOM     20  N   UNL     1       6.343   5.030  17.292  0.00  0.00    +0.000 NA
ATOM     21  C   UNL     1       6.377   6.411  16.780  0.00  0.00    +0.000 C 
ATOM     22  C   UNL     1       7.703   7.113  17.087  0.00  0.00    +0.000 C 
ATOM     23  C   UNL     1       8.000   7.097  18.578  0.00  0.00    +0.000 C 
ATOM     24  C   UNL     1       7.977   5.663  19.086  0.00  0.00    +0.000 C 
ATOM     25  C   UNL     1       6.659   4.973  18.731  0.00  0.00    +0.000 C 
ENDBRANCH  19  20
ENDBRANCH   3  19
TORSDOF 9
ENDMDL
