MODEL 1
REMARK VINA RESULT:      -7.2      0.000      0.000
REMARK  Name = 
REMARK  5 active torsions:
REMARK  status: ('A' for Active; 'I' for Inactive)
REMARK    1  A    between atoms: C_1  and  N_2
REMARK    2  A    between atoms: C_8  and  O_9
REMARK    3  A    between atoms: O_9  and  C_10
REMARK    4  A    between atoms: N_17  and  C_18
REMARK    5  A    between atoms: C_18  and  C_19
REMARK                            x       y       z     vdW  Elec       q    Type
REMARK                         _______ _______ _______ _____ _____    ______ ____
ROOT
ATOM      1  C   UNL     1       2.550  13.026  17.907  0.00  0.00    +0.000 C 
ATOM      2  N   UNL     1       2.484  11.585  17.885  0.00  0.00    +0.000 NA
ATOM      3  C   UNL     1       1.693  10.888  18.630  0.00  0.00    +0.000 C 
ATOM      4  C   UNL     1       1.900   9.454  18.783  0.00  0.00    +0.000 A 
ATOM      5  C   UNL     1       2.529   8.572  17.916  0.00  0.00    +0.000 A 
ATOM      6  C   UNL     1       2.409   7.340  18.526  0.00  0.00    +0.000 A 
ATOM      7  C   UNL     1       2.832   6.088  18.103  0.00  0.00    +0.000 A 
ATOM      8  C   UNL     1       2.589   4.979  18.950  0.00  0.00    +0.000 A 
ATOM      9  C   UNL     1       1.938   5.177  20.194  0.00  0.00    +0.000 A 
ATOM     10  C   UNL     1       1.503   6.457  20.586  0.00  0.00    +0.000 A 
ATOM     11  C   UNL     1       1.750   7.518  19.717  0.00  0.00    +0.000 A 
ATOM     12  N   UNL     1       1.425   8.813  19.873  0.00  0.00    +0.000 N 
ATOM     13  C   UNL     1       0.679   9.447  20.968  0.00  0.00    +0.000 C 
ATOM     14  C   UNL     1       0.750  10.985  20.882  0.00  0.00    +0.000 C 
ATOM     15  N   UNL     1       0.722  11.461  19.506  0.00  0.00    +0.000 N 
ENDROOT
BRANCH   8  16
ATOM     16  O   UNL     1       2.958   3.719  18.610  0.00  0.00    +0.000 OA
ATOM     17  C   UNL     1       3.040   2.658  19.487  0.00  0.00    +0.000 C 
ENDBRANCH   8  16
BRANCH  15  18
ATOM     18  C   UNL     1      -0.369  12.289  18.986  0.00  0.00    +0.000 C 
BRANCH  18  19
ATOM     19  C   UNL     1      -1.589  11.520  18.530  0.00  0.00    +0.000 A 
ATOM     20  C   UNL     1      -1.514  10.362  17.733  0.00  0.00    +0.000 A 
ATOM     21  C   UNL     1      -2.674   9.727  17.297  0.00  0.00    +0.000 A 
ATOM     22  C   UNL     1      -3.925  10.225  17.660  0.00  0.00    +0.000 A 
ATOM     23  C   UNL     1      -4.018  11.365  18.470  0.00  0.00    +0.000 A 
ATOM     24  C   UNL     1      -2.855  12.004  18.904  0.00  0.00    +0.000 A 
ENDBRANCH  18  19
ENDBRANCH  15  18
TORSDOF 3
ENDMDL
MODEL 2
REMARK VINA RESULT:      -7.1      1.310      1.478
REMARK  Name = 
REMARK  5 active torsions:
REMARK  status: ('A' for Active; 'I' for Inactive)
REMARK    1  A    between atoms: C_1  and  N_2
REMARK    2  A    between atoms: C_8  and  O_9
REMARK    3  A    between atoms: O_9  and  C_10
REMARK    4  A    between atoms: N_17  and  C_18
REMARK    5  A    between atoms: C_18  and  C_19
REMARK                            x       y       z     vdW  Elec       q    Type
REMARK                         _______ _______ _______ _____ _____    ______ ____
ROOT
ATOM      1  C   UNL     1       0.449  13.722  18.760  0.00  0.00    +0.000 C 
ATOM      2  N   UNL     1       0.911  12.386  18.467  0.00  0.00    +0.000 NA
ATOM      3  C   UNL     1       0.476  11.326  19.061  0.00  0.00    +0.000 C 
ATOM      4  C   UNL     1       1.201  10.067  18.943  0.00  0.00    +0.000 A 
ATOM      5  C   UNL     1       2.051   9.649  17.930  0.00  0.00    +0.000 A 
ATOM      6  C   UNL     1       2.427   8.373  18.297  0.00  0.00    +0.000 A 
ATOM      7  C   UNL     1       3.249   7.462  17.648  0.00  0.00    +0.000 A 
ATOM      8  C   UNL     1       3.481   6.210  18.270  0.00  0.00    +0.000 A 
ATOM      9  C   UNL     1       2.882   5.930  19.523  0.00  0.00    +0.000 A 
ATOM     10  C   UNL     1       2.036   6.867  20.147  0.00  0.00    +0.000 A 
ATOM     11  C   UNL     1       1.825   8.080  19.495  0.00  0.00    +0.000 A 
ATOM     12  N   UNL     1       1.062   9.114  19.889  0.00  0.00    +0.000 N 
ATOM     13  C   UNL     1       0.207   9.222  21.079  0.00  0.00    +0.000 C 
ATOM     14  C   UNL     1      -0.293  10.667  21.285  0.00  0.00    +0.000 C 
ATOM     15  N   UNL     1      -0.580  11.334  20.022  0.00  0.00    +0.000 N 
ENDROOT
BRANCH   8  16
ATOM     16  O   UNL     1       4.261   5.258  17.701  0.00  0.00    +0.000 OA
ATOM     17  C   UNL     1       3.796   4.071  17.172  0.00  0.00    +0.000 C 
ENDBRANCH   8  16
BRANCH  15  18
ATOM     18  C   UNL     1      -1.927  11.779  19.660  0.00  0.00    +0.000 C 
BRANCH  18  19
ATOM     19  C   UNL     1      -2.465  11.193  18.374  0.00  0.00    +0.000 A 
ATOM     20  C   UNL     1      -1.852  10.117  17.704  0.00  0.00    +0.000 A 
ATOM     21  C   UNL     1      -2.362   9.654  16.494  0.00  0.00    +0.000 A 
ATOM     22  C   UNL     1      -3.498  10.244  15.939  0.00  0.00    +0.000 A 
ATOM     23  C   UNL     1      -4.134  11.303  16.603  0.00  0.00    +0.000 A 
ATOM     24  C   UNL     1      -3.620  11.769  17.815  0.00  0.00    +0.000 A 
ENDBRANCH  18  19
ENDBRANCH  15  18
TORSDOF 3
ENDMDL
MODEL 3
REMARK VINA RESULT:      -7.0      1.006      1.150
REMARK  Name = 
REMARK  5 active torsions:
REMARK  status: ('A' for Active; 'I' for Inactive)
REMARK    1  A    between atoms: C_1  and  N_2
REMARK    2  A    between atoms: C_8  and  O_9
REMARK    3  A    between atoms: O_9  and  C_10
REMARK    4  A    between atoms: N_17  and  C_18
REMARK    5  A    between atoms: C_18  and  C_19
REMARK                            x       y       z     vdW  Elec       q    Type
REMARK                         _______ _______ _______ _____ _____    ______ ____
ROOT
ATOM      1  C   UNL     1       1.628  13.120  18.517  0.00  0.00    +0.000 C 
ATOM      2  N   UNL     1       1.785  11.697  18.335  0.00  0.00    +0.000 NA
ATOM      3  C   UNL     1       1.186  10.808  19.053  0.00  0.00    +0.000 C 
ATOM      4  C   UNL     1       1.627   9.419  19.023  0.00  0.00    +0.000 A 
ATOM      5  C   UNL     1       2.299   8.745  18.014  0.00  0.00    +0.000 A 
ATOM      6  C   UNL     1       2.431   7.455  18.486  0.00  0.00    +0.000 A 
ATOM      7  C   UNL     1       3.000   6.339  17.890  0.00  0.00    +0.000 A 
ATOM      8  C   UNL     1       3.014   5.125  18.620  0.00  0.00    +0.000 A 
ATOM      9  C   UNL     1       2.462   5.087  19.925  0.00  0.00    +0.000 A 
ATOM     10  C   UNL     1       1.873   6.231  20.495  0.00  0.00    +0.000 A 
ATOM     11  C   UNL     1       1.868   7.401  19.738  0.00  0.00    +0.000 A 
ATOM     12  N   UNL     1       1.363   8.602  20.066  0.00  0.00    +0.000 N 
ATOM     13  C   UNL     1       0.635   8.990  21.282  0.00  0.00    +0.000 C 
ATOM     14  C   UNL     1       0.458  10.520  21.368  0.00  0.00    +0.000 C 
ATOM     15  N   UNL     1       0.225  11.121  20.062  0.00  0.00    +0.000 N 
ENDROOT
BRANCH   8  16
ATOM     16  O   UNL     1       3.541   3.984  18.109  0.00  0.00    +0.000 OA
ATOM     17  C   UNL     1       4.695   3.918  17.356  0.00  0.00    +0.000 C 
ENDBRANCH   8  16
BRANCH  15  18
ATOM     18  C   UNL     1      -1.025  11.807  19.728  0.00  0.00    +0.000 C 
BRANCH  18  19
ATOM     19  C   UNL     1      -1.796  11.197  18.578  0.00  0.00    +0.000 A 
ATOM     20  C   UNL     1      -2.471   9.965  18.673  0.00  0.00    +0.000 A 
ATOM     21  C   UNL     1      -3.119   9.426  17.565  0.00  0.00    +0.000 A 
ATOM     22  C   UNL     1      -3.118  10.111  16.349  0.00  0.00    +0.000 A 
ATOM     23  C   UNL     1      -2.468  11.349  16.242  0.00  0.00    +0.000 A 
ATOM     24  C   UNL     1      -1.815  11.887  17.353  0.00  0.00    +0.000 A 
ENDBRANCH  18  19
ENDBRANCH  15  18
TORSDOF 3
ENDMDL
MODEL 4
REMARK VINA RESULT:      -6.9      1.002      1.202
REMARK  Name = 
REMARK  5 active torsions:
REMARK  status: ('A' for Active; 'I' for Inactive)
REMARK    1  A    between atoms: C_1  and  N_2
REMARK    2  A    between atoms: C_8  and  O_9
REMARK    3  A    between atoms: O_9  and  C_10
REMARK    4  A    between atoms: N_17  and  C_18
REMARK    5  A    between atoms: C_18  and  C_19
REMARK                            x       y       z     vdW  Elec       q    Type
REMARK                         _______ _______ _______ _____ _____    ______ ____
ROOT
ATOM      1  C   UNL     1       1.255  13.257  18.767  0.00  0.00    +0.000 C 
ATOM      2  N   UNL     1       1.528  11.858  18.536  0.00  0.00    +0.000 NA
ATOM      3  C   UNL     1       0.955  10.896  19.178  0.00  0.00    +0.000 C 
ATOM      4  C   UNL     1       1.499   9.546  19.119  0.00  0.00    +0.000 A 
ATOM      5  C   UNL     1       2.279   8.968  18.127  0.00  0.00    +0.000 A 
ATOM      6  C   UNL     1       2.478   7.671  18.553  0.00  0.00    +0.000 A 
ATOM      7  C   UNL     1       3.164   6.627  17.949  0.00  0.00    +0.000 A 
ATOM      8  C   UNL     1       3.224   5.385  18.628  0.00  0.00    +0.000 A 
ATOM      9  C   UNL     1       2.599   5.247  19.892  0.00  0.00    +0.000 A 
ATOM     10  C   UNL     1       1.893   6.319  20.470  0.00  0.00    +0.000 A 
ATOM     11  C   UNL     1       1.847   7.519  19.763  0.00  0.00    +0.000 A 
ATOM     12  N   UNL     1       1.235   8.665  20.108  0.00  0.00    +0.000 N 
ATOM     13  C   UNL     1       0.408   8.944  21.290  0.00  0.00    +0.000 C 
ATOM     14  C   UNL     1       0.113  10.451  21.428  0.00  0.00    +0.000 C 
ATOM     15  N   UNL     1      -0.085  11.093  20.136  0.00  0.00    +0.000 N 
ENDROOT
BRANCH   8  16
ATOM     16  O   UNL     1       3.864   4.309  18.104  0.00  0.00    +0.000 OA
ATOM     17  C   UNL     1       3.816   3.033  18.627  0.00  0.00    +0.000 C 
ENDBRANCH   8  16
BRANCH  15  18
ATOM     18  C   UNL     1      -1.361  11.702  19.752  0.00  0.00    +0.000 C 
BRANCH  18  19
ATOM     19  C   UNL     1      -1.969  11.153  18.481  0.00  0.00    +0.000 A 
ATOM     20  C   UNL     1      -1.961  11.852  17.259  0.00  0.00    +0.000 A 
ATOM     21  C   UNL     1      -2.585  11.319  16.134  0.00  0.00    +0.000 A 
ATOM     22  C   UNL     1      -3.214  10.076  16.204  0.00  0.00    +0.000 A 
ATOM     23  C   UNL     1      -3.214   9.356  17.406  0.00  0.00    +0.000 A 
ATOM     24  C   UNL     1      -2.592   9.892  18.535  0.00  0.00    +0.000 A 
ENDBRANCH  18  19
ENDBRANCH  15  18
TORSDOF 3
ENDMDL
MODEL 5
REMARK VINA RESULT:      -6.8      1.992      2.900
REMARK  Name = 
REMARK  5 active torsions:
REMARK  status: ('A' for Active; 'I' for Inactive)
REMARK    1  A    between atoms: C_1  and  N_2
REMARK    2  A    between atoms: C_8  and  O_9
REMARK    3  A    between atoms: O_9  and  C_10
REMARK    4  A    between atoms: N_17  and  C_18
REMARK    5  A    between atoms: C_18  and  C_19
REMARK                            x       y       z     vdW  Elec       q    Type
REMARK                         _______ _______ _______ _____ _____    ______ ____
ROOT
ATOM      1  C   UNL     1       1.750  12.472  18.583  0.00  0.00    +0.000 C 
ATOM      2  N   UNL     1       1.847  11.045  18.389  0.00  0.00    +0.000 NA
ATOM      3  C   UNL     1       1.362  10.171  19.206  0.00  0.00    +0.000 C 
ATOM      4  C   UNL     1       1.766   8.774  19.114  0.00  0.00    +0.000 A 
ATOM      5  C   UNL     1       2.246   8.082  18.012  0.00  0.00    +0.000 A 
ATOM      6  C   UNL     1       2.432   6.792  18.466  0.00  0.00    +0.000 A 
ATOM      7  C   UNL     1       2.871   5.662  17.791  0.00  0.00    +0.000 A 
ATOM      8  C   UNL     1       2.986   4.451  18.520  0.00  0.00    +0.000 A 
ATOM      9  C   UNL     1       2.662   4.431  19.899  0.00  0.00    +0.000 A 
ATOM     10  C   UNL     1       2.199   5.589  20.551  0.00  0.00    +0.000 A 
ATOM     11  C   UNL     1       2.088   6.755  19.795  0.00  0.00    +0.000 A 
ATOM     12  N   UNL     1       1.668   7.968  20.193  0.00  0.00    +0.000 N 
ATOM     13  C   UNL     1       1.164   8.377  21.511  0.00  0.00    +0.000 C 
ATOM     14  C   UNL     1       1.032   9.910  21.613  0.00  0.00    +0.000 C 
ATOM     15  N   UNL     1       0.592  10.509  20.361  0.00  0.00    +0.000 N 
ENDROOT
BRANCH   8  16
ATOM     16  O   UNL     1       3.397   3.297  17.936  0.00  0.00    +0.000 OA
ATOM     17  C   UNL     1       2.659   2.133  17.889  0.00  0.00    +0.000 C 
ENDBRANCH   8  16
BRANCH  15  18
ATOM     18  C   UNL     1      -0.683  11.217  20.236  0.00  0.00    +0.000 C 
BRANCH  18  19
ATOM     19  C   UNL     1      -0.974  12.201  21.348  0.00  0.00    +0.000 A 
ATOM     20  C   UNL     1      -0.218  13.370  21.557  0.00  0.00    +0.000 A 
ATOM     21  C   UNL     1      -0.498  14.212  22.630  0.00  0.00    +0.000 A 
ATOM     22  C   UNL     1      -1.543  13.911  23.504  0.00  0.00    +0.000 A 
ATOM     23  C   UNL     1      -2.319  12.762  23.299  0.00  0.00    +0.000 A 
ATOM     24  C   UNL     1      -2.036  11.916  22.225  0.00  0.00    +0.000 A 
ENDBRANCH  18  19
ENDBRANCH  15  18
TORSDOF 3
ENDMDL
MODEL 6
REMARK VINA RESULT:      -6.7      1.933      2.927
REMARK  Name = 
REMARK  5 active torsions:
REMARK  status: ('A' for Active; 'I' for Inactive)
REMARK    1  A    between atoms: C_1  and  N_2
REMARK    2  A    between atoms: C_8  and  O_9
REMARK    3  A    between atoms: O_9  and  C_10
REMARK    4  A    between atoms: N_17  and  C_18
REMARK    5  A    between atoms: C_18  and  C_19
REMARK                            x       y       z     vdW  Elec       q    Type
REMARK                         _______ _______ _______ _____ _____    ______ ____
ROOT
ATOM      1  C   UNL     1       2.047  12.125  18.386  0.00  0.00    +0.000 C 
ATOM      2  N   UNL     1       2.075  10.690  18.233  0.00  0.00    +0.000 NA
ATOM      3  C   UNL     1       1.556   9.865  19.078  0.00  0.00    +0.000 C 
ATOM      4  C   UNL     1       1.893   8.448  19.023  0.00  0.00    +0.000 A 
ATOM      5  C   UNL     1       2.329   7.702  17.938  0.00  0.00    +0.000 A 
ATOM      6  C   UNL     1       2.458   6.418  18.427  0.00  0.00    +0.000 A 
ATOM      7  C   UNL     1       2.837   5.250  17.782  0.00  0.00    +0.000 A 
ATOM      8  C   UNL     1       2.901   4.057  18.544  0.00  0.00    +0.000 A 
ATOM      9  C   UNL     1       2.589   4.091  19.926  0.00  0.00    +0.000 A 
ATOM     10  C   UNL     1       2.188   5.288  20.548  0.00  0.00    +0.000 A 
ATOM     11  C   UNL     1       2.125   6.436  19.759  0.00  0.00    +0.000 A 
ATOM     12  N   UNL     1       1.767   7.678  20.126  0.00  0.00    +0.000 N 
ATOM     13  C   UNL     1       1.295   8.148  21.436  0.00  0.00    +0.000 C 
ATOM     14  C   UNL     1       1.236   9.688  21.495  0.00  0.00    +0.000 C 
ATOM     15  N   UNL     1       0.814  10.271  20.228  0.00  0.00    +0.000 N 
ENDROOT
BRANCH   8  16
ATOM     16  O   UNL     1       3.252   2.868  17.991  0.00  0.00    +0.000 OA
ATOM     17  C   UNL     1       3.493   1.710  18.701  0.00  0.00    +0.000 C 
ENDBRANCH   8  16
BRANCH  15  18
ATOM     18  C   UNL     1      -0.428  11.036  20.094  0.00  0.00    +0.000 C 
BRANCH  18  19
ATOM     19  C   UNL     1      -0.715  11.986  21.235  0.00  0.00    +0.000 A 
ATOM     20  C   UNL     1      -1.737  11.768  22.178  0.00  0.00    +0.000 A 
ATOM     21  C   UNL     1      -1.991  12.705  23.176  0.00  0.00    +0.000 A 
ATOM     22  C   UNL     1      -1.223  13.866  23.260  0.00  0.00    +0.000 A 
ATOM     23  C   UNL     1      -0.187  14.090  22.343  0.00  0.00    +0.000 A 
ATOM     24  C   UNL     1       0.065  13.151  21.340  0.00  0.00    +0.000 A 
ENDBRANCH  18  19
ENDBRANCH  15  18
TORSDOF 3
ENDMDL
MODEL 7
REMARK VINA RESULT:      -6.7      1.183      1.708
REMARK  Name = 
REMARK  5 active torsions:
REMARK  status: ('A' for Active; 'I' for Inactive)
REMARK    1  A    between atoms: C_1  and  N_2
REMARK    2  A    between atoms: C_8  and  O_9
REMARK    3  A    between atoms: O_9  and  C_10
REMARK    4  A    between atoms: N_17  and  C_18
REMARK    5  A    between atoms: C_18  and  C_19
REMARK                            x       y       z     vdW  Elec       q    Type
REMARK                         _______ _______ _______ _____ _____    ______ ____
ROOT
ATOM      1  C   UNL     1       0.968  13.658  18.960  0.00  0.00    +0.000 C 
ATOM      2  N   UNL     1       1.299  12.299  18.605  0.00  0.00    +0.000 NA
ATOM      3  C   UNL     1       0.803  11.260  19.188  0.00  0.00    +0.000 C 
ATOM      4  C   UNL     1       1.409   9.949  18.996  0.00  0.00    +0.000 A 
ATOM      5  C   UNL     1       2.171   9.495  17.929  0.00  0.00    +0.000 A 
ATOM      6  C   UNL     1       2.453   8.180  18.239  0.00  0.00    +0.000 A 
ATOM      7  C   UNL     1       3.161   7.225  17.523  0.00  0.00    +0.000 A 
ATOM      8  C   UNL     1       3.313   5.937  18.094  0.00  0.00    +0.000 A 
ATOM      9  C   UNL     1       2.753   5.667  19.368  0.00  0.00    +0.000 A 
ATOM     10  C   UNL     1       2.022   6.650  20.060  0.00  0.00    +0.000 A 
ATOM     11  C   UNL     1       1.885   7.898  19.457  0.00  0.00    +0.000 A 
ATOM     12  N   UNL     1       1.234   8.979  19.919  0.00  0.00    +0.000 N 
ATOM     13  C   UNL     1       0.449   9.119  21.153  0.00  0.00    +0.000 C 
ATOM     14  C   UNL     1       0.086  10.593  21.427  0.00  0.00    +0.000 C 
ATOM     15  N   UNL     1      -0.202  11.325  20.201  0.00  0.00    +0.000 N 
ENDROOT
BRANCH   8  16
ATOM     16  O   UNL     1       3.980   4.942  17.458  0.00  0.00    +0.000 OA
ATOM     17  C   UNL     1       4.969   5.134  16.516  0.00  0.00    +0.000 C 
ENDBRANCH   8  16
BRANCH  15  18
ATOM     18  C   UNL     1      -1.521  11.895  19.921  0.00  0.00    +0.000 C 
BRANCH  18  19
ATOM     19  C   UNL     1      -2.217  11.318  18.708  0.00  0.00    +0.000 A 
ATOM     20  C   UNL     1      -3.512  11.700  18.310  0.00  0.00    +0.000 A 
ATOM     21  C   UNL     1      -4.124  11.094  17.216  0.00  0.00    +0.000 A 
ATOM     22  C   UNL     1      -3.452  10.110  16.492  0.00  0.00    +0.000 A 
ATOM     23  C   UNL     1      -2.153   9.732  16.860  0.00  0.00    +0.000 A 
ATOM     24  C   UNL     1      -1.541  10.336  17.960  0.00  0.00    +0.000 A 
ENDBRANCH  18  19
ENDBRANCH  15  18
TORSDOF 3
ENDMDL
MODEL 8
REMARK VINA RESULT:      -6.4      2.216      3.867
REMARK  Name = 
REMARK  5 active torsions:
REMARK  status: ('A' for Active; 'I' for Inactive)
REMARK    1  A    between atoms: C_1  and  N_2
REMARK    2  A    between atoms: C_8  and  O_9
REMARK    3  A    between atoms: O_9  and  C_10
REMARK    4  A    between atoms: N_17  and  C_18
REMARK    5  A    between atoms: C_18  and  C_19
REMARK                            x       y       z     vdW  Elec       q    Type
REMARK                         _______ _______ _______ _____ _____    ______ ____
ROOT
ATOM      1  C   UNL     1      -1.051  11.542  22.213  0.00  0.00    +0.000 C 
ATOM      2  N   UNL     1      -0.263  10.374  21.899  0.00  0.00    +0.000 NA
ATOM      3  C   UNL     1       0.594  10.320  20.936  0.00  0.00    +0.000 C 
ATOM      4  C   UNL     1       1.112   9.035  20.483  0.00  0.00    +0.000 A 
ATOM      5  C   UNL     1       1.213   7.845  21.189  0.00  0.00    +0.000 A 
ATOM      6  C   UNL     1       1.805   6.966  20.305  0.00  0.00    +0.000 A 
ATOM      7  C   UNL     1       2.173   5.639  20.475  0.00  0.00    +0.000 A 
ATOM      8  C   UNL     1       2.757   4.961  19.376  0.00  0.00    +0.000 A 
ATOM      9  C   UNL     1       2.940   5.646  18.149  0.00  0.00    +0.000 A 
ATOM     10  C   UNL     1       2.576   6.999  18.013  0.00  0.00    +0.000 A 
ATOM     11  C   UNL     1       2.017   7.631  19.122  0.00  0.00    +0.000 A 
ATOM     12  N   UNL     1       1.603   8.905  19.232  0.00  0.00    +0.000 N 
ATOM     13  C   UNL     1       1.677   9.983  18.236  0.00  0.00    +0.000 C 
ATOM     14  C   UNL     1       0.860  11.215  18.677  0.00  0.00    +0.000 C 
ATOM     15  N   UNL     1       0.934  11.438  20.115  0.00  0.00    +0.000 N 
ENDROOT
BRANCH   8  16
ATOM     16  O   UNL     1       3.155   3.667  19.458  0.00  0.00    +0.000 OA
ATOM     17  C   UNL     1       4.458   3.234  19.325  0.00  0.00    +0.000 C 
ENDBRANCH   8  16
BRANCH  15  18
ATOM     18  C   UNL     1       1.538  12.641  20.690  0.00  0.00    +0.000 C 
BRANCH  18  19
ATOM     19  C   UNL     1       1.173  13.932  19.990  0.00  0.00    +0.000 A 
ATOM     20  C   UNL     1      -0.129  14.466  19.993  0.00  0.00    +0.000 A 
ATOM     21  C   UNL     1      -0.417  15.630  19.285  0.00  0.00    +0.000 A 
ATOM     22  C   UNL     1       0.588  16.287  18.575  0.00  0.00    +0.000 A 
ATOM     23  C   UNL     1       1.895  15.781  18.579  0.00  0.00    +0.000 A 
ATOM     24  C   UNL     1       2.183  14.612  19.286  0.00  0.00    +0.000 A 
ENDBRANCH  18  19
ENDBRANCH  15  18
TORSDOF 3
ENDMDL
MODEL 9
REMARK VINA RESULT:      -6.3      2.155      3.852
REMARK  Name = 
REMARK  5 active torsions:
REMARK  status: ('A' for Active; 'I' for Inactive)
REMARK    1  A    between atoms: C_1  and  N_2
REMARK    2  A    between atoms: C_8  and  O_9
REMARK    3  A    between atoms: O_9  and  C_10
REMARK    4  A    between atoms: N_17  and  C_18
REMARK    5  A    between atoms: C_18  and  C_19
REMARK                            x       y       z     vdW  Elec       q    Type
REMARK                         _______ _______ _______ _____ _____    ______ ____
ROOT
ATOM      1  C   UNL     1      -1.187  11.624  22.448  0.00  0.00    +0.000 C 
ATOM      2  N   UNL     1      -0.370  10.486  22.098  0.00  0.00    +0.000 NA
ATOM      3  C   UNL     1       0.456  10.470  21.107  0.00  0.00    +0.000 C 
ATOM      4  C   UNL     1       1.003   9.207  20.627  0.00  0.00    +0.000 A 
ATOM      5  C   UNL     1       1.170   8.016  21.318  0.00  0.00    +0.000 A 
ATOM      6  C   UNL     1       1.763   7.166  20.408  0.00  0.00    +0.000 A 
ATOM      7  C   UNL     1       2.182   5.851  20.555  0.00  0.00    +0.000 A 
ATOM      8  C   UNL     1       2.754   5.203  19.431  0.00  0.00    +0.000 A 
ATOM      9  C   UNL     1       2.871   5.902  18.204  0.00  0.00    +0.000 A 
ATOM     10  C   UNL     1       2.455   7.242  18.093  0.00  0.00    +0.000 A 
ATOM     11  C   UNL     1       1.912   7.846  19.224  0.00  0.00    +0.000 A 
ATOM     12  N   UNL     1       1.457   9.103  19.358  0.00  0.00    +0.000 N 
ATOM     13  C   UNL     1       1.460  10.190  18.370  0.00  0.00    +0.000 C 
ATOM     14  C   UNL     1       0.614  11.389  18.848  0.00  0.00    +0.000 C 
ATOM     15  N   UNL     1       0.729  11.604  20.284  0.00  0.00    +0.000 N 
ENDROOT
BRANCH   8  16
ATOM     16  O   UNL     1       3.200   3.923  19.490  0.00  0.00    +0.000 OA
ATOM     17  C   UNL     1       4.373   3.471  18.922  0.00  0.00    +0.000 C 
ENDBRANCH   8  16
BRANCH  15  18
ATOM     18  C   UNL     1       1.309  12.825  20.849  0.00  0.00    +0.000 C 
BRANCH  18  19
ATOM     19  C   UNL     1       1.089  14.073  20.024  0.00  0.00    +0.000 A 
ATOM     20  C   UNL     1       2.108  14.689  19.274  0.00  0.00    +0.000 A 
ATOM     21  C   UNL     1       1.860  15.869  18.577  0.00  0.00    +0.000 A 
ATOM     22  C   UNL     1       0.591  16.446  18.604  0.00  0.00    +0.000 A 
ATOM     23  C   UNL     1      -0.442  15.835  19.328  0.00  0.00    +0.000 A 
ATOM     24  C   UNL     1      -0.192  14.654  20.030  0.00  0.00    +0.000 A 
ENDBRANCH  18  19
ENDBRANCH  15  18
TORSDOF 3
ENDMDL
