MODEL 1
REMARK VINA RESULT:      -9.2      0.000      0.000
REMARK  Name = 
REMARK  7 active torsions:
REMARK  status: ('A' for Active; 'I' for Inactive)
REMARK    1  A    between atoms: C_1  and  O_2
REMARK    2  A    between atoms: O_2  and  C_3
REMARK    3  A    between atoms: C_6  and  C_7
REMARK    4  A    between atoms: C_8  and  C_9
REMARK    5  A    between atoms: C_12  and  C_13
REMARK    6  A    between atoms: C_20  and  C_21
REMARK    7  A    between atoms: C_20  and  C_22
REMARK                            x       y       z     vdW  Elec       q    Type
REMARK                         _______ _______ _______ _____ _____    ______ ____
ROOT
ATOM      1  C   UNL     1       7.426   7.524  17.870  0.00  0.00    +0.000 A 
ATOM      2  C   UNL     1       6.394   7.679  16.943  0.00  0.00    +0.000 A 
ATOM      3  C   UNL     1       5.614   6.580  16.581  0.00  0.00    +0.000 A 
ATOM      4  C   UNL     1       5.815   5.337  17.198  0.00  0.00    +0.000 A 
ATOM      5  C   UNL     1       6.870   5.178  18.101  0.00  0.00    +0.000 A 
ATOM      6  C   UNL     1       7.676   6.272  18.436  0.00  0.00    +0.000 A 
ENDROOT
BRANCH   4   7
ATOM      7  C   UNL     1       4.914   4.181  16.924  0.00  0.00    +0.000 C 
ATOM      8  O   UNL     1       5.318   3.289  16.180  0.00  0.00    +0.000 OA
ATOM      9  N   UNL     1       3.658   4.135  17.540  0.00  0.00    +0.000 N 
ATOM     10  C   UNL     1       2.764   3.028  17.194  0.00  0.00    +0.000 C 
ATOM     11  C   UNL     1       1.399   3.121  17.859  0.00  0.00    +0.000 C 
ATOM     12  C   UNL     1       1.523   3.350  19.353  0.00  0.00    +0.000 C 
ATOM     13  O   UNL     1       0.623   2.991  20.115  0.00  0.00    +0.000 OA
ATOM     14  C   UNL     1       2.759   4.080  19.866  0.00  0.00    +0.000 C 
ATOM     15  C   UNL     1       3.792   3.060  20.359  0.00  0.00    +0.000 C 
ATOM     16  C   UNL     1       2.401   5.038  21.012  0.00  0.00    +0.000 C 
ATOM     17  C   UNL     1       3.306   4.927  18.717  0.00  0.00    +0.000 C 
ENDBRANCH   4   7
BRANCH   1  19
ATOM     18  C   UNL     1       8.901   9.596  18.529  0.00  0.00    +0.000 C 
ATOM     19  C   UNL     1       8.222   8.652  18.235  0.00  0.00    +0.000 C 
BRANCH  18  23
ATOM     20  C   UNL     1      11.256  12.958  19.546  0.00  0.00    +0.000 A 
ATOM     21  C   UNL     1      11.126  12.572  18.209  0.00  0.00    +0.000 A 
ATOM     22  C   UNL     1      10.345  11.461  17.863  0.00  0.00    +0.000 A 
ATOM     23  C   UNL     1       9.710  10.727  18.866  0.00  0.00    +0.000 A 
ATOM     24  C   UNL     1       9.864  11.091  20.204  0.00  0.00    +0.000 A 
ATOM     25  C   UNL     1      10.639  12.203  20.544  0.00  0.00    +0.000 A 
BRANCH  20  27
ATOM     26  C   UNL     1      11.671  15.223  19.032  0.00  0.00    +0.000 C 
ATOM     27  O   UNL     1      12.039  14.057  19.763  0.00  0.00    +0.000 OA
ENDBRANCH  20  27
ENDBRANCH  18  23
ENDBRANCH   1  19
TORSDOF 4
ENDMDL
MODEL 2
REMARK VINA RESULT:      -9.1      0.308      1.350
REMARK  Name = 
REMARK  7 active torsions:
REMARK  status: ('A' for Active; 'I' for Inactive)
REMARK    1  A    between atoms: C_1  and  O_2
REMARK    2  A    between atoms: O_2  and  C_3
REMARK    3  A    between atoms: C_6  and  C_7
REMARK    4  A    between atoms: C_8  and  C_9
REMARK    5  A    between atoms: C_12  and  C_13
REMARK    6  A    between atoms: C_20  and  C_21
REMARK    7  A    between atoms: C_20  and  C_22
REMARK                            x       y       z     vdW  Elec       q    Type
REMARK                         _______ _______ _______ _____ _____    ______ ____
ROOT
ATOM      1  C   UNL     1       7.461   7.664  17.957  0.00  0.00    +0.000 A 
ATOM      2  C   UNL     1       7.772   6.424  18.517  0.00  0.00    +0.000 A 
ATOM      3  C   UNL     1       6.949   5.324  18.267  0.00  0.00    +0.000 A 
ATOM      4  C   UNL     1       5.855   5.443  17.399  0.00  0.00    +0.000 A 
ATOM      5  C   UNL     1       5.528   6.694  16.867  0.00  0.00    +0.000 A 
ATOM      6  C   UNL     1       6.332   7.804  17.148  0.00  0.00    +0.000 A 
ENDROOT
BRANCH   4   7
ATOM      7  C   UNL     1       5.037   4.257  17.015  0.00  0.00    +0.000 C 
ATOM      8  O   UNL     1       5.503   3.465  16.198  0.00  0.00    +0.000 OA
ATOM      9  N   UNL     1       3.785   4.069  17.614  0.00  0.00    +0.000 N 
ATOM     10  C   UNL     1       2.971   2.939  17.163  0.00  0.00    +0.000 C 
ATOM     11  C   UNL     1       1.601   2.878  17.821  0.00  0.00    +0.000 C 
ATOM     12  C   UNL     1       1.705   2.980  19.331  0.00  0.00    +0.000 C 
ATOM     13  O   UNL     1       0.830   2.493  20.050  0.00  0.00    +0.000 OA
ATOM     14  C   UNL     1       2.886   3.745  19.918  0.00  0.00    +0.000 C 
ATOM     15  C   UNL     1       3.986   2.757  20.327  0.00  0.00    +0.000 C 
ATOM     16  C   UNL     1       2.460   4.569  21.141  0.00  0.00    +0.000 C 
ATOM     17  C   UNL     1       3.376   4.727  18.854  0.00  0.00    +0.000 C 
ENDBRANCH   4   7
BRANCH   1  19
ATOM     18  C   UNL     1       9.009   9.729  18.452  0.00  0.00    +0.000 C 
ATOM     19  C   UNL     1       8.306   8.787  18.218  0.00  0.00    +0.000 C 
BRANCH  18  23
ATOM     20  C   UNL     1      11.541  13.010  19.292  0.00  0.00    +0.000 A 
ATOM     21  C   UNL     1      10.853  12.372  20.328  0.00  0.00    +0.000 A 
ATOM     22  C   UNL     1      10.015  11.283  20.059  0.00  0.00    +0.000 A 
ATOM     23  C   UNL     1       9.854  10.847  18.743  0.00  0.00    +0.000 A 
ATOM     24  C   UNL     1      10.514  11.502  17.703  0.00  0.00    +0.000 A 
ATOM     25  C   UNL     1      11.354  12.585  17.977  0.00  0.00    +0.000 A 
BRANCH  20  27
ATOM     26  C   UNL     1      12.117  15.275  18.965  0.00  0.00    +0.000 C 
ATOM     27  O   UNL     1      12.332  14.058  19.674  0.00  0.00    +0.000 OA
ENDBRANCH  20  27
ENDBRANCH  18  23
ENDBRANCH   1  19
TORSDOF 4
ENDMDL
MODEL 3
REMARK VINA RESULT:      -8.0      3.298     11.079
REMARK  Name = 
REMARK  7 active torsions:
REMARK  status: ('A' for Active; 'I' for Inactive)
REMARK    1  A    between atoms: C_1  and  O_2
REMARK    2  A    between atoms: O_2  and  C_3
REMARK    3  A    between atoms: C_6  and  C_7
REMARK    4  A    between atoms: C_8  and  C_9
REMARK    5  A    between atoms: C_12  and  C_13
REMARK    6  A    between atoms: C_20  and  C_21
REMARK    7  A    between atoms: C_20  and  C_22
REMARK                            x       y       z     vdW  Elec       q    Type
REMARK                         _______ _______ _______ _____ _____    ______ ____
ROOT
ATOM      1  C   UNL     1       9.132  10.268  18.619  0.00  0.00    +0.000 A 
ATOM      2  C   UNL     1       9.414  10.501  19.966  0.00  0.00    +0.000 A 
ATOM      3  C   UNL     1      10.114  11.649  20.339  0.00  0.00    +0.000 A 
ATOM      4  C   UNL     1      10.471  12.604  19.377  0.00  0.00    +0.000 A 
ATOM      5  C   UNL     1      10.216  12.351  18.026  0.00  0.00    +0.000 A 
ATOM      6  C   UNL     1       9.547  11.182  17.648  0.00  0.00    +0.000 A 
ENDROOT
BRANCH   4   7
ATOM      7  C   UNL     1      11.105  13.897  19.765  0.00  0.00    +0.000 C 
ATOM      8  O   UNL     1      12.332  13.969  19.767  0.00  0.00    +0.000 OA
ATOM      9  N   UNL     1      10.287  14.988  20.086  0.00  0.00    +0.000 N 
ATOM     10  C   UNL     1      10.934  16.221  20.537  0.00  0.00    +0.000 C 
ATOM     11  C   UNL     1       9.950  17.311  20.934  0.00  0.00    +0.000 C 
ATOM     12  C   UNL     1       8.907  17.538  19.856  0.00  0.00    +0.000 C 
ATOM     13  O   UNL     1       8.346  18.631  19.752  0.00  0.00    +0.000 OA
ATOM     14  C   UNL     1       8.542  16.365  18.954  0.00  0.00    +0.000 C 
ATOM     15  C   UNL     1       9.321  16.467  17.637  0.00  0.00    +0.000 C 
ATOM     16  C   UNL     1       7.036  16.342  18.655  0.00  0.00    +0.000 C 
ATOM     17  C   UNL     1       8.878  15.078  19.709  0.00  0.00    +0.000 C 
ENDBRANCH   4   7
BRANCH   1  19
ATOM     18  C   UNL     1       7.807   8.104  17.936  0.00  0.00    +0.000 C 
ATOM     19  C   UNL     1       8.417   9.090  18.242  0.00  0.00    +0.000 C 
BRANCH  18  23
ATOM     20  C   UNL     1       5.579   4.670  16.874  0.00  0.00    +0.000 A 
ATOM     21  C   UNL     1       6.680   4.555  17.727  0.00  0.00    +0.000 A 
ATOM     22  C   UNL     1       7.421   5.688  18.087  0.00  0.00    +0.000 A 
ATOM     23  C   UNL     1       7.066   6.935  17.571  0.00  0.00    +0.000 A 
ATOM     24  C   UNL     1       5.987   7.048  16.694  0.00  0.00    +0.000 A 
ATOM     25  C   UNL     1       5.246   5.917  16.343  0.00  0.00    +0.000 A 
BRANCH  20  27
ATOM     26  C   UNL     1       4.079   3.013  17.630  0.00  0.00    +0.000 C 
ATOM     27  O   UNL     1       4.930   3.499  16.596  0.00  0.00    +0.000 OA
ENDBRANCH  20  27
ENDBRANCH  18  23
ENDBRANCH   1  19
TORSDOF 4
ENDMDL
MODEL 4
REMARK VINA RESULT:      -7.9      0.974      1.463
REMARK  Name = 
REMARK  7 active torsions:
REMARK  status: ('A' for Active; 'I' for Inactive)
REMARK    1  A    between atoms: C_1  and  O_2
REMARK    2  A    between atoms: O_2  and  C_3
REMARK    3  A    between atoms: C_6  and  C_7
REMARK    4  A    between atoms: C_8  and  C_9
REMARK    5  A    between atoms: C_12  and  C_13
REMARK    6  A    between atoms: C_20  and  C_21
REMARK    7  A    between atoms: C_20  and  C_22
REMARK                            x       y       z     vdW  Elec       q    Type
REMARK                         _______ _______ _______ _____ _____    ______ ____
ROOT
ATOM      1  C   UNL     1       8.102   8.176  18.222  0.00  0.00    +0.000 A 
ATOM      2  C   UNL     1       8.276   7.022  18.987  0.00  0.00    +0.000 A 
ATOM      3  C   UNL     1       7.576   5.860  18.659  0.00  0.00    +0.000 A 
ATOM      4  C   UNL     1       6.755   5.826  17.523  0.00  0.00    +0.000 A 
ATOM      5  C   UNL     1       6.558   6.994  16.779  0.00  0.00    +0.000 A 
ATOM      6  C   UNL     1       7.231   8.169  17.130  0.00  0.00    +0.000 A 
ENDROOT
BRANCH   4   7
ATOM      7  C   UNL     1       6.098   4.564  17.078  0.00  0.00    +0.000 C 
ATOM      8  O   UNL     1       6.775   3.734  16.474  0.00  0.00    +0.000 OA
ATOM      9  N   UNL     1       4.748   4.354  17.385  0.00  0.00    +0.000 N 
ATOM     10  C   UNL     1       4.108   3.142  16.870  0.00  0.00    +0.000 C 
ATOM     11  C   UNL     1       2.624   3.055  17.194  0.00  0.00    +0.000 C 
ATOM     12  C   UNL     1       2.363   3.294  18.669  0.00  0.00    +0.000 C 
ATOM     13  O   UNL     1       1.362   2.819  19.209  0.00  0.00    +0.000 OA
ATOM     14  C   UNL     1       3.341   4.177  19.436  0.00  0.00    +0.000 C 
ATOM     15  C   UNL     1       4.349   3.297  20.185  0.00  0.00    +0.000 C 
ATOM     16  C   UNL     1       2.605   5.076  20.440  0.00  0.00    +0.000 C 
ATOM     17  C   UNL     1       4.032   5.091  18.424  0.00  0.00    +0.000 C 
ENDBRANCH   4   7
BRANCH   1  19
ATOM     18  C   UNL     1       9.425  10.354  18.865  0.00  0.00    +0.000 C 
ATOM     19  C   UNL     1       8.820   9.364  18.564  0.00  0.00    +0.000 C 
BRANCH  18  23
ATOM     20  C   UNL     1      11.559  13.847  19.925  0.00  0.00    +0.000 A 
ATOM     21  C   UNL     1      12.091  12.959  18.987  0.00  0.00    +0.000 A 
ATOM     22  C   UNL     1      11.389  11.801  18.628  0.00  0.00    +0.000 A 
ATOM     23  C   UNL     1      10.159  11.528  19.228  0.00  0.00    +0.000 A 
ATOM     24  C   UNL     1       9.641  12.396  20.188  0.00  0.00    +0.000 A 
ATOM     25  C   UNL     1      10.341  13.553  20.539  0.00  0.00    +0.000 A 
BRANCH  20  27
ATOM     26  C   UNL     1      11.637  16.188  20.213  0.00  0.00    +0.000 C 
ATOM     27  O   UNL     1      12.330  14.944  20.195  0.00  0.00    +0.000 OA
ENDBRANCH  20  27
ENDBRANCH  18  23
ENDBRANCH   1  19
TORSDOF 4
ENDMDL
MODEL 5
REMARK VINA RESULT:      -7.9      3.407     11.058
REMARK  Name = 
REMARK  7 active torsions:
REMARK  status: ('A' for Active; 'I' for Inactive)
REMARK    1  A    between atoms: C_1  and  O_2
REMARK    2  A    between atoms: O_2  and  C_3
REMARK    3  A    between atoms: C_6  and  C_7
REMARK    4  A    between atoms: C_8  and  C_9
REMARK    5  A    between atoms: C_12  and  C_13
REMARK    6  A    between atoms: C_20  and  C_21
REMARK    7  A    between atoms: C_20  and  C_22
REMARK                            x       y       z     vdW  Elec       q    Type
REMARK                         _______ _______ _______ _____ _____    ______ ____
ROOT
ATOM      1  C   UNL     1       9.239  10.453  18.693  0.00  0.00    +0.000 A 
ATOM      2  C   UNL     1       9.722  10.605  19.994  0.00  0.00    +0.000 A 
ATOM      3  C   UNL     1      10.393  11.775  20.352  0.00  0.00    +0.000 A 
ATOM      4  C   UNL     1      10.519  12.828  19.435  0.00  0.00    +0.000 A 
ATOM      5  C   UNL     1      10.062  12.658  18.124  0.00  0.00    +0.000 A 
ATOM      6  C   UNL     1       9.423  11.470  17.754  0.00  0.00    +0.000 A 
ENDROOT
BRANCH   4   7
ATOM      7  C   UNL     1      11.116  14.135  19.831  0.00  0.00    +0.000 C 
ATOM      8  O   UNL     1      12.323  14.301  19.663  0.00  0.00    +0.000 OA
ATOM      9  N   UNL     1      10.285  15.134  20.352  0.00  0.00    +0.000 N 
ATOM     10  C   UNL     1      10.909  16.379  20.804  0.00  0.00    +0.000 C 
ATOM     11  C   UNL     1       9.925  17.360  21.425  0.00  0.00    +0.000 C 
ATOM     12  C   UNL     1       8.721  17.580  20.530  0.00  0.00    +0.000 C 
ATOM     13  O   UNL     1       8.080  18.631  20.596  0.00  0.00    +0.000 OA
ATOM     14  C   UNL     1       8.304  16.448  19.598  0.00  0.00    +0.000 C 
ATOM     15  C   UNL     1       8.870  16.703  18.195  0.00  0.00    +0.000 C 
ATOM     16  C   UNL     1       6.775  16.331  19.517  0.00  0.00    +0.000 C 
ATOM     17  C   UNL     1       8.832  15.142  20.190  0.00  0.00    +0.000 C 
ENDBRANCH   4   7
BRANCH   1  19
ATOM     18  C   UNL     1       7.968   8.250  18.031  0.00  0.00    +0.000 C 
ATOM     19  C   UNL     1       8.555   9.252  18.331  0.00  0.00    +0.000 C 
BRANCH  18  23
ATOM     20  C   UNL     1       5.908   4.725  16.932  0.00  0.00    +0.000 A 
ATOM     21  C   UNL     1       5.496   5.962  16.430  0.00  0.00    +0.000 A 
ATOM     22  C   UNL     1       6.175   7.135  16.786  0.00  0.00    +0.000 A 
ATOM     23  C   UNL     1       7.258   7.064  17.664  0.00  0.00    +0.000 A 
ATOM     24  C   UNL     1       7.651   5.834  18.192  0.00  0.00    +0.000 A 
ATOM     25  C   UNL     1       6.975   4.665  17.830  0.00  0.00    +0.000 A 
BRANCH  20  27
ATOM     26  C   UNL     1       4.101   3.272  17.371  0.00  0.00    +0.000 C 
ATOM     27  O   UNL     1       5.173   3.650  16.514  0.00  0.00    +0.000 OA
ENDBRANCH  20  27
ENDBRANCH  18  23
ENDBRANCH   1  19
TORSDOF 4
ENDMDL
MODEL 6
REMARK VINA RESULT:      -7.8      8.094     11.634
REMARK  Name = 
REMARK  7 active torsions:
REMARK  status: ('A' for Active; 'I' for Inactive)
REMARK    1  A    between atoms: C_1  and  O_2
REMARK    2  A    between atoms: O_2  and  C_3
REMARK    3  A    between atoms: C_6  and  C_7
REMARK    4  A    between atoms: C_8  and  C_9
REMARK    5  A    between atoms: C_12  and  C_13
REMARK    6  A    between atoms: C_20  and  C_21
REMARK    7  A    between atoms: C_20  and  C_22
REMARK                            x       y       z     vdW  Elec       q    Type
REMARK                         _______ _______ _______ _____ _____    ______ ____
ROOT
ATOM      1  C   UNL     1       0.333   9.604  21.596  0.00  0.00    +0.000 A 
ATOM      2  C   UNL     1       0.489  10.833  20.954  0.00  0.00    +0.000 A 
ATOM      3  C   UNL     1      -0.155  11.965  21.456  0.00  0.00    +0.000 A 
ATOM      4  C   UNL     1      -0.898  11.888  22.642  0.00  0.00    +0.000 A 
ATOM      5  C   UNL     1      -1.079  10.648  23.264  0.00  0.00    +0.000 A 
ATOM      6  C   UNL     1      -0.464   9.507  22.739  0.00  0.00    +0.000 A 
ENDROOT
BRANCH   4   7
ATOM      7  C   UNL     1      -1.488  13.105  23.268  0.00  0.00    +0.000 C 
ATOM      8  O   UNL     1      -0.728  13.939  23.756  0.00  0.00    +0.000 OA
ATOM      9  N   UNL     1      -2.879  13.272  23.256  0.00  0.00    +0.000 N 
ATOM     10  C   UNL     1      -3.436  14.438  23.944  0.00  0.00    +0.000 C 
ATOM     11  C   UNL     1      -4.957  14.477  23.937  0.00  0.00    +0.000 C 
ATOM     12  C   UNL     1      -5.511  14.282  22.539  0.00  0.00    +0.000 C 
ATOM     13  O   UNL     1      -6.617  14.735  22.237  0.00  0.00    +0.000 OA
ATOM     14  C   UNL     1      -4.686  13.468  21.548  0.00  0.00    +0.000 C 
ATOM     15  C   UNL     1      -3.883  14.414  20.647  0.00  0.00    +0.000 C 
ATOM     16  C   UNL     1      -5.585  12.576  20.679  0.00  0.00    +0.000 C 
ATOM     17  C   UNL     1      -3.771  12.546  22.355  0.00  0.00    +0.000 C 
ENDBRANCH   4   7
BRANCH   1  19
ATOM     18  C   UNL     1       1.533   7.468  20.644  0.00  0.00    +0.000 C 
ATOM     19  C   UNL     1       0.992   8.447  21.077  0.00  0.00    +0.000 C 
BRANCH  18  23
ATOM     20  C   UNL     1       3.422   4.000  19.132  0.00  0.00    +0.000 A 
ATOM     21  C   UNL     1       3.647   5.241  18.528  0.00  0.00    +0.000 A 
ATOM     22  C   UNL     1       3.027   6.395  19.025  0.00  0.00    +0.000 A 
ATOM     23  C   UNL     1       2.166   6.298  20.119  0.00  0.00    +0.000 A 
ATOM     24  C   UNL     1       1.915   5.056  20.703  0.00  0.00    +0.000 A 
ATOM     25  C   UNL     1       2.539   3.908  20.209  0.00  0.00    +0.000 A 
BRANCH  20  27
ATOM     26  C   UNL     1       3.336   1.736  18.475  0.00  0.00    +0.000 C 
ATOM     27  O   UNL     1       4.082   2.946  18.565  0.00  0.00    +0.000 OA
ENDBRANCH  20  27
ENDBRANCH  18  23
ENDBRANCH   1  19
TORSDOF 4
ENDMDL
MODEL 7
REMARK VINA RESULT:      -7.7      3.363     11.135
REMARK  Name = 
REMARK  7 active torsions:
REMARK  status: ('A' for Active; 'I' for Inactive)
REMARK    1  A    between atoms: C_1  and  O_2
REMARK    2  A    between atoms: O_2  and  C_3
REMARK    3  A    between atoms: C_6  and  C_7
REMARK    4  A    between atoms: C_8  and  C_9
REMARK    5  A    between atoms: C_12  and  C_13
REMARK    6  A    between atoms: C_20  and  C_21
REMARK    7  A    between atoms: C_20  and  C_22
REMARK                            x       y       z     vdW  Elec       q    Type
REMARK                         _______ _______ _______ _____ _____    ______ ____
ROOT
ATOM      1  C   UNL     1       8.969  10.474  18.394  0.00  0.00    +0.000 A 
ATOM      2  C   UNL     1       8.701  11.650  17.694  0.00  0.00    +0.000 A 
ATOM      3  C   UNL     1       9.383  12.823  18.019  0.00  0.00    +0.000 A 
ATOM      4  C   UNL     1      10.388  12.808  18.997  0.00  0.00    +0.000 A 
ATOM      5  C   UNL     1      10.631  11.635  19.719  0.00  0.00    +0.000 A 
ATOM      6  C   UNL     1       9.920  10.469  19.417  0.00  0.00    +0.000 A 
ENDROOT
BRANCH   4   7
ATOM      7  C   UNL     1      11.219  14.014  19.273  0.00  0.00    +0.000 C 
ATOM      8  O   UNL     1      12.285  14.140  18.673  0.00  0.00    +0.000 OA
ATOM      9  N   UNL     1      10.750  14.972  20.181  0.00  0.00    +0.000 N 
ATOM     10  C   UNL     1      11.621  16.108  20.492  0.00  0.00    +0.000 C 
ATOM     11  C   UNL     1      11.047  17.041  21.548  0.00  0.00    +0.000 C 
ATOM     12  C   UNL     1       9.623  17.446  21.216  0.00  0.00    +0.000 C 
ATOM     13  O   UNL     1       9.163  18.509  21.638  0.00  0.00    +0.000 OA
ATOM     14  C   UNL     1       8.775  16.479  20.397  0.00  0.00    +0.000 C 
ATOM     15  C   UNL     1       8.795  16.898  18.922  0.00  0.00    +0.000 C 
ATOM     16  C   UNL     1       7.324  16.453  20.900  0.00  0.00    +0.000 C 
ATOM     17  C   UNL     1       9.352  15.077  20.593  0.00  0.00    +0.000 C 
ENDBRANCH   4   7
BRANCH   1  19
ATOM     18  C   UNL     1       7.686   8.263  17.783  0.00  0.00    +0.000 C 
ATOM     19  C   UNL     1       8.265   9.276  18.059  0.00  0.00    +0.000 C 
BRANCH  18  23
ATOM     20  C   UNL     1       5.684   4.662  16.832  0.00  0.00    +0.000 A 
ATOM     21  C   UNL     1       5.122   5.891  16.477  0.00  0.00    +0.000 A 
ATOM     22  C   UNL     1       5.780   7.089  16.786  0.00  0.00    +0.000 A 
ATOM     23  C   UNL     1       6.996   7.049  17.469  0.00  0.00    +0.000 A 
ATOM     24  C   UNL     1       7.544   5.825  17.853  0.00  0.00    +0.000 A 
ATOM     25  C   UNL     1       6.887   4.632  17.538  0.00  0.00    +0.000 A 
BRANCH  20  27
ATOM     26  C   UNL     1       3.980   3.142  17.427  0.00  0.00    +0.000 C 
ATOM     27  O   UNL     1       4.955   3.561  16.477  0.00  0.00    +0.000 OA
ENDBRANCH  20  27
ENDBRANCH  18  23
ENDBRANCH   1  19
TORSDOF 4
ENDMDL
MODEL 8
REMARK VINA RESULT:      -7.7      6.559      8.870
REMARK  Name = 
REMARK  7 active torsions:
REMARK  status: ('A' for Active; 'I' for Inactive)
REMARK    1  A    between atoms: C_1  and  O_2
REMARK    2  A    between atoms: O_2  and  C_3
REMARK    3  A    between atoms: C_6  and  C_7
REMARK    4  A    between atoms: C_8  and  C_9
REMARK    5  A    between atoms: C_12  and  C_13
REMARK    6  A    between atoms: C_20  and  C_21
REMARK    7  A    between atoms: C_20  and  C_22
REMARK                            x       y       z     vdW  Elec       q    Type
REMARK                         _______ _______ _______ _____ _____    ______ ____
ROOT
ATOM      1  C   UNL     1       0.677   9.562  20.536  0.00  0.00    +0.000 A 
ATOM      2  C   UNL     1       1.182   8.406  21.134  0.00  0.00    +0.000 A 
ATOM      3  C   UNL     1       1.909   7.491  20.371  0.00  0.00    +0.000 A 
ATOM      4  C   UNL     1       2.196   7.762  19.026  0.00  0.00    +0.000 A 
ATOM      5  C   UNL     1       1.661   8.904  18.423  0.00  0.00    +0.000 A 
ATOM      6  C   UNL     1       0.901   9.803  19.178  0.00  0.00    +0.000 A 
ENDROOT
BRANCH   4   7
ATOM      7  C   UNL     1       3.077   6.864  18.225  0.00  0.00    +0.000 C 
ATOM      8  O   UNL     1       4.107   7.333  17.744  0.00  0.00    +0.000 OA
ATOM      9  N   UNL     1       2.720   5.519  18.071  0.00  0.00    +0.000 N 
ATOM     10  C   UNL     1       3.562   4.679  17.216  0.00  0.00    +0.000 C 
ATOM     11  C   UNL     1       3.037   3.260  17.055  0.00  0.00    +0.000 C 
ATOM     12  C   UNL     1       2.723   2.629  18.398  0.00  0.00    +0.000 C 
ATOM     13  O   UNL     1       2.751   1.404  18.532  0.00  0.00    +0.000 OA
ATOM     14  C   UNL     1       2.321   3.548  19.546  0.00  0.00    +0.000 C 
ATOM     15  C   UNL     1       3.541   3.827  20.433  0.00  0.00    +0.000 C 
ATOM     16  C   UNL     1       1.206   2.920  20.395  0.00  0.00    +0.000 C 
ATOM     17  C   UNL     1       1.762   4.833  18.936  0.00  0.00    +0.000 C 
ENDBRANCH   4   7
BRANCH   1  19
ATOM     18  C   UNL     1      -0.684  11.288  21.975  0.00  0.00    +0.000 C 
ATOM     19  C   UNL     1      -0.068  10.495  21.320  0.00  0.00    +0.000 C 
BRANCH  18  23
ATOM     20  C   UNL     1      -2.892  14.114  24.217  0.00  0.00    +0.000 A 
ATOM     21  C   UNL     1      -1.608  14.428  23.763  0.00  0.00    +0.000 A 
ATOM     22  C   UNL     1      -0.871  13.499  23.017  0.00  0.00    +0.000 A 
ATOM     23  C   UNL     1      -1.420  12.245  22.744  0.00  0.00    +0.000 A 
ATOM     24  C   UNL     1      -2.688  11.917  23.222  0.00  0.00    +0.000 A 
ATOM     25  C   UNL     1      -3.423  12.849  23.961  0.00  0.00    +0.000 A 
BRANCH  20  27
ATOM     26  C   UNL     1      -3.228  16.430  24.516  0.00  0.00    +0.000 C 
ATOM     27  O   UNL     1      -3.517  15.098  24.931  0.00  0.00    +0.000 OA
ENDBRANCH  20  27
ENDBRANCH  18  23
ENDBRANCH   1  19
TORSDOF 4
ENDMDL
MODEL 9
REMARK VINA RESULT:      -7.6      6.033      8.451
REMARK  Name = 
REMARK  7 active torsions:
REMARK  status: ('A' for Active; 'I' for Inactive)
REMARK    1  A    between atoms: C_1  and  O_2
REMARK    2  A    between atoms: O_2  and  C_3
REMARK    3  A    between atoms: C_6  and  C_7
REMARK    4  A    between atoms: C_8  and  C_9
REMARK    5  A    between atoms: C_12  and  C_13
REMARK    6  A    between atoms: C_20  and  C_21
REMARK    7  A    between atoms: C_20  and  C_22
REMARK                            x       y       z     vdW  Elec       q    Type
REMARK                         _______ _______ _______ _____ _____    ______ ____
ROOT
ATOM      1  C   UNL     1       1.219   8.918  20.117  0.00  0.00    +0.000 A 
ATOM      2  C   UNL     1       1.498   8.992  18.751  0.00  0.00    +0.000 A 
ATOM      3  C   UNL     1       2.022   7.882  18.089  0.00  0.00    +0.000 A 
ATOM      4  C   UNL     1       2.203   6.671  18.772  0.00  0.00    +0.000 A 
ATOM      5  C   UNL     1       1.954   6.611  20.147  0.00  0.00    +0.000 A 
ATOM      6  C   UNL     1       1.463   7.736  20.819  0.00  0.00    +0.000 A 
ENDROOT
BRANCH   4   7
ATOM      7  C   UNL     1       2.640   5.436  18.061  0.00  0.00    +0.000 C 
ATOM      8  O   UNL     1       1.778   4.695  17.593  0.00  0.00    +0.000 OA
ATOM      9  N   UNL     1       4.010   5.176  17.924  0.00  0.00    +0.000 N 
ATOM     10  C   UNL     1       4.410   3.919  17.289  0.00  0.00    +0.000 C 
ATOM     11  C   UNL     1       5.916   3.704  17.266  0.00  0.00    +0.000 C 
ATOM     12  C   UNL     1       6.641   4.916  16.713  0.00  0.00    +0.000 C 
ATOM     13  O   UNL     1       7.745   4.792  16.179  0.00  0.00    +0.000 OA
ATOM     14  C   UNL     1       5.990   6.284  16.889  0.00  0.00    +0.000 C 
ATOM     15  C   UNL     1       5.243   6.666  15.605  0.00  0.00    +0.000 C 
ATOM     16  C   UNL     1       7.038   7.360  17.209  0.00  0.00    +0.000 C 
ATOM     17  C   UNL     1       5.045   6.196  18.087  0.00  0.00    +0.000 C 
ENDBRANCH   4   7
BRANCH   1  19
ATOM     18  C   UNL     1       0.221  11.013  21.352  0.00  0.00    +0.000 C 
ATOM     19  C   UNL     1       0.685  10.059  20.791  0.00  0.00    +0.000 C 
BRANCH  18  23
ATOM     20  C   UNL     1      -1.482  14.338  23.332  0.00  0.00    +0.000 A 
ATOM     21  C   UNL     1      -0.382  14.513  22.488  0.00  0.00    +0.000 A 
ATOM     22  C   UNL     1       0.187  13.417  21.826  0.00  0.00    +0.000 A 
ATOM     23  C   UNL     1      -0.341  12.141  22.028  0.00  0.00    +0.000 A 
ATOM     24  C   UNL     1      -1.419  11.959  22.895  0.00  0.00    +0.000 A 
ATOM     25  C   UNL     1      -1.987  13.056  23.549  0.00  0.00    +0.000 A 
BRANCH  20  27
ATOM     26  C   UNL     1      -2.542  15.303  25.206  0.00  0.00    +0.000 C 
ATOM     27  O   UNL     1      -1.953  15.478  23.921  0.00  0.00    +0.000 OA
ENDBRANCH  20  27
ENDBRANCH  18  23
ENDBRANCH   1  19
TORSDOF 4
ENDMDL
