MODEL 1
REMARK VINA RESULT:      -7.2      0.000      0.000
REMARK  Name = 
REMARK  2 active torsions:
REMARK  status: ('A' for Active; 'I' for Inactive)
REMARK    1  A    between atoms: C_2  and  C_5
REMARK    2  A    between atoms: C_8  and  C_9
REMARK                            x       y       z     vdW  Elec       q    Type
REMARK                         _______ _______ _______ _____ _____    ______ ____
ROOT
ATOM      1  C   UNL     1       2.374   3.622  18.993  0.00  0.00    +0.000 A 
ATOM      2  C   UNL     1       3.264   4.482  19.648  0.00  0.00    +0.000 A 
ATOM      3  C   UNL     1       4.387   4.979  18.986  0.00  0.00    +0.000 A 
ATOM      4  C   UNL     1       4.648   4.632  17.653  0.00  0.00    +0.000 A 
ATOM      5  C   UNL     1       3.766   3.759  17.003  0.00  0.00    +0.000 A 
ATOM      6  C   UNL     1       2.640   3.257  17.665  0.00  0.00    +0.000 A 
ENDROOT
BRANCH   4   7
ATOM      7  C   UNL     1       5.795   5.173  16.950  0.00  0.00    +0.000 A 
ATOM      8  C   UNL     1       6.432   4.626  15.859  0.00  0.00    +0.000 A 
ATOM      9  N   UNL     1       7.453   5.490  15.606  0.00  0.00    +0.000 N 
ATOM     10  N   UNL     1       7.454   6.519  16.464  0.00  0.00    +0.000 NA
ATOM     11  N   UNL     1       6.438   6.337  17.299  0.00  0.00    +0.000 NA
ATOM     12  H   UNL     1       8.173   5.447  14.892  0.00  0.00    +0.000 HD
ENDBRANCH   4   7
BRANCH   1  14
ATOM     13  F   UNL     1       0.287   2.442  18.872  0.00  0.00    +0.000 F 
ATOM     14  C   UNL     1       1.140   3.113  19.697  0.00  0.00    +0.000 C 
ATOM     15  F   UNL     1       0.407   4.112  20.258  0.00  0.00    +0.000 F 
ATOM     16  F   UNL     1       1.435   2.249  20.705  0.00  0.00    +0.000 F 
ENDBRANCH   1  14
TORSDOF 2
ENDMDL
MODEL 2
REMARK VINA RESULT:      -7.2      0.614      1.404
REMARK  Name = 
REMARK  2 active torsions:
REMARK  status: ('A' for Active; 'I' for Inactive)
REMARK    1  A    between atoms: C_2  and  C_5
REMARK    2  A    between atoms: C_8  and  C_9
REMARK                            x       y       z     vdW  Elec       q    Type
REMARK                         _______ _______ _______ _____ _____    ______ ____
ROOT
ATOM      1  C   UNL     1       2.336   3.639  19.185  0.00  0.00    +0.000 A 
ATOM      2  C   UNL     1       3.326   4.405  19.811  0.00  0.00    +0.000 A 
ATOM      3  C   UNL     1       4.460   4.813  19.107  0.00  0.00    +0.000 A 
ATOM      4  C   UNL     1       4.633   4.467  17.760  0.00  0.00    +0.000 A 
ATOM      5  C   UNL     1       3.649   3.687  17.137  0.00  0.00    +0.000 A 
ATOM      6  C   UNL     1       2.513   3.275  17.841  0.00  0.00    +0.000 A 
ENDROOT
BRANCH   4   7
ATOM      7  C   UNL     1       5.792   4.917  17.014  0.00  0.00    +0.000 A 
ATOM      8  C   UNL     1       6.417   6.139  17.112  0.00  0.00    +0.000 A 
ATOM      9  N   UNL     1       7.416   6.075  16.189  0.00  0.00    +0.000 N 
ATOM     10  N   UNL     1       7.433   4.890  15.563  0.00  0.00    +0.000 NA
ATOM     11  N   UNL     1       6.438   4.167  16.060  0.00  0.00    +0.000 NA
ATOM     12  H   UNL     1       8.103   6.775  15.932  0.00  0.00    +0.000 HD
ENDBRANCH   4   7
BRANCH   1  14
ATOM     13  F   UNL     1       1.352   2.452  21.024  0.00  0.00    +0.000 F 
ATOM     14  C   UNL     1       1.094   3.229  19.934  0.00  0.00    +0.000 C 
ATOM     15  F   UNL     1       0.229   2.514  19.164  0.00  0.00    +0.000 F 
ATOM     16  F   UNL     1       0.390   4.296  20.401  0.00  0.00    +0.000 F 
ENDBRANCH   1  14
TORSDOF 2
ENDMDL
MODEL 3
REMARK VINA RESULT:      -7.2      0.295      1.612
REMARK  Name = 
REMARK  2 active torsions:
REMARK  status: ('A' for Active; 'I' for Inactive)
REMARK    1  A    between atoms: C_2  and  C_5
REMARK    2  A    between atoms: C_8  and  C_9
REMARK                            x       y       z     vdW  Elec       q    Type
REMARK                         _______ _______ _______ _____ _____    ______ ____
ROOT
ATOM      1  C   UNL     1       2.294   3.724  19.113  0.00  0.00    +0.000 A 
ATOM      2  C   UNL     1       2.452   3.337  17.778  0.00  0.00    +0.000 A 
ATOM      3  C   UNL     1       3.571   3.743  17.049  0.00  0.00    +0.000 A 
ATOM      4  C   UNL     1       4.560   4.544  17.637  0.00  0.00    +0.000 A 
ATOM      5  C   UNL     1       4.393   4.945  18.969  0.00  0.00    +0.000 A 
ATOM      6  C   UNL     1       3.271   4.541  19.701  0.00  0.00    +0.000 A 
ENDROOT
BRANCH   4   7
ATOM      7  C   UNL     1       5.741   4.940  16.894  0.00  0.00    +0.000 A 
ATOM      8  C   UNL     1       6.433   4.186  15.974  0.00  0.00    +0.000 A 
ATOM      9  N   UNL     1       7.466   4.989  15.599  0.00  0.00    +0.000 N 
ATOM     10  N   UNL     1       7.422   6.173  16.223  0.00  0.00    +0.000 NA
ATOM     11  N   UNL     1       6.365   6.158  17.025  0.00  0.00    +0.000 NA
ATOM     12  H   UNL     1       8.221   4.807  14.946  0.00  0.00    +0.000 HD
ENDBRANCH   4   7
BRANCH   1  14
ATOM     13  F   UNL     1       1.440   2.465  20.971  0.00  0.00    +0.000 F 
ATOM     14  C   UNL     1       1.103   3.256  19.912  0.00  0.00    +0.000 C 
ATOM     15  F   UNL     1       0.225   2.530  19.169  0.00  0.00    +0.000 F 
ATOM     16  F   UNL     1       0.389   4.289  20.437  0.00  0.00    +0.000 F 
ENDBRANCH   1  14
TORSDOF 2
ENDMDL
MODEL 4
REMARK VINA RESULT:      -7.2      0.533      1.364
REMARK  Name = 
REMARK  2 active torsions:
REMARK  status: ('A' for Active; 'I' for Inactive)
REMARK    1  A    between atoms: C_2  and  C_5
REMARK    2  A    between atoms: C_8  and  C_9
REMARK                            x       y       z     vdW  Elec       q    Type
REMARK                         _______ _______ _______ _____ _____    ______ ____
ROOT
ATOM      1  C   UNL     1       2.387   3.566  18.988  0.00  0.00    +0.000 A 
ATOM      2  C   UNL     1       3.396   4.214  19.709  0.00  0.00    +0.000 A 
ATOM      3  C   UNL     1       4.525   4.713  19.058  0.00  0.00    +0.000 A 
ATOM      4  C   UNL     1       4.673   4.579  17.671  0.00  0.00    +0.000 A 
ATOM      5  C   UNL     1       3.670   3.917  16.951  0.00  0.00    +0.000 A 
ATOM      6  C   UNL     1       2.538   3.413  17.601  0.00  0.00    +0.000 A 
ENDROOT
BRANCH   4   7
ATOM      7  C   UNL     1       5.827   5.127  16.985  0.00  0.00    +0.000 A 
ATOM      8  C   UNL     1       6.454   6.325  17.243  0.00  0.00    +0.000 A 
ATOM      9  N   UNL     1       7.446   6.387  16.313  0.00  0.00    +0.000 N 
ATOM     10  N   UNL     1       7.458   5.298  15.532  0.00  0.00    +0.000 NA
ATOM     11  N   UNL     1       6.466   4.513  15.933  0.00  0.00    +0.000 NA
ATOM     12  H   UNL     1       8.131   7.115  16.148  0.00  0.00    +0.000 HD
ENDBRANCH   4   7
BRANCH   1  14
ATOM     13  F   UNL     1       0.386   4.052  20.222  0.00  0.00    +0.000 F 
ATOM     14  C   UNL     1       1.150   3.058  19.685  0.00  0.00    +0.000 C 
ATOM     15  F   UNL     1       1.436   2.213  20.712  0.00  0.00    +0.000 F 
ATOM     16  F   UNL     1       0.325   2.370  18.849  0.00  0.00    +0.000 F 
ENDBRANCH   1  14
TORSDOF 2
ENDMDL
MODEL 5
REMARK VINA RESULT:      -7.1      0.948      1.783
REMARK  Name = 
REMARK  2 active torsions:
REMARK  status: ('A' for Active; 'I' for Inactive)
REMARK    1  A    between atoms: C_2  and  C_5
REMARK    2  A    between atoms: C_8  and  C_9
REMARK                            x       y       z     vdW  Elec       q    Type
REMARK                         _______ _______ _______ _____ _____    ______ ____
ROOT
ATOM      1  C   UNL     1       2.181   3.536  19.261  0.00  0.00    +0.000 A 
ATOM      2  C   UNL     1       2.223   3.582  17.863  0.00  0.00    +0.000 A 
ATOM      3  C   UNL     1       3.420   3.851  17.197  0.00  0.00    +0.000 A 
ATOM      4  C   UNL     1       4.604   4.078  17.911  0.00  0.00    +0.000 A 
ATOM      5  C   UNL     1       4.560   4.047  19.311  0.00  0.00    +0.000 A 
ATOM      6  C   UNL     1       3.361   3.780  19.981  0.00  0.00    +0.000 A 
ENDROOT
BRANCH   4   7
ATOM      7  C   UNL     1       5.857   4.323  17.223  0.00  0.00    +0.000 A 
ATOM      8  C   UNL     1       6.039   4.498  15.870  0.00  0.00    +0.000 A 
ATOM      9  N   UNL     1       7.384   4.658  15.735  0.00  0.00    +0.000 N 
ATOM     10  N   UNL     1       8.008   4.605  16.920  0.00  0.00    +0.000 NA
ATOM     11  N   UNL     1       7.081   4.398  17.846  0.00  0.00    +0.000 NA
ATOM     12  H   UNL     1       7.937   4.799  14.897  0.00  0.00    +0.000 HD
ENDBRANCH   4   7
BRANCH   1  14
ATOM     13  F   UNL     1       0.212   4.316  20.391  0.00  0.00    +0.000 F 
ATOM     14  C   UNL     1       0.897   3.211  19.981  0.00  0.00    +0.000 C 
ATOM     15  F   UNL     1       1.097   2.461  21.099  0.00  0.00    +0.000 F 
ATOM     16  F   UNL     1       0.029   2.506  19.205  0.00  0.00    +0.000 F 
ENDBRANCH   1  14
TORSDOF 2
ENDMDL
MODEL 6
REMARK VINA RESULT:      -7.1      1.009      1.805
REMARK  Name = 
REMARK  2 active torsions:
REMARK  status: ('A' for Active; 'I' for Inactive)
REMARK    1  A    between atoms: C_2  and  C_5
REMARK    2  A    between atoms: C_8  and  C_9
REMARK                            x       y       z     vdW  Elec       q    Type
REMARK                         _______ _______ _______ _____ _____    ______ ____
ROOT
ATOM      1  C   UNL     1       2.185   3.573  18.714  0.00  0.00    +0.000 A 
ATOM      2  C   UNL     1       3.072   2.637  18.169  0.00  0.00    +0.000 A 
ATOM      3  C   UNL     1       4.142   3.052  17.373  0.00  0.00    +0.000 A 
ATOM      4  C   UNL     1       4.352   4.412  17.104  0.00  0.00    +0.000 A 
ATOM      5  C   UNL     1       3.455   5.347  17.637  0.00  0.00    +0.000 A 
ATOM      6  C   UNL     1       2.381   4.933  18.433  0.00  0.00    +0.000 A 
ENDROOT
BRANCH   4   7
ATOM      7  C   UNL     1       5.481   4.850  16.307  0.00  0.00    +0.000 A 
ATOM      8  C   UNL     1       6.746   5.153  16.758  0.00  0.00    +0.000 A 
ATOM      9  N   UNL     1       7.412   5.541  15.637  0.00  0.00    +0.000 N 
ATOM     10  N   UNL     1       6.631   5.473  14.550  0.00  0.00    +0.000 NA
ATOM     11  N   UNL     1       5.438   5.050  14.948  0.00  0.00    +0.000 NA
ATOM     12  H   UNL     1       8.369   5.860  15.532  0.00  0.00    +0.000 HD
ENDBRANCH   4   7
BRANCH   1  14
ATOM     13  F   UNL     1       0.416   4.162  20.225  0.00  0.00    +0.000 F 
ATOM     14  C   UNL     1       1.051   3.128  19.603  0.00  0.00    +0.000 C 
ATOM     15  F   UNL     1       1.459   2.290  20.594  0.00  0.00    +0.000 F 
ATOM     16  F   UNL     1       0.083   2.459  18.918  0.00  0.00    +0.000 F 
ENDBRANCH   1  14
TORSDOF 2
ENDMDL
MODEL 7
REMARK VINA RESULT:      -7.1      0.875      1.174
REMARK  Name = 
REMARK  2 active torsions:
REMARK  status: ('A' for Active; 'I' for Inactive)
REMARK    1  A    between atoms: C_2  and  C_5
REMARK    2  A    between atoms: C_8  and  C_9
REMARK                            x       y       z     vdW  Elec       q    Type
REMARK                         _______ _______ _______ _____ _____    ______ ____
ROOT
ATOM      1  C   UNL     1       2.341   3.614  19.248  0.00  0.00    +0.000 A 
ATOM      2  C   UNL     1       3.624   3.341  19.737  0.00  0.00    +0.000 A 
ATOM      3  C   UNL     1       4.755   3.749  19.029  0.00  0.00    +0.000 A 
ATOM      4  C   UNL     1       4.634   4.442  17.817  0.00  0.00    +0.000 A 
ATOM      5  C   UNL     1       3.350   4.702  17.320  0.00  0.00    +0.000 A 
ATOM      6  C   UNL     1       2.214   4.292  18.027  0.00  0.00    +0.000 A 
ENDROOT
BRANCH   4   7
ATOM      7  C   UNL     1       5.805   4.899  17.095  0.00  0.00    +0.000 A 
ATOM      8  C   UNL     1       6.404   6.135  17.184  0.00  0.00    +0.000 A 
ATOM      9  N   UNL     1       7.430   6.070  16.292  0.00  0.00    +0.000 N 
ATOM     10  N   UNL     1       7.488   4.873  15.693  0.00  0.00    +0.000 NA
ATOM     11  N   UNL     1       6.493   4.141  16.177  0.00  0.00    +0.000 NA
ATOM     12  H   UNL     1       8.110   6.778  16.039  0.00  0.00    +0.000 HD
ENDBRANCH   4   7
BRANCH   1  14
ATOM     13  F   UNL     1       0.219   2.492  19.293  0.00  0.00    +0.000 F 
ATOM     14  C   UNL     1       1.118   3.205  20.030  0.00  0.00    +0.000 C 
ATOM     15  F   UNL     1       0.432   4.271  20.526  0.00  0.00    +0.000 F 
ATOM     16  F   UNL     1       1.422   2.421  21.101  0.00  0.00    +0.000 F 
ENDBRANCH   1  14
TORSDOF 2
ENDMDL
MODEL 8
REMARK VINA RESULT:      -7.1      0.592      1.563
REMARK  Name = 
REMARK  2 active torsions:
REMARK  status: ('A' for Active; 'I' for Inactive)
REMARK    1  A    between atoms: C_2  and  C_5
REMARK    2  A    between atoms: C_8  and  C_9
REMARK                            x       y       z     vdW  Elec       q    Type
REMARK                         _______ _______ _______ _____ _____    ______ ____
ROOT
ATOM      1  C   UNL     1       2.321   3.747  18.849  0.00  0.00    +0.000 A 
ATOM      2  C   UNL     1       2.844   3.140  17.701  0.00  0.00    +0.000 A 
ATOM      3  C   UNL     1       3.965   3.673  17.064  0.00  0.00    +0.000 A 
ATOM      4  C   UNL     1       4.593   4.825  17.559  0.00  0.00    +0.000 A 
ATOM      5  C   UNL     1       4.060   5.441  18.699  0.00  0.00    +0.000 A 
ATOM      6  C   UNL     1       2.935   4.910  19.338  0.00  0.00    +0.000 A 
ENDROOT
BRANCH   4   7
ATOM      7  C   UNL     1       5.779   5.363  16.921  0.00  0.00    +0.000 A 
ATOM      8  C   UNL     1       6.518   6.450  17.329  0.00  0.00    +0.000 A 
ATOM      9  N   UNL     1       7.492   6.560  16.385  0.00  0.00    +0.000 N 
ATOM     10  N   UNL     1       7.388   5.602  15.454  0.00  0.00    +0.000 NA
ATOM     11  N   UNL     1       6.336   4.857  15.770  0.00  0.00    +0.000 NA
ATOM     12  H   UNL     1       8.239   7.242  16.303  0.00  0.00    +0.000 HD
ENDBRANCH   4   7
BRANCH   1  14
ATOM     13  F   UNL     1       0.270   2.505  18.722  0.00  0.00    +0.000 F 
ATOM     14  C   UNL     1       1.132   3.150  19.559  0.00  0.00    +0.000 C 
ATOM     15  F   UNL     1       0.388   4.085  20.211  0.00  0.00    +0.000 F 
ATOM     16  F   UNL     1       1.491   2.232  20.497  0.00  0.00    +0.000 F 
ENDBRANCH   1  14
TORSDOF 2
ENDMDL
MODEL 9
REMARK VINA RESULT:      -7.1      0.651      1.160
REMARK  Name = 
REMARK  2 active torsions:
REMARK  status: ('A' for Active; 'I' for Inactive)
REMARK    1  A    between atoms: C_2  and  C_5
REMARK    2  A    between atoms: C_8  and  C_9
REMARK                            x       y       z     vdW  Elec       q    Type
REMARK                         _______ _______ _______ _____ _____    ______ ____
ROOT
ATOM      1  C   UNL     1       2.412   3.591  19.185  0.00  0.00    +0.000 A 
ATOM      2  C   UNL     1       3.709   3.333  19.644  0.00  0.00    +0.000 A 
ATOM      3  C   UNL     1       4.818   3.810  18.943  0.00  0.00    +0.000 A 
ATOM      4  C   UNL     1       4.660   4.557  17.768  0.00  0.00    +0.000 A 
ATOM      5  C   UNL     1       3.362   4.802  17.300  0.00  0.00    +0.000 A 
ATOM      6  C   UNL     1       2.248   4.324  17.999  0.00  0.00    +0.000 A 
ENDROOT
BRANCH   4   7
ATOM      7  C   UNL     1       5.807   5.084  17.056  0.00  0.00    +0.000 A 
ATOM      8  C   UNL     1       6.496   4.477  16.030  0.00  0.00    +0.000 A 
ATOM      9  N   UNL     1       7.494   5.355  15.737  0.00  0.00    +0.000 N 
ATOM     10  N   UNL     1       7.431   6.448  16.509  0.00  0.00    +0.000 NA
ATOM     11  N   UNL     1       6.398   6.295  17.327  0.00  0.00    +0.000 NA
ATOM     12  H   UNL     1       8.236   5.283  15.049  0.00  0.00    +0.000 HD
ENDBRANCH   4   7
BRANCH   1  14
ATOM     13  F   UNL     1       1.529   2.224  20.949  0.00  0.00    +0.000 F 
ATOM     14  C   UNL     1       1.213   3.108  19.960  0.00  0.00    +0.000 C 
ATOM     15  F   UNL     1       0.300   2.475  19.174  0.00  0.00    +0.000 F 
ATOM     16  F   UNL     1       0.544   4.122  20.573  0.00  0.00    +0.000 F 
ENDBRANCH   1  14
TORSDOF 2
ENDMDL
