MODEL 1
REMARK VINA RESULT:      -9.5      0.000      0.000
REMARK  Name = 
REMARK  6 active torsions:
REMARK  status: ('A' for Active; 'I' for Inactive)
REMARK    1  A    between atoms: C_1  and  C_2
REMARK    2  A    between atoms: C_6  and  N_7
REMARK    3  A    between atoms: C_11  and  C_12
REMARK    4  A    between atoms: C_17  and  C_18
REMARK    5  A    between atoms: C_18  and  C_19
REMARK    6  A    between atoms: C_19  and  C_20
REMARK                            x       y       z     vdW  Elec       q    Type
REMARK                         _______ _______ _______ _____ _____    ______ ____
ROOT
ATOM      1  N   UNL     1       8.303  10.116  17.964  0.00  0.00    +0.000 N 
ATOM      2  C   UNL     1       8.133   8.788  18.098  0.00  0.00    +0.000 A 
ATOM      3  N   UNL     1       8.605   7.918  18.962  0.00  0.00    +0.000 NA
ATOM      4  N   UNL     1       8.109   6.688  18.603  0.00  0.00    +0.000 NA
ATOM      5  C   UNL     1       7.355   6.883  17.539  0.00  0.00    +0.000 A 
ATOM      6  O   UNL     1       7.317   8.199  17.170  0.00  0.00    +0.000 OA
ATOM      7  H   UNL     1       7.777  10.571  17.229  0.00  0.00    +0.000 HD
ENDROOT
BRANCH   1  13
ATOM      8  C   UNL     1      12.249  13.027  17.090  0.00  0.00    +0.000 C 
ATOM      9  C   UNL     1      11.372  12.285  18.052  0.00  0.00    +0.000 A 
ATOM     10  C   UNL     1      11.602  12.327  19.430  0.00  0.00    +0.000 A 
ATOM     11  C   UNL     1      10.764  11.628  20.296  0.00  0.00    +0.000 A 
ATOM     12  C   UNL     1       9.681  10.900  19.793  0.00  0.00    +0.000 A 
ATOM     13  C   UNL     1       9.406  10.867  18.418  0.00  0.00    +0.000 A 
ATOM     14  C   UNL     1      10.288  11.542  17.562  0.00  0.00    +0.000 A 
ENDBRANCH   1  13
BRANCH   5  15
ATOM     15  C   UNL     1       6.609   5.890  16.769  0.00  0.00    +0.000 A 
ATOM     16  C   UNL     1       7.275   5.344  15.651  0.00  0.00    +0.000 A 
ATOM     17  C   UNL     1       6.673   4.388  14.842  0.00  0.00    +0.000 A 
ATOM     18  C   UNL     1       5.395   3.998  15.162  0.00  0.00    +0.000 A 
ATOM     19  N   UNL     1       4.712   4.496  16.212  0.00  0.00    +0.000 NA
ATOM     20  C   UNL     1       5.311   5.419  17.022  0.00  0.00    +0.000 A 
BRANCH  20  21
ATOM     21  C   UNL     1       4.420   5.920  18.139  0.00  0.00    +0.000 C 
BRANCH  21  22
ATOM     22  C   UNL     1       2.921   5.719  17.853  0.00  0.00    +0.000 C 
BRANCH  22  23
ATOM     23  C   UNL     1       2.275   4.759  18.821  0.00  0.00    +0.000 A 
ATOM     24  C   UNL     1       1.522   3.681  18.351  0.00  0.00    +0.000 A 
ATOM     25  C   UNL     1       0.948   2.820  19.274  0.00  0.00    +0.000 A 
ATOM     26  N   UNL     1       1.065   2.964  20.611  0.00  0.00    +0.000 NA
ATOM     27  C   UNL     1       1.797   4.012  21.044  0.00  0.00    +0.000 A 
ATOM     28  C   UNL     1       2.412   4.926  20.201  0.00  0.00    +0.000 A 
ENDBRANCH  22  23
ENDBRANCH  21  22
ENDBRANCH  20  21
ENDBRANCH   5  15
TORSDOF 5
ENDMDL
MODEL 2
REMARK VINA RESULT:      -9.0      1.939      2.348
REMARK  Name = 
REMARK  6 active torsions:
REMARK  status: ('A' for Active; 'I' for Inactive)
REMARK    1  A    between atoms: C_1  and  C_2
REMARK    2  A    between atoms: C_6  and  N_7
REMARK    3  A    between atoms: C_11  and  C_12
REMARK    4  A    between atoms: C_17  and  C_18
REMARK    5  A    between atoms: C_18  and  C_19
REMARK    6  A    between atoms: C_19  and  C_20
REMARK                            x       y       z     vdW  Elec       q    Type
REMARK                         _______ _______ _______ _____ _____    ______ ____
ROOT
ATOM      1  N   UNL     1       8.312  10.110  17.910  0.00  0.00    +0.000 N 
ATOM      2  C   UNL     1       8.115   8.785  18.048  0.00  0.00    +0.000 A 
ATOM      3  N   UNL     1       8.544   7.915  18.933  0.00  0.00    +0.000 NA
ATOM      4  N   UNL     1       8.041   6.690  18.566  0.00  0.00    +0.000 NA
ATOM      5  C   UNL     1       7.325   6.889  17.476  0.00  0.00    +0.000 A 
ATOM      6  O   UNL     1       7.321   8.203  17.097  0.00  0.00    +0.000 OA
ATOM      7  H   UNL     1       7.817  10.567  17.155  0.00  0.00    +0.000 HD
ENDROOT
BRANCH   1  13
ATOM      8  C   UNL     1      12.235  13.084  17.160  0.00  0.00    +0.000 C 
ATOM      9  C   UNL     1      11.366  12.292  18.090  0.00  0.00    +0.000 A 
ATOM     10  C   UNL     1      11.601  12.272  19.467  0.00  0.00    +0.000 A 
ATOM     11  C   UNL     1      10.770  11.527  20.302  0.00  0.00    +0.000 A 
ATOM     12  C   UNL     1       9.691  10.816  19.769  0.00  0.00    +0.000 A 
ATOM     13  C   UNL     1       9.411  10.846  18.395  0.00  0.00    +0.000 A 
ATOM     14  C   UNL     1      10.286  11.566  17.569  0.00  0.00    +0.000 A 
ENDBRANCH   1  13
BRANCH   5  15
ATOM     15  C   UNL     1       6.588   5.903  16.688  0.00  0.00    +0.000 A 
ATOM     16  C   UNL     1       7.312   5.268  15.656  0.00  0.00    +0.000 A 
ATOM     17  C   UNL     1       6.724   4.310  14.840  0.00  0.00    +0.000 A 
ATOM     18  C   UNL     1       5.403   4.005  15.066  0.00  0.00    +0.000 A 
ATOM     19  N   UNL     1       4.666   4.589  16.032  0.00  0.00    +0.000 NA
ATOM     20  C   UNL     1       5.249   5.516  16.850  0.00  0.00    +0.000 A 
BRANCH  20  21
ATOM     21  C   UNL     1       4.299   6.117  17.865  0.00  0.00    +0.000 C 
BRANCH  21  22
ATOM     22  C   UNL     1       3.507   7.316  17.316  0.00  0.00    +0.000 C 
BRANCH  22  23
ATOM     23  C   UNL     1       2.589   7.920  18.349  0.00  0.00    +0.000 A 
ATOM     24  C   UNL     1       1.905   9.108  18.078  0.00  0.00    +0.000 A 
ATOM     25  C   UNL     1       1.068   9.628  19.054  0.00  0.00    +0.000 A 
ATOM     26  N   UNL     1       0.877   9.059  20.262  0.00  0.00    +0.000 NA
ATOM     27  C   UNL     1       1.547   7.913  20.504  0.00  0.00    +0.000 A 
ATOM     28  C   UNL     1       2.405   7.313  19.593  0.00  0.00    +0.000 A 
ENDBRANCH  22  23
ENDBRANCH  21  22
ENDBRANCH  20  21
ENDBRANCH   5  15
TORSDOF 5
ENDMDL
MODEL 3
REMARK VINA RESULT:      -9.0      0.503      1.550
REMARK  Name = 
REMARK  6 active torsions:
REMARK  status: ('A' for Active; 'I' for Inactive)
REMARK    1  A    between atoms: C_1  and  C_2
REMARK    2  A    between atoms: C_6  and  N_7
REMARK    3  A    between atoms: C_11  and  C_12
REMARK    4  A    between atoms: C_17  and  C_18
REMARK    5  A    between atoms: C_18  and  C_19
REMARK    6  A    between atoms: C_19  and  C_20
REMARK                            x       y       z     vdW  Elec       q    Type
REMARK                         _______ _______ _______ _____ _____    ______ ____
ROOT
ATOM      1  N   UNL     1       8.260  10.210  17.929  0.00  0.00    +0.000 N 
ATOM      2  C   UNL     1       8.110   8.881  18.079  0.00  0.00    +0.000 A 
ATOM      3  N   UNL     1       8.580   8.032  18.965  0.00  0.00    +0.000 NA
ATOM      4  N   UNL     1       8.114   6.788  18.612  0.00  0.00    +0.000 NA
ATOM      5  C   UNL     1       7.379   6.955  17.530  0.00  0.00    +0.000 A 
ATOM      6  O   UNL     1       7.326   8.265  17.141  0.00  0.00    +0.000 OA
ATOM      7  H   UNL     1       7.741  10.645  17.178  0.00  0.00    +0.000 HD
ENDROOT
BRANCH   1  13
ATOM      8  C   UNL     1      10.283  13.289  21.280  0.00  0.00    +0.000 C 
ATOM      9  C   UNL     1      10.383  12.520  19.998  0.00  0.00    +0.000 A 
ATOM     10  C   UNL     1      11.553  12.528  19.234  0.00  0.00    +0.000 A 
ATOM     11  C   UNL     1      11.612  11.798  18.048  0.00  0.00    +0.000 A 
ATOM     12  C   UNL     1      10.514  11.041  17.631  0.00  0.00    +0.000 A 
ATOM     13  C   UNL     1       9.339  10.987  18.396  0.00  0.00    +0.000 A 
ATOM     14  C   UNL     1       9.286  11.764  19.562  0.00  0.00    +0.000 A 
ENDBRANCH   1  13
BRANCH   5  15
ATOM     15  C   UNL     1       6.667   5.938  16.758  0.00  0.00    +0.000 A 
ATOM     16  C   UNL     1       7.340   5.438  15.622  0.00  0.00    +0.000 A 
ATOM     17  C   UNL     1       6.770   4.466  14.810  0.00  0.00    +0.000 A 
ATOM     18  C   UNL     1       5.516   4.012  15.144  0.00  0.00    +0.000 A 
ATOM     19  N   UNL     1       4.829   4.464  16.212  0.00  0.00    +0.000 NA
ATOM     20  C   UNL     1       5.397   5.404  17.025  0.00  0.00    +0.000 A 
BRANCH  20  21
ATOM     21  C   UNL     1       4.502   5.847  18.163  0.00  0.00    +0.000 C 
BRANCH  21  22
ATOM     22  C   UNL     1       3.004   5.698  17.846  0.00  0.00    +0.000 C 
BRANCH  22  23
ATOM     23  C   UNL     1       2.311   4.740  18.783  0.00  0.00    +0.000 A 
ATOM     24  C   UNL     1       2.407   4.911  20.166  0.00  0.00    +0.000 A 
ATOM     25  C   UNL     1       1.752   4.010  20.993  0.00  0.00    +0.000 A 
ATOM     26  N   UNL     1       1.028   2.964  20.542  0.00  0.00    +0.000 NA
ATOM     27  C   UNL     1       0.949   2.817  19.203  0.00  0.00    +0.000 A 
ATOM     28  C   UNL     1       1.565   3.665  18.294  0.00  0.00    +0.000 A 
ENDBRANCH  22  23
ENDBRANCH  21  22
ENDBRANCH  20  21
ENDBRANCH   5  15
TORSDOF 5
ENDMDL
MODEL 4
REMARK VINA RESULT:      -9.0      4.402      6.483
REMARK  Name = 
REMARK  6 active torsions:
REMARK  status: ('A' for Active; 'I' for Inactive)
REMARK    1  A    between atoms: C_1  and  C_2
REMARK    2  A    between atoms: C_6  and  N_7
REMARK    3  A    between atoms: C_11  and  C_12
REMARK    4  A    between atoms: C_17  and  C_18
REMARK    5  A    between atoms: C_18  and  C_19
REMARK    6  A    between atoms: C_19  and  C_20
REMARK                            x       y       z     vdW  Elec       q    Type
REMARK                         _______ _______ _______ _____ _____    ______ ____
ROOT
ATOM      1  N   UNL     1       1.515   8.906  18.532  0.00  0.00    +0.000 N 
ATOM      2  C   UNL     1       2.271   7.816  18.765  0.00  0.00    +0.000 A 
ATOM      3  N   UNL     1       2.332   6.981  19.776  0.00  0.00    +0.000 NA
ATOM      4  N   UNL     1       3.308   6.061  19.477  0.00  0.00    +0.000 NA
ATOM      5  C   UNL     1       3.782   6.389  18.290  0.00  0.00    +0.000 A 
ATOM      6  O   UNL     1       3.159   7.492  17.775  0.00  0.00    +0.000 OA
ATOM      7  H   UNL     1       1.628   9.355  17.633  0.00  0.00    +0.000 HD
ENDROOT
BRANCH   1  13
ATOM      8  C   UNL     1      -0.276   9.631  23.122  0.00  0.00    +0.000 C 
ATOM      9  C   UNL     1       0.002  10.144  21.742  0.00  0.00    +0.000 A 
ATOM     10  C   UNL     1      -0.300  11.460  21.379  0.00  0.00    +0.000 A 
ATOM     11  C   UNL     1      -0.024  11.904  20.087  0.00  0.00    +0.000 A 
ATOM     12  C   UNL     1       0.572  11.045  19.159  0.00  0.00    +0.000 A 
ATOM     13  C   UNL     1       0.918   9.731  19.507  0.00  0.00    +0.000 A 
ATOM     14  C   UNL     1       0.591   9.292  20.797  0.00  0.00    +0.000 A 
ENDBRANCH   1  13
BRANCH   5  15
ATOM     15  C   UNL     1       4.841   5.729  17.530  0.00  0.00    +0.000 A 
ATOM     16  C   UNL     1       6.062   6.430  17.431  0.00  0.00    +0.000 A 
ATOM     17  C   UNL     1       7.146   5.906  16.737  0.00  0.00    +0.000 A 
ATOM     18  C   UNL     1       6.986   4.680  16.138  0.00  0.00    +0.000 A 
ATOM     19  N   UNL     1       5.838   3.976  16.194  0.00  0.00    +0.000 NA
ATOM     20  C   UNL     1       4.778   4.479  16.895  0.00  0.00    +0.000 A 
BRANCH  20  21
ATOM     21  C   UNL     1       3.543   3.603  16.846  0.00  0.00    +0.000 C 
BRANCH  21  22
ATOM     22  C   UNL     1       3.609   2.412  17.817  0.00  0.00    +0.000 C 
BRANCH  22  23
ATOM     23  C   UNL     1       2.797   2.645  19.067  0.00  0.00    +0.000 A 
ATOM     24  C   UNL     1       3.384   2.505  20.327  0.00  0.00    +0.000 A 
ATOM     25  C   UNL     1       2.604   2.732  21.451  0.00  0.00    +0.000 A 
ATOM     26  N   UNL     1       1.300   3.075  21.405  0.00  0.00    +0.000 NA
ATOM     27  C   UNL     1       0.752   3.204  20.178  0.00  0.00    +0.000 A 
ATOM     28  C   UNL     1       1.448   3.000  18.996  0.00  0.00    +0.000 A 
ENDBRANCH  22  23
ENDBRANCH  21  22
ENDBRANCH  20  21
ENDBRANCH   5  15
TORSDOF 5
ENDMDL
MODEL 5
REMARK VINA RESULT:      -8.9      0.937      1.030
REMARK  Name = 
REMARK  6 active torsions:
REMARK  status: ('A' for Active; 'I' for Inactive)
REMARK    1  A    between atoms: C_1  and  C_2
REMARK    2  A    between atoms: C_6  and  N_7
REMARK    3  A    between atoms: C_11  and  C_12
REMARK    4  A    between atoms: C_17  and  C_18
REMARK    5  A    between atoms: C_18  and  C_19
REMARK    6  A    between atoms: C_19  and  C_20
REMARK                            x       y       z     vdW  Elec       q    Type
REMARK                         _______ _______ _______ _____ _____    ______ ____
ROOT
ATOM      1  N   UNL     1       8.224   9.787  17.911  0.00  0.00    +0.000 N 
ATOM      2  C   UNL     1       8.082   8.453  18.027  0.00  0.00    +0.000 A 
ATOM      3  N   UNL     1       8.467   7.598  18.946  0.00  0.00    +0.000 NA
ATOM      4  N   UNL     1       8.062   6.353  18.529  0.00  0.00    +0.000 NA
ATOM      5  C   UNL     1       7.445   6.525  17.376  0.00  0.00    +0.000 A 
ATOM      6  O   UNL     1       7.412   7.840  17.002  0.00  0.00    +0.000 OA
ATOM      7  H   UNL     1       7.783  10.225  17.114  0.00  0.00    +0.000 HD
ENDROOT
BRANCH   1  13
ATOM      8  C   UNL     1      12.185  12.784  17.547  0.00  0.00    +0.000 C 
ATOM      9  C   UNL     1      11.198  12.035  18.390  0.00  0.00    +0.000 A 
ATOM     10  C   UNL     1      11.231  12.104  19.785  0.00  0.00    +0.000 A 
ATOM     11  C   UNL     1      10.296  11.396  20.538  0.00  0.00    +0.000 A 
ATOM     12  C   UNL     1       9.312  10.633  19.902  0.00  0.00    +0.000 A 
ATOM     13  C   UNL     1       9.234  10.573  18.502  0.00  0.00    +0.000 A 
ATOM     14  C   UNL     1      10.212  11.257  17.766  0.00  0.00    +0.000 A 
ENDBRANCH   1  13
BRANCH   5  15
ATOM     15  C   UNL     1       6.838   5.509  16.519  0.00  0.00    +0.000 A 
ATOM     16  C   UNL     1       7.197   5.553  15.155  0.00  0.00    +0.000 A 
ATOM     17  C   UNL     1       6.689   4.639  14.240  0.00  0.00    +0.000 A 
ATOM     18  C   UNL     1       5.811   3.691  14.708  0.00  0.00    +0.000 A 
ATOM     19  N   UNL     1       5.429   3.613  15.998  0.00  0.00    +0.000 NA
ATOM     20  C   UNL     1       5.945   4.497  16.904  0.00  0.00    +0.000 A 
BRANCH  20  21
ATOM     21  C   UNL     1       5.404   4.318  18.307  0.00  0.00    +0.000 C 
BRANCH  21  22
ATOM     22  C   UNL     1       4.364   3.189  18.414  0.00  0.00    +0.000 C 
BRANCH  22  23
ATOM     23  C   UNL     1       3.135   3.611  19.181  0.00  0.00    +0.000 A 
ATOM     24  C   UNL     1       2.083   2.713  19.379  0.00  0.00    +0.000 A 
ATOM     25  C   UNL     1       0.974   3.139  20.093  0.00  0.00    +0.000 A 
ATOM     26  N   UNL     1       0.840   4.380  20.606  0.00  0.00    +0.000 NA
ATOM     27  C   UNL     1       1.867   5.232  20.403  0.00  0.00    +0.000 A 
ATOM     28  C   UNL     1       3.019   4.901  19.705  0.00  0.00    +0.000 A 
ENDBRANCH  22  23
ENDBRANCH  21  22
ENDBRANCH  20  21
ENDBRANCH   5  15
TORSDOF 5
ENDMDL
MODEL 6
REMARK VINA RESULT:      -8.8      1.971      2.502
REMARK  Name = 
REMARK  6 active torsions:
REMARK  status: ('A' for Active; 'I' for Inactive)
REMARK    1  A    between atoms: C_1  and  C_2
REMARK    2  A    between atoms: C_6  and  N_7
REMARK    3  A    between atoms: C_11  and  C_12
REMARK    4  A    between atoms: C_17  and  C_18
REMARK    5  A    between atoms: C_18  and  C_19
REMARK    6  A    between atoms: C_19  and  C_20
REMARK                            x       y       z     vdW  Elec       q    Type
REMARK                         _______ _______ _______ _____ _____    ______ ____
ROOT
ATOM      1  N   UNL     1       8.412  10.233  17.975  0.00  0.00    +0.000 N 
ATOM      2  C   UNL     1       8.221   8.909  18.121  0.00  0.00    +0.000 A 
ATOM      3  N   UNL     1       8.674   8.041  18.996  0.00  0.00    +0.000 NA
ATOM      4  N   UNL     1       8.164   6.814  18.644  0.00  0.00    +0.000 NA
ATOM      5  C   UNL     1       7.421   7.010  17.572  0.00  0.00    +0.000 A 
ATOM      6  O   UNL     1       7.405   8.324  17.190  0.00  0.00    +0.000 OA
ATOM      7  H   UNL     1       7.898  10.688  17.233  0.00  0.00    +0.000 HD
ENDROOT
BRANCH   1  13
ATOM      8  C   UNL     1      12.333  13.181  17.118  0.00  0.00    +0.000 C 
ATOM      9  C   UNL     1      11.476  12.406  18.073  0.00  0.00    +0.000 A 
ATOM     10  C   UNL     1      11.733  12.406  19.447  0.00  0.00    +0.000 A 
ATOM     11  C   UNL     1      10.913  11.677  20.306  0.00  0.00    +0.000 A 
ATOM     12  C   UNL     1       9.823  10.963  19.802  0.00  0.00    +0.000 A 
ATOM     13  C   UNL     1       9.521  10.973  18.432  0.00  0.00    +0.000 A 
ATOM     14  C   UNL     1      10.385  11.677  17.581  0.00  0.00    +0.000 A 
ENDBRANCH   1  13
BRANCH   5  15
ATOM     15  C   UNL     1       6.667   6.021  16.805  0.00  0.00    +0.000 A 
ATOM     16  C   UNL     1       7.422   4.979  16.225  0.00  0.00    +0.000 A 
ATOM     17  C   UNL     1       6.820   3.976  15.475  0.00  0.00    +0.000 A 
ATOM     18  C   UNL     1       5.458   4.038  15.307  0.00  0.00    +0.000 A 
ATOM     19  N   UNL     1       4.693   5.016  15.831  0.00  0.00    +0.000 NA
ATOM     20  C   UNL     1       5.280   5.992  16.587  0.00  0.00    +0.000 A 
BRANCH  20  21
ATOM     21  C   UNL     1       4.312   7.046  17.082  0.00  0.00    +0.000 C 
BRANCH  21  22
ATOM     22  C   UNL     1       3.301   6.503  18.107  0.00  0.00    +0.000 C 
BRANCH  22  23
ATOM     23  C   UNL     1       2.426   7.589  18.681  0.00  0.00    +0.000 A 
ATOM     24  C   UNL     1       2.023   7.540  20.018  0.00  0.00    +0.000 A 
ATOM     25  C   UNL     1       1.222   8.560  20.507  0.00  0.00    +0.000 A 
ATOM     26  N   UNL     1       0.795   9.604  19.765  0.00  0.00    +0.000 NA
ATOM     27  C   UNL     1       1.195   9.632  18.476  0.00  0.00    +0.000 A 
ATOM     28  C   UNL     1       1.997   8.661  17.895  0.00  0.00    +0.000 A 
ENDBRANCH  22  23
ENDBRANCH  21  22
ENDBRANCH  20  21
ENDBRANCH   5  15
TORSDOF 5
ENDMDL
MODEL 7
REMARK VINA RESULT:      -8.7      4.216      6.627
REMARK  Name = 
REMARK  6 active torsions:
REMARK  status: ('A' for Active; 'I' for Inactive)
REMARK    1  A    between atoms: C_1  and  C_2
REMARK    2  A    between atoms: C_6  and  N_7
REMARK    3  A    between atoms: C_11  and  C_12
REMARK    4  A    between atoms: C_17  and  C_18
REMARK    5  A    between atoms: C_18  and  C_19
REMARK    6  A    between atoms: C_19  and  C_20
REMARK                            x       y       z     vdW  Elec       q    Type
REMARK                         _______ _______ _______ _____ _____    ______ ____
ROOT
ATOM      1  N   UNL     1       1.380   9.207  17.715  0.00  0.00    +0.000 N 
ATOM      2  C   UNL     1       2.101   8.158  18.154  0.00  0.00    +0.000 A 
ATOM      3  N   UNL     1       2.014   7.413  19.232  0.00  0.00    +0.000 NA
ATOM      4  N   UNL     1       3.033   6.493  19.166  0.00  0.00    +0.000 NA
ATOM      5  C   UNL     1       3.680   6.729  18.041  0.00  0.00    +0.000 A 
ATOM      6  O   UNL     1       3.133   7.770  17.342  0.00  0.00    +0.000 OA
ATOM      7  H   UNL     1       1.625   9.580  16.808  0.00  0.00    +0.000 HD
ENDROOT
BRANCH   1  13
ATOM      8  C   UNL     1      -2.836  11.656  18.730  0.00  0.00    +0.000 C 
ATOM      9  C   UNL     1      -1.405  11.347  19.052  0.00  0.00    +0.000 A 
ATOM     10  C   UNL     1      -0.769  11.912  20.161  0.00  0.00    +0.000 A 
ATOM     11  C   UNL     1       0.561  11.599  20.432  0.00  0.00    +0.000 A 
ATOM     12  C   UNL     1       1.257  10.707  19.611  0.00  0.00    +0.000 A 
ATOM     13  C   UNL     1       0.633  10.098  18.512  0.00  0.00    +0.000 A 
ATOM     14  C   UNL     1      -0.692  10.461  18.232  0.00  0.00    +0.000 A 
ENDBRANCH   1  13
BRANCH   5  15
ATOM     15  C   UNL     1       4.849   6.031  17.510  0.00  0.00    +0.000 A 
ATOM     16  C   UNL     1       6.058   6.758  17.510  0.00  0.00    +0.000 A 
ATOM     17  C   UNL     1       7.240   6.202  17.034  0.00  0.00    +0.000 A 
ATOM     18  C   UNL     1       7.189   4.917  16.551  0.00  0.00    +0.000 A 
ATOM     19  N   UNL     1       6.058   4.184  16.520  0.00  0.00    +0.000 NA
ATOM     20  C   UNL     1       4.900   4.720  17.008  0.00  0.00    +0.000 A 
BRANCH  20  21
ATOM     21  C   UNL     1       3.701   3.804  16.879  0.00  0.00    +0.000 C 
BRANCH  21  22
ATOM     22  C   UNL     1       3.750   2.606  17.844  0.00  0.00    +0.000 C 
BRANCH  22  23
ATOM     23  C   UNL     1       2.876   2.810  19.057  0.00  0.00    +0.000 A 
ATOM     24  C   UNL     1       3.380   2.576  20.338  0.00  0.00    +0.000 A 
ATOM     25  C   UNL     1       2.545   2.779  21.427  0.00  0.00    +0.000 A 
ATOM     26  N   UNL     1       1.261   3.183  21.325  0.00  0.00    +0.000 NA
ATOM     27  C   UNL     1       0.794   3.402  20.078  0.00  0.00    +0.000 A 
ATOM     28  C   UNL     1       1.550   3.230  18.928  0.00  0.00    +0.000 A 
ENDBRANCH  22  23
ENDBRANCH  21  22
ENDBRANCH  20  21
ENDBRANCH   5  15
TORSDOF 5
ENDMDL
MODEL 8
REMARK VINA RESULT:      -8.7      1.020      1.698
REMARK  Name = 
REMARK  6 active torsions:
REMARK  status: ('A' for Active; 'I' for Inactive)
REMARK    1  A    between atoms: C_1  and  C_2
REMARK    2  A    between atoms: C_6  and  N_7
REMARK    3  A    between atoms: C_11  and  C_12
REMARK    4  A    between atoms: C_17  and  C_18
REMARK    5  A    between atoms: C_18  and  C_19
REMARK    6  A    between atoms: C_19  and  C_20
REMARK                            x       y       z     vdW  Elec       q    Type
REMARK                         _______ _______ _______ _____ _____    ______ ____
ROOT
ATOM      1  N   UNL     1       8.116   9.815  17.866  0.00  0.00    +0.000 N 
ATOM      2  C   UNL     1       7.950   8.480  17.923  0.00  0.00    +0.000 A 
ATOM      3  N   UNL     1       8.314   7.580  18.808  0.00  0.00    +0.000 NA
ATOM      4  N   UNL     1       7.891   6.361  18.335  0.00  0.00    +0.000 NA
ATOM      5  C   UNL     1       7.286   6.592  17.186  0.00  0.00    +0.000 A 
ATOM      6  O   UNL     1       7.279   7.923  16.868  0.00  0.00    +0.000 OA
ATOM      7  H   UNL     1       7.688  10.294  17.086  0.00  0.00    +0.000 HD
ENDROOT
BRANCH   1  13
ATOM      8  C   UNL     1       9.907  12.280  21.805  0.00  0.00    +0.000 C 
ATOM      9  C   UNL     1      10.063  11.801  20.394  0.00  0.00    +0.000 A 
ATOM     10  C   UNL     1      11.227  12.054  19.663  0.00  0.00    +0.000 A 
ATOM     11  C   UNL     1      11.339  11.590  18.354  0.00  0.00    +0.000 A 
ATOM     12  C   UNL     1      10.300  10.855  17.776  0.00  0.00    +0.000 A 
ATOM     13  C   UNL     1       9.134  10.557  18.497  0.00  0.00    +0.000 A 
ATOM     14  C   UNL     1       9.025  11.072  19.797  0.00  0.00    +0.000 A 
ENDBRANCH   1  13
BRANCH   5  15
ATOM     15  C   UNL     1       6.669   5.625  16.282  0.00  0.00    +0.000 A 
ATOM     16  C   UNL     1       7.397   5.315  15.114  0.00  0.00    +0.000 A 
ATOM     17  C   UNL     1       6.918   4.407  14.178  0.00  0.00    +0.000 A 
ATOM     18  C   UNL     1       5.697   3.825  14.423  0.00  0.00    +0.000 A 
ATOM     19  N   UNL     1       4.958   4.095  15.518  0.00  0.00    +0.000 NA
ATOM     20  C   UNL     1       5.438   4.970  16.451  0.00  0.00    +0.000 A 
BRANCH  20  21
ATOM     21  C   UNL     1       4.492   5.208  17.609  0.00  0.00    +0.000 C 
BRANCH  21  22
ATOM     22  C   UNL     1       3.427   4.107  17.754  0.00  0.00    +0.000 C 
BRANCH  22  23
ATOM     23  C   UNL     1       3.005   3.902  19.188  0.00  0.00    +0.000 A 
ATOM     24  C   UNL     1       3.242   2.683  19.827  0.00  0.00    +0.000 A 
ATOM     25  C   UNL     1       2.842   2.537  21.147  0.00  0.00    +0.000 A 
ATOM     26  N   UNL     1       2.225   3.504  21.857  0.00  0.00    +0.000 NA
ATOM     27  C   UNL     1       2.005   4.674  21.221  0.00  0.00    +0.000 A 
ATOM     28  C   UNL     1       2.369   4.918  19.905  0.00  0.00    +0.000 A 
ENDBRANCH  22  23
ENDBRANCH  21  22
ENDBRANCH  20  21
ENDBRANCH   5  15
TORSDOF 5
ENDMDL
MODEL 9
REMARK VINA RESULT:      -8.7      4.317      6.158
REMARK  Name = 
REMARK  6 active torsions:
REMARK  status: ('A' for Active; 'I' for Inactive)
REMARK    1  A    between atoms: C_1  and  C_2
REMARK    2  A    between atoms: C_6  and  N_7
REMARK    3  A    between atoms: C_11  and  C_12
REMARK    4  A    between atoms: C_17  and  C_18
REMARK    5  A    between atoms: C_18  and  C_19
REMARK    6  A    between atoms: C_19  and  C_20
REMARK                            x       y       z     vdW  Elec       q    Type
REMARK                         _______ _______ _______ _____ _____    ______ ____
ROOT
ATOM      1  N   UNL     1       1.556   9.437  17.664  0.00  0.00    +0.000 N 
ATOM      2  C   UNL     1       2.222   8.355  18.111  0.00  0.00    +0.000 A 
ATOM      3  N   UNL     1       2.136   7.658  19.221  0.00  0.00    +0.000 NA
ATOM      4  N   UNL     1       3.083   6.666  19.144  0.00  0.00    +0.000 NA
ATOM      5  C   UNL     1       3.690   6.813  17.982  0.00  0.00    +0.000 A 
ATOM      6  O   UNL     1       3.184   7.865  17.268  0.00  0.00    +0.000 OA
ATOM      7  H   UNL     1       1.781   9.758  16.733  0.00  0.00    +0.000 HD
ENDROOT
BRANCH   1  13
ATOM      8  C   UNL     1       1.526  13.840  19.991  0.00  0.00    +0.000 C 
ATOM      9  C   UNL     1       0.843  12.552  19.642  0.00  0.00    +0.000 A 
ATOM     10  C   UNL     1      -0.458  12.278  20.071  0.00  0.00    +0.000 A 
ATOM     11  C   UNL     1      -1.063  11.072  19.724  0.00  0.00    +0.000 A 
ATOM     12  C   UNL     1      -0.382  10.144  18.932  0.00  0.00    +0.000 A 
ATOM     13  C   UNL     1       0.912  10.407  18.458  0.00  0.00    +0.000 A 
ATOM     14  C   UNL     1       1.518  11.607  18.856  0.00  0.00    +0.000 A 
ENDBRANCH   1  13
BRANCH   5  15
ATOM     15  C   UNL     1       4.780   6.015  17.426  0.00  0.00    +0.000 A 
ATOM     16  C   UNL     1       6.046   6.635  17.388  0.00  0.00    +0.000 A 
ATOM     17  C   UNL     1       7.163   5.978  16.886  0.00  0.00    +0.000 A 
ATOM     18  C   UNL     1       6.989   4.698  16.415  0.00  0.00    +0.000 A 
ATOM     19  N   UNL     1       5.800   4.065  16.420  0.00  0.00    +0.000 NA
ATOM     20  C   UNL     1       4.705   4.702  16.934  0.00  0.00    +0.000 A 
BRANCH  20  21
ATOM     21  C   UNL     1       3.429   3.891  16.845  0.00  0.00    +0.000 C 
BRANCH  21  22
ATOM     22  C   UNL     1       3.440   2.647  17.751  0.00  0.00    +0.000 C 
BRANCH  22  23
ATOM     23  C   UNL     1       2.725   2.883  19.058  0.00  0.00    +0.000 A 
ATOM     24  C   UNL     1       3.330   2.535  20.267  0.00  0.00    +0.000 A 
ATOM     25  C   UNL     1       2.640   2.772  21.447  0.00  0.00    +0.000 A 
ATOM     26  N   UNL     1       1.406   3.314  21.500  0.00  0.00    +0.000 NA
ATOM     27  C   UNL     1       0.839   3.642  20.321  0.00  0.00    +0.000 A 
ATOM     28  C   UNL     1       1.447   3.447  19.090  0.00  0.00    +0.000 A 
ENDBRANCH  22  23
ENDBRANCH  21  22
ENDBRANCH  20  21
ENDBRANCH   5  15
TORSDOF 5
ENDMDL
