MODEL 1
REMARK VINA RESULT:      -6.2      0.000      0.000
REMARK  Name = 
REMARK  6 active torsions:
REMARK  status: ('A' for Active; 'I' for Inactive)
REMARK    1  A    between atoms: C_1  and  C_2
REMARK    2  A    between atoms: C_2  and  C_3
REMARK    3  A    between atoms: C_2  and  C_4
REMARK    4  A    between atoms: C_4  and  C_5
REMARK    5  A    between atoms: N_8  and  C_9
REMARK    6  A    between atoms: C_15  and  O_16
REMARK                            x       y       z     vdW  Elec       q    Type
REMARK                         _______ _______ _______ _____ _____    ______ ____
ROOT
ATOM      1  C   UNL     1       0.816  10.195  19.137  0.00  0.00    +0.000 C 
ATOM      2  C   UNL     1      -0.451   9.893  18.318  0.00  0.00    +0.000 C 
ATOM      3  S   UNL     1       1.019   8.884  20.417  0.00  0.00    +0.000 S 
ATOM      4  C   UNL     1       2.094   8.003  19.347  0.00  0.00    +0.000 C 
ATOM      5  N   UNL     1       2.389   6.729  19.725  0.00  0.00    +0.000 N 
ATOM      6  N   UNL     1       2.491   8.616  18.291  0.00  0.00    +0.000 NA
ATOM      7  C   UNL     1       2.004   9.902  18.201  0.00  0.00    +0.000 C 
ATOM      8  O   UNL     1       2.423  10.720  17.392  0.00  0.00    +0.000 OA
ATOM      9  H   UNL     1       1.975   6.425  20.598  0.00  0.00    +0.000 HD
ENDROOT
BRANCH   5  10
ATOM     10  C   UNL     1       2.801   5.681  18.796  0.00  0.00    +0.000 C 
ATOM     11  C   UNL     1       4.002   4.895  19.376  0.00  0.00    +0.000 C 
ATOM     12  C   UNL     1       3.423   3.485  19.637  0.00  0.00    +0.000 C 
ATOM     13  C   UNL     1       1.959   3.782  19.977  0.00  0.00    +0.000 C 
ATOM     14  C   UNL     1       1.724   4.568  18.686  0.00  0.00    +0.000 C 
ATOM     15  C   UNL     1       2.138   3.529  17.612  0.00  0.00    +0.000 C 
ATOM     16  C   UNL     1       3.296   2.768  18.282  0.00  0.00    +0.000 C 
BRANCH  16  17
ATOM     17  O   UNL     1       2.986   1.391  18.450  0.00  0.00    +0.000 OA
ATOM     18  H   UNL     1       3.801   0.865  18.409  0.00  0.00    +0.000 HD
ENDBRANCH  16  17
ENDBRANCH   5  10
BRANCH   1  20
ATOM     19  C   UNL     1       0.423  11.807  21.145  0.00  0.00    +0.000 C 
ATOM     20  C   UNL     1       0.821  11.661  19.670  0.00  0.00    +0.000 C 
ATOM     21  C   UNL     1      -0.033  12.633  18.837  0.00  0.00    +0.000 C 
ENDBRANCH   1  20
TORSDOF 3
ENDMDL
MODEL 2
REMARK VINA RESULT:      -6.2      5.130      6.845
REMARK  Name = 
REMARK  6 active torsions:
REMARK  status: ('A' for Active; 'I' for Inactive)
REMARK    1  A    between atoms: C_1  and  C_2
REMARK    2  A    between atoms: C_2  and  C_3
REMARK    3  A    between atoms: C_2  and  C_4
REMARK    4  A    between atoms: C_4  and  C_5
REMARK    5  A    between atoms: N_8  and  C_9
REMARK    6  A    between atoms: C_15  and  O_16
REMARK                            x       y       z     vdW  Elec       q    Type
REMARK                         _______ _______ _______ _____ _____    ______ ____
ROOT
ATOM      1  C   UNL     1       6.349   4.766  15.021  0.00  0.00    +0.000 C 
ATOM      2  C   UNL     1       7.628   4.945  15.857  0.00  0.00    +0.000 C 
ATOM      3  S   UNL     1       5.544   3.180  15.504  0.00  0.00    +0.000 S 
ATOM      4  C   UNL     1       4.515   4.044  16.631  0.00  0.00    +0.000 C 
ATOM      5  N   UNL     1       3.817   3.269  17.506  0.00  0.00    +0.000 N 
ATOM      6  N   UNL     1       4.522   5.326  16.557  0.00  0.00    +0.000 NA
ATOM      7  C   UNL     1       5.344   5.802  15.560  0.00  0.00    +0.000 C 
ATOM      8  O   UNL     1       5.335   6.968  15.186  0.00  0.00    +0.000 OA
ATOM      9  H   UNL     1       3.946   2.270  17.404  0.00  0.00    +0.000 HD
ENDROOT
BRANCH   5  10
ATOM     10  C   UNL     1       3.337   3.738  18.803  0.00  0.00    +0.000 C 
ATOM     11  C   UNL     1       1.831   4.088  18.721  0.00  0.00    +0.000 C 
ATOM     12  C   UNL     1       1.161   3.027  19.625  0.00  0.00    +0.000 C 
ATOM     13  C   UNL     1       2.081   1.814  19.455  0.00  0.00    +0.000 C 
ATOM     14  C   UNL     1       3.335   2.593  19.851  0.00  0.00    +0.000 C 
ATOM     15  C   UNL     1       2.928   3.145  21.242  0.00  0.00    +0.000 C 
ATOM     16  C   UNL     1       1.422   3.422  21.089  0.00  0.00    +0.000 C 
BRANCH  16  17
ATOM     17  O   UNL     1       0.653   2.630  21.985  0.00  0.00    +0.000 OA
ATOM     18  H   UNL     1       1.154   2.482  22.803  0.00  0.00    +0.000 HD
ENDBRANCH  16  17
ENDBRANCH   5  10
BRANCH   1  20
ATOM     19  C   UNL     1       6.294   3.713  12.640  0.00  0.00    +0.000 C 
ATOM     20  C   UNL     1       6.630   4.941  13.497  0.00  0.00    +0.000 C 
ATOM     21  C   UNL     1       8.066   5.384  13.171  0.00  0.00    +0.000 C 
ENDBRANCH   1  20
TORSDOF 3
ENDMDL
MODEL 3
REMARK VINA RESULT:      -6.1      2.791      3.558
REMARK  Name = 
REMARK  6 active torsions:
REMARK  status: ('A' for Active; 'I' for Inactive)
REMARK    1  A    between atoms: C_1  and  C_2
REMARK    2  A    between atoms: C_2  and  C_3
REMARK    3  A    between atoms: C_2  and  C_4
REMARK    4  A    between atoms: C_4  and  C_5
REMARK    5  A    between atoms: N_8  and  C_9
REMARK    6  A    between atoms: C_15  and  O_16
REMARK                            x       y       z     vdW  Elec       q    Type
REMARK                         _______ _______ _______ _____ _____    ______ ____
ROOT
ATOM      1  C   UNL     1       0.810   9.744  19.314  0.00  0.00    +0.000 C 
ATOM      2  C   UNL     1       1.727  10.919  19.693  0.00  0.00    +0.000 C 
ATOM      3  S   UNL     1       1.317   9.108  17.660  0.00  0.00    +0.000 S 
ATOM      4  C   UNL     1       2.317   7.892  18.432  0.00  0.00    +0.000 C 
ATOM      5  N   UNL     1       3.179   7.229  17.612  0.00  0.00    +0.000 N 
ATOM      6  N   UNL     1       2.175   7.744  19.699  0.00  0.00    +0.000 NA
ATOM      7  C   UNL     1       1.217   8.577  20.234  0.00  0.00    +0.000 C 
ATOM      8  O   UNL     1       0.782   8.452  21.372  0.00  0.00    +0.000 OA
ATOM      9  H   UNL     1       3.140   7.491  16.634  0.00  0.00    +0.000 HD
ENDROOT
BRANCH   5  10
ATOM     10  C   UNL     1       4.410   6.593  18.072  0.00  0.00    +0.000 C 
ATOM     11  C   UNL     1       4.336   5.062  17.849  0.00  0.00    +0.000 C 
ATOM     12  C   UNL     1       5.411   4.798  16.770  0.00  0.00    +0.000 C 
ATOM     13  C   UNL     1       5.386   6.092  15.950  0.00  0.00    +0.000 C 
ATOM     14  C   UNL     1       5.615   6.980  17.173  0.00  0.00    +0.000 C 
ATOM     15  C   UNL     1       6.924   6.381  17.749  0.00  0.00    +0.000 C 
ATOM     16  C   UNL     1       6.790   4.878  17.448  0.00  0.00    +0.000 C 
BRANCH  16  17
ATOM     17  O   UNL     1       7.821   4.426  16.581  0.00  0.00    +0.000 OA
ATOM     18  H   UNL     1       7.452   4.235  15.704  0.00  0.00    +0.000 HD
ENDBRANCH  16  17
ENDBRANCH   5  10
BRANCH   1  20
ATOM     19  C   UNL     1      -1.451  10.257  18.127  0.00  0.00    +0.000 C 
ATOM     20  C   UNL     1      -0.697  10.121  19.457  0.00  0.00    +0.000 C 
ATOM     21  C   UNL     1      -0.949  11.388  20.291  0.00  0.00    +0.000 C 
ENDBRANCH   1  20
TORSDOF 3
ENDMDL
MODEL 4
REMARK VINA RESULT:      -5.9      2.048      7.294
REMARK  Name = 
REMARK  6 active torsions:
REMARK  status: ('A' for Active; 'I' for Inactive)
REMARK    1  A    between atoms: C_1  and  C_2
REMARK    2  A    between atoms: C_2  and  C_3
REMARK    3  A    between atoms: C_2  and  C_4
REMARK    4  A    between atoms: C_4  and  C_5
REMARK    5  A    between atoms: N_8  and  C_9
REMARK    6  A    between atoms: C_15  and  O_16
REMARK                            x       y       z     vdW  Elec       q    Type
REMARK                         _______ _______ _______ _____ _____    ______ ____
ROOT
ATOM      1  C   UNL     1       2.772   4.646  19.066  0.00  0.00    +0.000 C 
ATOM      2  C   UNL     1       1.664   4.131  18.130  0.00  0.00    +0.000 C 
ATOM      3  S   UNL     1       3.276   6.331  18.515  0.00  0.00    +0.000 S 
ATOM      4  C   UNL     1       2.167   7.043  19.671  0.00  0.00    +0.000 C 
ATOM      5  N   UNL     1       1.940   8.377  19.526  0.00  0.00    +0.000 N 
ATOM      6  N   UNL     1       1.644   6.251  20.536  0.00  0.00    +0.000 NA
ATOM      7  C   UNL     1       2.081   4.951  20.409  0.00  0.00    +0.000 C 
ATOM      8  O   UNL     1       1.872   4.089  21.254  0.00  0.00    +0.000 OA
ATOM      9  H   UNL     1       2.452   8.829  18.778  0.00  0.00    +0.000 HD
ENDROOT
BRANCH   5  10
ATOM     10  C   UNL     1       0.732   9.051  19.993  0.00  0.00    +0.000 C 
ATOM     11  C   UNL     1       1.059   9.959  21.204  0.00  0.00    +0.000 C 
ATOM     12  C   UNL     1       0.823  11.388  20.663  0.00  0.00    +0.000 C 
ATOM     13  C   UNL     1       1.194  11.251  19.182  0.00  0.00    +0.000 C 
ATOM     14  C   UNL     1       0.227  10.088  18.954  0.00  0.00    +0.000 C 
ATOM     15  C   UNL     1      -1.115  10.706  19.425  0.00  0.00    +0.000 C 
ATOM     16  C   UNL     1      -0.696  11.620  20.590  0.00  0.00    +0.000 C 
BRANCH  16  17
ATOM     17  O   UNL     1      -1.001  12.982  20.319  0.00  0.00    +0.000 OA
ATOM     18  H   UNL     1      -0.242  13.540  20.554  0.00  0.00    +0.000 HD
ENDBRANCH  16  17
ENDBRANCH   5  10
BRANCH   1  20
ATOM     19  C   UNL     1       5.277   4.075  18.643  0.00  0.00    +0.000 C 
ATOM     20  C   UNL     1       3.930   3.610  19.211  0.00  0.00    +0.000 C 
ATOM     21  C   UNL     1       3.607   2.224  18.626  0.00  0.00    +0.000 C 
ENDBRANCH   1  20
TORSDOF 3
ENDMDL
MODEL 5
REMARK VINA RESULT:      -5.8      1.893      2.566
REMARK  Name = 
REMARK  6 active torsions:
REMARK  status: ('A' for Active; 'I' for Inactive)
REMARK    1  A    between atoms: C_1  and  C_2
REMARK    2  A    between atoms: C_2  and  C_3
REMARK    3  A    between atoms: C_2  and  C_4
REMARK    4  A    between atoms: C_4  and  C_5
REMARK    5  A    between atoms: N_8  and  C_9
REMARK    6  A    between atoms: C_15  and  O_16
REMARK                            x       y       z     vdW  Elec       q    Type
REMARK                         _______ _______ _______ _____ _____    ______ ____
ROOT
ATOM      1  C   UNL     1       0.488  10.722  19.369  0.00  0.00    +0.000 C 
ATOM      2  C   UNL     1       1.627  11.697  19.717  0.00  0.00    +0.000 C 
ATOM      3  S   UNL     1       1.007   9.696  17.929  0.00  0.00    +0.000 S 
ATOM      4  C   UNL     1       1.555   8.439  19.022  0.00  0.00    +0.000 C 
ATOM      5  N   UNL     1       2.307   7.453  18.458  0.00  0.00    +0.000 N 
ATOM      6  N   UNL     1       1.229   8.561  20.257  0.00  0.00    +0.000 NA
ATOM      7  C   UNL     1       0.463   9.679  20.503  0.00  0.00    +0.000 C 
ATOM      8  O   UNL     1      -0.124   9.869  21.560  0.00  0.00    +0.000 OA
ATOM      9  H   UNL     1       2.456   7.534  17.459  0.00  0.00    +0.000 HD
ENDROOT
BRANCH   5  10
ATOM     10  C   UNL     1       3.265   6.638  19.199  0.00  0.00    +0.000 C 
ATOM     11  C   UNL     1       2.561   5.395  19.796  0.00  0.00    +0.000 C 
ATOM     12  C   UNL     1       3.190   4.212  19.024  0.00  0.00    +0.000 C 
ATOM     13  C   UNL     1       3.489   4.829  17.654  0.00  0.00    +0.000 C 
ATOM     14  C   UNL     1       4.301   5.981  18.247  0.00  0.00    +0.000 C 
ATOM     15  C   UNL     1       5.369   5.213  19.069  0.00  0.00    +0.000 C 
ATOM     16  C   UNL     1       4.604   3.981  19.585  0.00  0.00    +0.000 C 
BRANCH  16  17
ATOM     17  O   UNL     1       5.167   2.774  19.091  0.00  0.00    +0.000 OA
ATOM     18  H   UNL     1       5.387   2.188  19.832  0.00  0.00    +0.000 HD
ENDBRANCH  16  17
ENDBRANCH   5  10
BRANCH   1  20
ATOM     19  C   UNL     1      -1.936  10.690  18.417  0.00  0.00    +0.000 C 
ATOM     20  C   UNL     1      -0.875  11.465  19.209  0.00  0.00    +0.000 C 
ATOM     21  C   UNL     1      -0.753  12.876  18.608  0.00  0.00    +0.000 C 
ENDBRANCH   1  20
TORSDOF 3
ENDMDL
MODEL 6
REMARK VINA RESULT:      -5.7      2.553      7.028
REMARK  Name = 
REMARK  6 active torsions:
REMARK  status: ('A' for Active; 'I' for Inactive)
REMARK    1  A    between atoms: C_1  and  C_2
REMARK    2  A    between atoms: C_2  and  C_3
REMARK    3  A    between atoms: C_2  and  C_4
REMARK    4  A    between atoms: C_4  and  C_5
REMARK    5  A    between atoms: N_8  and  C_9
REMARK    6  A    between atoms: C_15  and  O_16
REMARK                            x       y       z     vdW  Elec       q    Type
REMARK                         _______ _______ _______ _____ _____    ______ ____
ROOT
ATOM      1  C   UNL     1       4.942   5.194  17.641  0.00  0.00    +0.000 C 
ATOM      2  C   UNL     1       4.135   4.295  16.688  0.00  0.00    +0.000 C 
ATOM      3  S   UNL     1       4.808   6.939  17.065  0.00  0.00    +0.000 S 
ATOM      4  C   UNL     1       3.475   7.205  18.173  0.00  0.00    +0.000 C 
ATOM      5  N   UNL     1       2.777   8.359  17.991  0.00  0.00    +0.000 N 
ATOM      6  N   UNL     1       3.251   6.286  19.042  0.00  0.00    +0.000 NA
ATOM      7  C   UNL     1       4.142   5.238  18.957  0.00  0.00    +0.000 C 
ATOM      8  O   UNL     1       4.236   4.370  19.816  0.00  0.00    +0.000 OA
ATOM      9  H   UNL     1       3.111   8.959  17.247  0.00  0.00    +0.000 HD
ENDROOT
BRANCH   5  10
ATOM     10  C   UNL     1       1.390   8.544  18.408  0.00  0.00    +0.000 C 
ATOM     11  C   UNL     1       1.323   8.840  19.927  0.00  0.00    +0.000 C 
ATOM     12  C   UNL     1       0.820  10.301  19.992  0.00  0.00    +0.000 C 
ATOM     13  C   UNL     1       1.405  10.914  18.715  0.00  0.00    +0.000 C 
ATOM     14  C   UNL     1       0.790   9.846  17.811  0.00  0.00    +0.000 C 
ATOM     15  C   UNL     1      -0.712   9.958  18.179  0.00  0.00    +0.000 C 
ATOM     16  C   UNL     1      -0.687  10.296  19.680  0.00  0.00    +0.000 C 
BRANCH  16  17
ATOM     17  O   UNL     1      -1.275  11.563  19.939  0.00  0.00    +0.000 OA
ATOM     18  H   UNL     1      -1.763  11.532  20.778  0.00  0.00    +0.000 HD
ENDBRANCH  16  17
ENDBRANCH   5  10
BRANCH   1  20
ATOM     19  C   UNL     1       7.268   5.520  18.765  0.00  0.00    +0.000 C 
ATOM     20  C   UNL     1       6.394   4.661  17.842  0.00  0.00    +0.000 C 
ATOM     21  C   UNL     1       7.161   4.423  16.530  0.00  0.00    +0.000 C 
ENDBRANCH   1  20
TORSDOF 3
ENDMDL
MODEL 7
REMARK VINA RESULT:      -5.7      2.636      6.989
REMARK  Name = 
REMARK  6 active torsions:
REMARK  status: ('A' for Active; 'I' for Inactive)
REMARK    1  A    between atoms: C_1  and  C_2
REMARK    2  A    between atoms: C_2  and  C_3
REMARK    3  A    between atoms: C_2  and  C_4
REMARK    4  A    between atoms: C_4  and  C_5
REMARK    5  A    between atoms: N_8  and  C_9
REMARK    6  A    between atoms: C_15  and  O_16
REMARK                            x       y       z     vdW  Elec       q    Type
REMARK                         _______ _______ _______ _____ _____    ______ ____
ROOT
ATOM      1  C   UNL     1       3.433   4.168  19.015  0.00  0.00    +0.000 C 
ATOM      2  C   UNL     1       3.011   3.493  20.332  0.00  0.00    +0.000 C 
ATOM      3  S   UNL     1       1.991   5.092  18.335  0.00  0.00    +0.000 S 
ATOM      4  C   UNL     1       2.565   6.559  19.104  0.00  0.00    +0.000 C 
ATOM      5  N   UNL     1       1.685   7.597  19.126  0.00  0.00    +0.000 N 
ATOM      6  N   UNL     1       3.748   6.527  19.603  0.00  0.00    +0.000 NA
ATOM      7  C   UNL     1       4.378   5.317  19.415  0.00  0.00    +0.000 C 
ATOM      8  O   UNL     1       5.573   5.145  19.623  0.00  0.00    +0.000 OA
ATOM      9  H   UNL     1       0.794   7.424  18.676  0.00  0.00    +0.000 HD
ENDROOT
BRANCH   5  10
ATOM     10  C   UNL     1       1.723   8.674  20.112  0.00  0.00    +0.000 C 
ATOM     11  C   UNL     1       0.674   9.757  19.762  0.00  0.00    +0.000 C 
ATOM     12  C   UNL     1      -0.349   9.660  20.917  0.00  0.00    +0.000 C 
ATOM     13  C   UNL     1      -0.295   8.175  21.289  0.00  0.00    +0.000 C 
ATOM     14  C   UNL     1       1.219   8.188  21.498  0.00  0.00    +0.000 C 
ATOM     15  C   UNL     1       1.376   9.318  22.548  0.00  0.00    +0.000 C 
ATOM     16  C   UNL     1       0.276  10.321  22.158  0.00  0.00    +0.000 C 
BRANCH  16  17
ATOM     17  O   UNL     1      -0.678  10.479  23.199  0.00  0.00    +0.000 OA
ATOM     18  H   UNL     1      -1.558  10.630  22.817  0.00  0.00    +0.000 HD
ENDBRANCH  16  17
ENDBRANCH   5  10
BRANCH   1  20
ATOM     19  C   UNL     1       4.407   3.714  16.643  0.00  0.00    +0.000 C 
ATOM     20  C   UNL     1       4.104   3.153  18.039  0.00  0.00    +0.000 C 
ATOM     21  C   UNL     1       3.329   1.834  17.875  0.00  0.00    +0.000 C 
ENDBRANCH   1  20
TORSDOF 3
ENDMDL
MODEL 8
REMARK VINA RESULT:      -5.7      2.132      2.832
REMARK  Name = 
REMARK  6 active torsions:
REMARK  status: ('A' for Active; 'I' for Inactive)
REMARK    1  A    between atoms: C_1  and  C_2
REMARK    2  A    between atoms: C_2  and  C_3
REMARK    3  A    between atoms: C_2  and  C_4
REMARK    4  A    between atoms: C_4  and  C_5
REMARK    5  A    between atoms: N_8  and  C_9
REMARK    6  A    between atoms: C_15  and  O_16
REMARK                            x       y       z     vdW  Elec       q    Type
REMARK                         _______ _______ _______ _____ _____    ______ ____
ROOT
ATOM      1  C   UNL     1       0.320  11.021  20.808  0.00  0.00    +0.000 C 
ATOM      2  C   UNL     1       1.535  11.965  20.778  0.00  0.00    +0.000 C 
ATOM      3  S   UNL     1       0.292  10.043  19.246  0.00  0.00    +0.000 S 
ATOM      4  C   UNL     1       1.145   8.737  20.047  0.00  0.00    +0.000 C 
ATOM      5  N   UNL     1       1.634   7.763  19.231  0.00  0.00    +0.000 N 
ATOM      6  N   UNL     1       1.261   8.817  21.323  0.00  0.00    +0.000 NA
ATOM      7  C   UNL     1       0.654   9.936  21.849  0.00  0.00    +0.000 C 
ATOM      8  O   UNL     1       0.467  10.094  23.049  0.00  0.00    +0.000 OA
ATOM      9  H   UNL     1       1.436   7.880  18.244  0.00  0.00    +0.000 HD
ENDROOT
BRANCH   5  10
ATOM     10  C   UNL     1       2.764   6.906  19.575  0.00  0.00    +0.000 C 
ATOM     11  C   UNL     1       2.263   5.600  20.239  0.00  0.00    +0.000 C 
ATOM     12  C   UNL     1       2.627   4.505  19.210  0.00  0.00    +0.000 C 
ATOM     13  C   UNL     1       2.508   5.248  17.875  0.00  0.00    +0.000 C 
ATOM     14  C   UNL     1       3.466   6.359  18.303  0.00  0.00    +0.000 C 
ATOM     15  C   UNL     1       4.726   5.546  18.697  0.00  0.00    +0.000 C 
ATOM     16  C   UNL     1       4.142   4.256  19.301  0.00  0.00    +0.000 C 
BRANCH  16  17
ATOM     17  O   UNL     1       4.526   3.110  18.553  0.00  0.00    +0.000 OA
ATOM     18  H   UNL     1       5.117   3.375  17.830  0.00  0.00    +0.000 HD
ENDBRANCH  16  17
ENDBRANCH   5  10
BRANCH   1  20
ATOM     19  C   UNL     1      -1.909  12.051  19.940  0.00  0.00    +0.000 C 
ATOM     20  C   UNL     1      -0.996  11.789  21.145  0.00  0.00    +0.000 C 
ATOM     21  C   UNL     1      -0.773  13.119  21.885  0.00  0.00    +0.000 C 
ENDBRANCH   1  20
TORSDOF 3
ENDMDL
MODEL 9
REMARK VINA RESULT:      -5.6      9.519     10.782
REMARK  Name = 
REMARK  6 active torsions:
REMARK  status: ('A' for Active; 'I' for Inactive)
REMARK    1  A    between atoms: C_1  and  C_2
REMARK    2  A    between atoms: C_2  and  C_3
REMARK    3  A    between atoms: C_2  and  C_4
REMARK    4  A    between atoms: C_4  and  C_5
REMARK    5  A    between atoms: N_8  and  C_9
REMARK    6  A    between atoms: C_15  and  O_16
REMARK                            x       y       z     vdW  Elec       q    Type
REMARK                         _______ _______ _______ _____ _____    ______ ____
ROOT
ATOM      1  C   UNL     1       7.533  13.265  23.313  0.00  0.00    +0.000 C 
ATOM      2  C   UNL     1       6.417  13.810  22.405  0.00  0.00    +0.000 C 
ATOM      3  S   UNL     1       8.326  11.827  22.478  0.00  0.00    +0.000 S 
ATOM      4  C   UNL     1       9.566  12.885  21.831  0.00  0.00    +0.000 C 
ATOM      5  N   UNL     1      10.358  12.344  20.865  0.00  0.00    +0.000 N 
ATOM      6  N   UNL     1       9.611  14.080  22.299  0.00  0.00    +0.000 NA
ATOM      7  C   UNL     1       8.662  14.312  23.270  0.00  0.00    +0.000 C 
ATOM      8  O   UNL     1       8.667  15.306  23.986  0.00  0.00    +0.000 OA
ATOM      9  H   UNL     1      10.165  11.377  20.632  0.00  0.00    +0.000 HD
ENDROOT
BRANCH   5  10
ATOM     10  C   UNL     1      11.065  13.132  19.859  0.00  0.00    +0.000 C 
ATOM     11  C   UNL     1      12.318  12.369  19.365  0.00  0.00    +0.000 C 
ATOM     12  C   UNL     1      11.989  12.044  17.889  0.00  0.00    +0.000 C 
ATOM     13  C   UNL     1      10.466  11.879  17.914  0.00  0.00    +0.000 C 
ATOM     14  C   UNL     1      10.237  13.250  18.551  0.00  0.00    +0.000 C 
ATOM     15  C   UNL     1      10.960  14.182  17.544  0.00  0.00    +0.000 C 
ATOM     16  C   UNL     1      12.156  13.336  17.073  0.00  0.00    +0.000 C 
BRANCH  16  17
ATOM     17  O   UNL     1      12.094  13.080  15.676  0.00  0.00    +0.000 OA
ATOM     18  H   UNL     1      11.950  12.132  15.523  0.00  0.00    +0.000 HD
ENDBRANCH  16  17
ENDBRANCH   5  10
BRANCH   1  20
ATOM     19  C   UNL     1       8.115  12.665  25.780  0.00  0.00    +0.000 C 
ATOM     20  C   UNL     1       7.017  13.001  24.762  0.00  0.00    +0.000 C 
ATOM     21  C   UNL     1       5.924  11.922  24.851  0.00  0.00    +0.000 C 
ENDBRANCH   1  20
TORSDOF 3
ENDMDL
