MODEL 1
REMARK VINA RESULT:      -7.5      0.000      0.000
REMARK  Name = 
REMARK  15 active torsions:
REMARK  status: ('A' for Active; 'I' for Inactive)
REMARK    1  A    between atoms: C_1  and  C_2
REMARK    2  A    between atoms: C_6  and  C_7
REMARK    3  A    between atoms: C_7  and  C_8
REMARK    4  A    between atoms: C_7  and  C_9
REMARK    5  A    between atoms: C_7  and  C_10
REMARK    6  A    between atoms: C_13  and  C_14
REMARK    7  A    between atoms: C_15  and  C_16
REMARK    8  A    between atoms: N_18  and  C_19
REMARK    9  A    between atoms: C_19  and  C_20
REMARK   10  A    between atoms: C_20  and  C_21
REMARK   11  A    between atoms: C_20  and  C_22
REMARK   12  A    between atoms: C_20  and  N_23
REMARK   13  A    between atoms: N_23  and  C_24
REMARK   14  A    between atoms: C_24  and  C_25
REMARK   15  A    between atoms: C_31  and  C_32
REMARK                            x       y       z     vdW  Elec       q    Type
REMARK                         _______ _______ _______ _____ _____    ______ ____
ROOT
ATOM      1  C   UNL     1       2.168   6.605  19.983  0.00  0.00    +0.000 C 
ATOM      2  O   UNL     1       3.362   6.371  20.081  0.00  0.00    +0.000 OA
ATOM      3  N   UNL     1       1.317   5.511  20.058  0.00  0.00    +0.000 N 
ATOM      4  H   UNL     1       0.339   5.578  19.991  0.00  0.00    +0.000 HD
ENDROOT
BRANCH   1  15
ATOM      5  C   UNL     1       2.511   8.189  17.402  0.00  0.00    +0.000 C 
ATOM      6  C   UNL     1       1.910   8.810  18.518  0.00  0.00    +0.000 A 
ATOM      7  N   UNL     1       1.619  10.117  18.332  0.00  0.00    +0.000 NA
ATOM      8  C   UNL     1       1.046  10.801  19.308  0.00  0.00    +0.000 A 
ATOM      9  C   UNL     1       0.696  12.117  19.280  0.00  0.00    +0.000 A 
ATOM     10  C   UNL     1       0.047  12.289  20.485  0.00  0.00    +0.000 A 
ATOM     11  N   UNL     1       0.074  11.120  21.201  0.00  0.00    +0.000 NA
ATOM     12  N   UNL     1       0.706  10.214  20.452  0.00  0.00    +0.000 N 
ATOM     13  C   UNL     1       0.999   8.893  20.728  0.00  0.00    +0.000 A 
ATOM     14  C   UNL     1       0.594   8.264  22.011  0.00  0.00    +0.000 C 
ATOM     15  C   UNL     1       1.698   8.105  19.745  0.00  0.00    +0.000 A 
BRANCH  10  16
ATOM     16  C   UNL     1      -0.632  13.575  20.909  0.00  0.00    +0.000 C 
ATOM     17  C   UNL     1      -2.089  13.592  20.413  0.00  0.00    +0.000 C 
ATOM     18  C   UNL     1      -0.618  13.681  22.450  0.00  0.00    +0.000 C 
ATOM     19  C   UNL     1       0.129  14.764  20.318  0.00  0.00    +0.000 C 
ENDBRANCH  10  16
ENDBRANCH   1  15
BRANCH   3  20
ATOM     20  C   UNL     1       1.642   4.105  20.239  0.00  0.00    +0.000 C 
BRANCH  20  21
ATOM     21  C   UNL     1       1.642   3.314  18.848  0.00  0.00    +0.000 C 
ATOM     22  C   UNL     1       0.473   2.270  18.825  0.00  0.00    +0.000 C 
ATOM     23  C   UNL     1       1.454   4.307  17.659  0.00  0.00    +0.000 C 
BRANCH  21  24
ATOM     24  N   UNL     1       2.952   2.623  18.715  0.00  0.00    +0.000 NA
ATOM     25  H   UNL     1       2.774   1.679  18.296  0.00  0.00    +0.000 HD
BRANCH  24  26
ATOM     26  C   UNL     1       3.944   3.351  17.892  0.00  0.00    +0.000 C 
BRANCH  26  27
ATOM     27  C   UNL     1       5.033   3.998  18.689  0.00  0.00    +0.000 C 
ATOM     28  O   UNL     1       5.472   3.429  19.680  0.00  0.00    +0.000 OA
ATOM     29  N   UNL     1       5.663   5.107  18.208  0.00  0.00    +0.000 N 
ATOM     30  C   UNL     1       6.849   5.629  18.845  0.00  0.00    +0.000 C 
ATOM     31  C   UNL     1       7.492   6.484  17.756  0.00  0.00    +0.000 C 
ATOM     32  C   UNL     1       6.280   7.044  17.049  0.00  0.00    +0.000 C 
ATOM     33  C   UNL     1       5.329   5.823  16.990  0.00  0.00    +0.000 C 
BRANCH  33  34
ATOM     34  C   UNL     1       5.509   5.030  15.758  0.00  0.00    +0.000 C 
ATOM     35  N   UNL     1       5.696   4.379  14.828  0.00  0.00    +0.000 NA
ENDBRANCH  33  34
ENDBRANCH  26  27
ENDBRANCH  24  26
ENDBRANCH  21  24
ENDBRANCH  20  21
ENDBRANCH   3  20
TORSDOF 8
ENDMDL
MODEL 2
REMARK VINA RESULT:      -7.4      1.639      4.140
REMARK  Name = 
REMARK  15 active torsions:
REMARK  status: ('A' for Active; 'I' for Inactive)
REMARK    1  A    between atoms: C_1  and  C_2
REMARK    2  A    between atoms: C_6  and  C_7
REMARK    3  A    between atoms: C_7  and  C_8
REMARK    4  A    between atoms: C_7  and  C_9
REMARK    5  A    between atoms: C_7  and  C_10
REMARK    6  A    between atoms: C_13  and  C_14
REMARK    7  A    between atoms: C_15  and  C_16
REMARK    8  A    between atoms: N_18  and  C_19
REMARK    9  A    between atoms: C_19  and  C_20
REMARK   10  A    between atoms: C_20  and  C_21
REMARK   11  A    between atoms: C_20  and  C_22
REMARK   12  A    between atoms: C_20  and  N_23
REMARK   13  A    between atoms: N_23  and  C_24
REMARK   14  A    between atoms: C_24  and  C_25
REMARK   15  A    between atoms: C_31  and  C_32
REMARK                            x       y       z     vdW  Elec       q    Type
REMARK                         _______ _______ _______ _____ _____    ______ ____
ROOT
ATOM      1  C   UNL     1       2.673   7.388  18.039  0.00  0.00    +0.000 C 
ATOM      2  O   UNL     1       2.077   6.480  17.481  0.00  0.00    +0.000 OA
ATOM      3  N   UNL     1       3.990   7.592  17.649  0.00  0.00    +0.000 N 
ATOM      4  H   UNL     1       4.566   8.291  18.028  0.00  0.00    +0.000 HD
ENDROOT
BRANCH   1  15
ATOM      5  C   UNL     1       2.002   6.385  20.837  0.00  0.00    +0.000 C 
ATOM      6  C   UNL     1       1.608   7.686  20.457  0.00  0.00    +0.000 A 
ATOM      7  N   UNL     1       0.876   8.335  21.390  0.00  0.00    +0.000 NA
ATOM      8  C   UNL     1       0.457   9.565  21.148  0.00  0.00    +0.000 A 
ATOM      9  C   UNL     1      -0.291  10.347  21.977  0.00  0.00    +0.000 A 
ATOM     10  C   UNL     1      -0.347  11.547  21.300  0.00  0.00    +0.000 A 
ATOM     11  N   UNL     1       0.302  11.437  20.097  0.00  0.00    +0.000 NA
ATOM     12  N   UNL     1       0.785  10.195  20.023  0.00  0.00    +0.000 N 
ATOM     13  C   UNL     1       1.503   9.588  19.011  0.00  0.00    +0.000 A 
ATOM     14  C   UNL     1       1.865  10.323  17.773  0.00  0.00    +0.000 C 
ATOM     15  C   UNL     1       1.923   8.219  19.167  0.00  0.00    +0.000 A 
BRANCH  10  16
ATOM     16  C   UNL     1      -0.992  12.803  21.849  0.00  0.00    +0.000 C 
ATOM     17  C   UNL     1      -2.101  13.288  20.898  0.00  0.00    +0.000 C 
ATOM     18  C   UNL     1      -1.606  12.504  23.234  0.00  0.00    +0.000 C 
ATOM     19  C   UNL     1       0.074  13.892  21.998  0.00  0.00    +0.000 C 
ENDBRANCH  10  16
ENDBRANCH   1  15
BRANCH   3  20
ATOM     20  C   UNL     1       4.776   6.873  16.658  0.00  0.00    +0.000 C 
BRANCH  20  21
ATOM     21  C   UNL     1       6.086   6.221  17.303  0.00  0.00    +0.000 C 
ATOM     22  C   UNL     1       6.767   5.254  16.273  0.00  0.00    +0.000 C 
ATOM     23  C   UNL     1       7.107   7.333  17.698  0.00  0.00    +0.000 C 
BRANCH  21  24
ATOM     24  N   UNL     1       5.674   5.471  18.518  0.00  0.00    +0.000 NA
ATOM     25  H   UNL     1       4.801   5.917  18.888  0.00  0.00    +0.000 HD
BRANCH  24  26
ATOM     26  C   UNL     1       5.435   4.028  18.292  0.00  0.00    +0.000 C 
BRANCH  26  27
ATOM     27  C   UNL     1       4.028   3.701  17.902  0.00  0.00    +0.000 C 
ATOM     28  O   UNL     1       3.730   3.645  16.717  0.00  0.00    +0.000 OA
ATOM     29  N   UNL     1       3.139   3.279  18.846  0.00  0.00    +0.000 N 
ATOM     30  C   UNL     1       1.844   2.759  18.474  0.00  0.00    +0.000 C 
ATOM     31  C   UNL     1       1.416   1.959  19.703  0.00  0.00    +0.000 C 
ATOM     32  C   UNL     1       1.992   2.788  20.826  0.00  0.00    +0.000 C 
ATOM     33  C   UNL     1       3.384   3.184  20.274  0.00  0.00    +0.000 C 
BRANCH  33  34
ATOM     34  C   UNL     1       4.431   2.211  20.641  0.00  0.00    +0.000 C 
ATOM     35  N   UNL     1       5.214   1.441  20.982  0.00  0.00    +0.000 NA
ENDBRANCH  33  34
ENDBRANCH  26  27
ENDBRANCH  24  26
ENDBRANCH  21  24
ENDBRANCH  20  21
ENDBRANCH   3  20
TORSDOF 8
ENDMDL
MODEL 3
REMARK VINA RESULT:      -7.3      3.528      9.284
REMARK  Name = 
REMARK  15 active torsions:
REMARK  status: ('A' for Active; 'I' for Inactive)
REMARK    1  A    between atoms: C_1  and  C_2
REMARK    2  A    between atoms: C_6  and  C_7
REMARK    3  A    between atoms: C_7  and  C_8
REMARK    4  A    between atoms: C_7  and  C_9
REMARK    5  A    between atoms: C_7  and  C_10
REMARK    6  A    between atoms: C_13  and  C_14
REMARK    7  A    between atoms: C_15  and  C_16
REMARK    8  A    between atoms: N_18  and  C_19
REMARK    9  A    between atoms: C_19  and  C_20
REMARK   10  A    between atoms: C_20  and  C_21
REMARK   11  A    between atoms: C_20  and  C_22
REMARK   12  A    between atoms: C_20  and  N_23
REMARK   13  A    between atoms: N_23  and  C_24
REMARK   14  A    between atoms: C_24  and  C_25
REMARK   15  A    between atoms: C_31  and  C_32
REMARK                            x       y       z     vdW  Elec       q    Type
REMARK                         _______ _______ _______ _____ _____    ______ ____
ROOT
ATOM      1  C   UNL     1       0.349  11.946  21.102  0.00  0.00    +0.000 C 
ATOM      2  O   UNL     1       1.262  12.739  21.264  0.00  0.00    +0.000 OA
ATOM      3  N   UNL     1      -0.935  12.474  21.107  0.00  0.00    +0.000 N 
ATOM      4  H   UNL     1      -1.745  11.932  20.987  0.00  0.00    +0.000 HD
ENDROOT
BRANCH   1  15
ATOM      5  C   UNL     1      -0.314   9.752  23.110  0.00  0.00    +0.000 C 
ATOM      6  C   UNL     1       0.383   9.419  21.929  0.00  0.00    +0.000 A 
ATOM      7  N   UNL     1       0.764   8.123  21.860  0.00  0.00    +0.000 NA
ATOM      8  C   UNL     1       1.418   7.694  20.795  0.00  0.00    +0.000 A 
ATOM      9  C   UNL     1       1.873   6.428  20.577  0.00  0.00    +0.000 A 
ATOM     10  C   UNL     1       2.370   6.496  19.292  0.00  0.00    +0.000 A 
ATOM     11  N   UNL     1       2.251   7.775  18.812  0.00  0.00    +0.000 NA
ATOM     12  N   UNL     1       1.664   8.500  19.766  0.00  0.00    +0.000 N 
ATOM     13  C   UNL     1       1.334   9.842  19.776  0.00  0.00    +0.000 A 
ATOM     14  C   UNL     1       1.611  10.713  18.606  0.00  0.00    +0.000 C 
ATOM     15  C   UNL     1       0.694  10.403  20.938  0.00  0.00    +0.000 A 
BRANCH  10  16
ATOM     16  C   UNL     1       2.914   5.308  18.527  0.00  0.00    +0.000 C 
ATOM     17  C   UNL     1       3.624   4.339  19.488  0.00  0.00    +0.000 C 
ATOM     18  C   UNL     1       1.751   4.569  17.828  0.00  0.00    +0.000 C 
ATOM     19  C   UNL     1       3.903   5.802  17.467  0.00  0.00    +0.000 C 
ENDBRANCH  10  16
ENDBRANCH   1  15
BRANCH   3  20
ATOM     20  C   UNL     1      -1.359  13.854  21.281  0.00  0.00    +0.000 C 
BRANCH  20  21
ATOM     21  C   UNL     1      -2.942  13.966  21.480  0.00  0.00    +0.000 C 
ATOM     22  C   UNL     1      -3.415  12.968  22.594  0.00  0.00    +0.000 C 
ATOM     23  C   UNL     1      -3.335  15.416  21.904  0.00  0.00    +0.000 C 
BRANCH  21  24
ATOM     24  N   UNL     1      -3.591  13.636  20.184  0.00  0.00    +0.000 NA
ATOM     25  H   UNL     1      -2.958  13.965  19.416  0.00  0.00    +0.000 HD
BRANCH  24  26
ATOM     26  C   UNL     1      -3.888  12.198  20.000  0.00  0.00    +0.000 C 
BRANCH  26  27
ATOM     27  C   UNL     1      -4.624  11.889  18.734  0.00  0.00    +0.000 C 
ATOM     28  O   UNL     1      -5.770  12.294  18.591  0.00  0.00    +0.000 OA
ATOM     29  N   UNL     1      -3.962  11.336  17.677  0.00  0.00    +0.000 N 
ATOM     30  C   UNL     1      -4.588  11.220  16.381  0.00  0.00    +0.000 C 
ATOM     31  C   UNL     1      -3.406  11.059  15.428  0.00  0.00    +0.000 C 
ATOM     32  C   UNL     1      -2.443  10.252  16.266  0.00  0.00    +0.000 C 
ATOM     33  C   UNL     1      -2.574  10.911  17.661  0.00  0.00    +0.000 C 
BRANCH  33  34
ATOM     34  C   UNL     1      -1.607  12.009  17.857  0.00  0.00    +0.000 C 
ATOM     35  N   UNL     1      -0.817  12.838  17.962  0.00  0.00    +0.000 NA
ENDBRANCH  33  34
ENDBRANCH  26  27
ENDBRANCH  24  26
ENDBRANCH  21  24
ENDBRANCH  20  21
ENDBRANCH   3  20
TORSDOF 8
ENDMDL
MODEL 4
REMARK VINA RESULT:      -7.2      1.779      4.125
REMARK  Name = 
REMARK  15 active torsions:
REMARK  status: ('A' for Active; 'I' for Inactive)
REMARK    1  A    between atoms: C_1  and  C_2
REMARK    2  A    between atoms: C_6  and  C_7
REMARK    3  A    between atoms: C_7  and  C_8
REMARK    4  A    between atoms: C_7  and  C_9
REMARK    5  A    between atoms: C_7  and  C_10
REMARK    6  A    between atoms: C_13  and  C_14
REMARK    7  A    between atoms: C_15  and  C_16
REMARK    8  A    between atoms: N_18  and  C_19
REMARK    9  A    between atoms: C_19  and  C_20
REMARK   10  A    between atoms: C_20  and  C_21
REMARK   11  A    between atoms: C_20  and  C_22
REMARK   12  A    between atoms: C_20  and  N_23
REMARK   13  A    between atoms: N_23  and  C_24
REMARK   14  A    between atoms: C_24  and  C_25
REMARK   15  A    between atoms: C_31  and  C_32
REMARK                            x       y       z     vdW  Elec       q    Type
REMARK                         _______ _______ _______ _____ _____    ______ ____
ROOT
ATOM      1  C   UNL     1       2.590   7.487  17.991  0.00  0.00    +0.000 C 
ATOM      2  O   UNL     1       1.958   6.613  17.421  0.00  0.00    +0.000 OA
ATOM      3  N   UNL     1       3.913   7.647  17.601  0.00  0.00    +0.000 N 
ATOM      4  H   UNL     1       4.517   8.317  17.990  0.00  0.00    +0.000 HD
ENDROOT
BRANCH   1  15
ATOM      5  C   UNL     1       1.925   6.480  20.789  0.00  0.00    +0.000 C 
ATOM      6  C   UNL     1       1.562   7.794  20.425  0.00  0.00    +0.000 A 
ATOM      7  N   UNL     1       0.857   8.454  21.371  0.00  0.00    +0.000 NA
ATOM      8  C   UNL     1       0.468   9.696  21.143  0.00  0.00    +0.000 A 
ATOM      9  C   UNL     1      -0.249  10.491  21.987  0.00  0.00    +0.000 A 
ATOM     10  C   UNL     1      -0.282  11.698  21.320  0.00  0.00    +0.000 A 
ATOM     11  N   UNL     1       0.350  11.580  20.110  0.00  0.00    +0.000 NA
ATOM     12  N   UNL     1       0.800  10.327  20.020  0.00  0.00    +0.000 N 
ATOM     13  C   UNL     1       1.490   9.710  18.995  0.00  0.00    +0.000 A 
ATOM     14  C   UNL     1       1.856  10.445  17.759  0.00  0.00    +0.000 C 
ATOM     15  C   UNL     1       1.875   8.328  19.135  0.00  0.00    +0.000 A 
BRANCH  10  16
ATOM     16  C   UNL     1      -0.887  12.965  21.887  0.00  0.00    +0.000 C 
ATOM     17  C   UNL     1      -1.548  12.675  23.246  0.00  0.00    +0.000 C 
ATOM     18  C   UNL     1       0.220  14.026  22.076  0.00  0.00    +0.000 C 
ATOM     19  C   UNL     1      -1.934  13.504  20.908  0.00  0.00    +0.000 C 
ENDBRANCH  10  16
ENDBRANCH   1  15
BRANCH   3  20
ATOM     20  C   UNL     1       4.669   6.915  16.597  0.00  0.00    +0.000 C 
BRANCH  20  21
ATOM     21  C   UNL     1       5.352   5.604  17.210  0.00  0.00    +0.000 C 
ATOM     22  C   UNL     1       6.864   5.546  16.800  0.00  0.00    +0.000 C 
ATOM     23  C   UNL     1       5.254   5.619  18.767  0.00  0.00    +0.000 C 
BRANCH  21  24
ATOM     24  N   UNL     1       4.628   4.419  16.678  0.00  0.00    +0.000 NA
ATOM     25  H   UNL     1       5.212   4.005  15.913  0.00  0.00    +0.000 HD
BRANCH  24  26
ATOM     26  C   UNL     1       4.330   3.383  17.691  0.00  0.00    +0.000 C 
BRANCH  26  27
ATOM     27  C   UNL     1       2.876   3.265  18.027  0.00  0.00    +0.000 C 
ATOM     28  O   UNL     1       2.066   3.071  17.130  0.00  0.00    +0.000 OA
ATOM     29  N   UNL     1       2.482   3.175  19.329  0.00  0.00    +0.000 N 
ATOM     30  C   UNL     1       1.118   2.852  19.677  0.00  0.00    +0.000 C 
ATOM     31  C   UNL     1       1.225   2.359  21.118  0.00  0.00    +0.000 C 
ATOM     32  C   UNL     1       2.325   3.239  21.663  0.00  0.00    +0.000 C 
ATOM     33  C   UNL     1       3.342   3.272  20.495  0.00  0.00    +0.000 C 
BRANCH  33  34
ATOM     34  C   UNL     1       4.345   2.195  20.592  0.00  0.00    +0.000 C 
ATOM     35  N   UNL     1       5.143   1.365  20.605  0.00  0.00    +0.000 NA
ENDBRANCH  33  34
ENDBRANCH  26  27
ENDBRANCH  24  26
ENDBRANCH  21  24
ENDBRANCH  20  21
ENDBRANCH   3  20
TORSDOF 8
ENDMDL
MODEL 5
REMARK VINA RESULT:      -7.2      0.519      1.025
REMARK  Name = 
REMARK  15 active torsions:
REMARK  status: ('A' for Active; 'I' for Inactive)
REMARK    1  A    between atoms: C_1  and  C_2
REMARK    2  A    between atoms: C_6  and  C_7
REMARK    3  A    between atoms: C_7  and  C_8
REMARK    4  A    between atoms: C_7  and  C_9
REMARK    5  A    between atoms: C_7  and  C_10
REMARK    6  A    between atoms: C_13  and  C_14
REMARK    7  A    between atoms: C_15  and  C_16
REMARK    8  A    between atoms: N_18  and  C_19
REMARK    9  A    between atoms: C_19  and  C_20
REMARK   10  A    between atoms: C_20  and  C_21
REMARK   11  A    between atoms: C_20  and  C_22
REMARK   12  A    between atoms: C_20  and  N_23
REMARK   13  A    between atoms: N_23  and  C_24
REMARK   14  A    between atoms: C_24  and  C_25
REMARK   15  A    between atoms: C_31  and  C_32
REMARK                            x       y       z     vdW  Elec       q    Type
REMARK                         _______ _______ _______ _____ _____    ______ ____
ROOT
ATOM      1  C   UNL     1       2.253   6.619  20.020  0.00  0.00    +0.000 C 
ATOM      2  O   UNL     1       3.455   6.407  20.040  0.00  0.00    +0.000 OA
ATOM      3  N   UNL     1       1.431   5.526  20.258  0.00  0.00    +0.000 N 
ATOM      4  H   UNL     1       0.450   5.576  20.266  0.00  0.00    +0.000 HD
ENDROOT
BRANCH   1  15
ATOM      5  C   UNL     1       2.530   8.049  17.344  0.00  0.00    +0.000 C 
ATOM      6  C   UNL     1       1.921   8.720  18.425  0.00  0.00    +0.000 A 
ATOM      7  N   UNL     1       1.591  10.005  18.162  0.00  0.00    +0.000 NA
ATOM      8  C   UNL     1       1.006  10.731  19.099  0.00  0.00    +0.000 A 
ATOM      9  C   UNL     1       0.618  12.034  18.993  0.00  0.00    +0.000 A 
ATOM     10  C   UNL     1      -0.026  12.261  20.191  0.00  0.00    +0.000 A 
ATOM     11  N   UNL     1       0.040  11.140  20.977  0.00  0.00    +0.000 NA
ATOM     12  N   UNL     1       0.692  10.207  20.280  0.00  0.00    +0.000 N 
ATOM     13  C   UNL     1       1.025   8.915  20.634  0.00  0.00    +0.000 A 
ATOM     14  C   UNL     1       0.648   8.355  21.957  0.00  0.00    +0.000 C 
ATOM     15  C   UNL     1       1.739   8.087  19.695  0.00  0.00    +0.000 A 
BRANCH  10  16
ATOM     16  C   UNL     1      -0.739  13.551  20.541  0.00  0.00    +0.000 C 
ATOM     17  C   UNL     1      -0.359  13.996  21.965  0.00  0.00    +0.000 C 
ATOM     18  C   UNL     1      -0.332  14.653  19.538  0.00  0.00    +0.000 C 
ATOM     19  C   UNL     1      -2.251  13.329  20.455  0.00  0.00    +0.000 C 
ENDBRANCH  10  16
ENDBRANCH   1  15
BRANCH   3  20
ATOM     20  C   UNL     1       1.796   4.145  20.531  0.00  0.00    +0.000 C 
BRANCH  20  21
ATOM     21  C   UNL     1       1.812   3.262  19.197  0.00  0.00    +0.000 C 
ATOM     22  C   UNL     1       2.475   1.870  19.482  0.00  0.00    +0.000 C 
ATOM     23  C   UNL     1       0.358   3.030  18.682  0.00  0.00    +0.000 C 
BRANCH  21  24
ATOM     24  N   UNL     1       2.590   4.002  18.168  0.00  0.00    +0.000 NA
ATOM     25  H   UNL     1       2.711   4.987  18.506  0.00  0.00    +0.000 HD
BRANCH  24  26
ATOM     26  C   UNL     1       3.916   3.416  17.868  0.00  0.00    +0.000 C 
BRANCH  26  27
ATOM     27  C   UNL     1       5.032   3.999  18.676  0.00  0.00    +0.000 C 
ATOM     28  O   UNL     1       5.457   3.386  19.646  0.00  0.00    +0.000 OA
ATOM     29  N   UNL     1       5.699   5.100  18.224  0.00  0.00    +0.000 N 
ATOM     30  C   UNL     1       6.907   5.560  18.868  0.00  0.00    +0.000 C 
ATOM     31  C   UNL     1       7.572   6.425  17.800  0.00  0.00    +0.000 C 
ATOM     32  C   UNL     1       6.376   7.049  17.120  0.00  0.00    +0.000 C 
ATOM     33  C   UNL     1       5.382   5.864  17.031  0.00  0.00    +0.000 C 
BRANCH  33  34
ATOM     34  C   UNL     1       5.525   5.104  15.774  0.00  0.00    +0.000 C 
ATOM     35  N   UNL     1       5.637   4.569  14.762  0.00  0.00    +0.000 NA
ENDBRANCH  33  34
ENDBRANCH  26  27
ENDBRANCH  24  26
ENDBRANCH  21  24
ENDBRANCH  20  21
ENDBRANCH   3  20
TORSDOF 8
ENDMDL
MODEL 6
REMARK VINA RESULT:      -7.2      3.232      9.079
REMARK  Name = 
REMARK  15 active torsions:
REMARK  status: ('A' for Active; 'I' for Inactive)
REMARK    1  A    between atoms: C_1  and  C_2
REMARK    2  A    between atoms: C_6  and  C_7
REMARK    3  A    between atoms: C_7  and  C_8
REMARK    4  A    between atoms: C_7  and  C_9
REMARK    5  A    between atoms: C_7  and  C_10
REMARK    6  A    between atoms: C_13  and  C_14
REMARK    7  A    between atoms: C_15  and  C_16
REMARK    8  A    between atoms: N_18  and  C_19
REMARK    9  A    between atoms: C_19  and  C_20
REMARK   10  A    between atoms: C_20  and  C_21
REMARK   11  A    between atoms: C_20  and  C_22
REMARK   12  A    between atoms: C_20  and  N_23
REMARK   13  A    between atoms: N_23  and  C_24
REMARK   14  A    between atoms: C_24  and  C_25
REMARK   15  A    between atoms: C_31  and  C_32
REMARK                            x       y       z     vdW  Elec       q    Type
REMARK                         _______ _______ _______ _____ _____    ______ ____
ROOT
ATOM      1  C   UNL     1      -0.664  11.495  21.014  0.00  0.00    +0.000 C 
ATOM      2  O   UNL     1      -1.815  11.632  20.635  0.00  0.00    +0.000 OA
ATOM      3  N   UNL     1      -0.321  12.142  22.194  0.00  0.00    +0.000 N 
ATOM      4  H   UNL     1       0.575  12.104  22.593  0.00  0.00    +0.000 HD
ENDROOT
BRANCH   1  15
ATOM      5  C   UNL     1       0.797  12.479  18.527  0.00  0.00    +0.000 C 
ATOM      6  C   UNL     1       0.976  11.144  18.950  0.00  0.00    +0.000 A 
ATOM      7  N   UNL     1       1.743  10.401  18.121  0.00  0.00    +0.000 NA
ATOM      8  C   UNL     1       1.986   9.136  18.420  0.00  0.00    +0.000 A 
ATOM      9  C   UNL     1       2.731   8.258  17.690  0.00  0.00    +0.000 A 
ATOM     10  C   UNL     1       2.756   7.136  18.492  0.00  0.00    +0.000 A 
ATOM     11  N   UNL     1       2.005   7.349  19.618  0.00  0.00    +0.000 NA
ATOM     12  N   UNL     1       1.532   8.595  19.546  0.00  0.00    +0.000 N 
ATOM     13  C   UNL     1       0.717   9.281  20.426  0.00  0.00    +0.000 A 
ATOM     14  C   UNL     1       0.236   8.652  21.683  0.00  0.00    +0.000 C 
ATOM     15  C   UNL     1       0.339  10.638  20.127  0.00  0.00    +0.000 A 
BRANCH  10  16
ATOM     16  C   UNL     1       3.548   5.884  18.176  0.00  0.00    +0.000 C 
ATOM     17  C   UNL     1       4.483   6.136  16.980  0.00  0.00    +0.000 C 
ATOM     18  C   UNL     1       4.393   5.485  19.407  0.00  0.00    +0.000 C 
ATOM     19  C   UNL     1       2.578   4.746  17.844  0.00  0.00    +0.000 C 
ENDBRANCH  10  16
ENDBRANCH   1  15
BRANCH   3  20
ATOM     20  C   UNL     1      -1.145  12.972  23.059  0.00  0.00    +0.000 C 
BRANCH  20  21
ATOM     21  C   UNL     1      -0.824  14.527  22.868  0.00  0.00    +0.000 C 
ATOM     22  C   UNL     1      -1.444  15.042  21.523  0.00  0.00    +0.000 C 
ATOM     23  C   UNL     1      -1.424  15.354  24.048  0.00  0.00    +0.000 C 
BRANCH  21  24
ATOM     24  N   UNL     1       0.654  14.690  22.849  0.00  0.00    +0.000 NA
ATOM     25  H   UNL     1       1.081  13.734  22.878  0.00  0.00    +0.000 HD
BRANCH  24  26
ATOM     26  C   UNL     1       1.170  15.429  21.675  0.00  0.00    +0.000 C 
BRANCH  26  27
ATOM     27  C   UNL     1       2.272  14.720  20.952  0.00  0.00    +0.000 C 
ATOM     28  O   UNL     1       2.596  13.594  21.304  0.00  0.00    +0.000 OA
ATOM     29  N   UNL     1       2.773  15.239  19.794  0.00  0.00    +0.000 N 
ATOM     30  C   UNL     1       3.682  14.482  18.967  0.00  0.00    +0.000 C 
ATOM     31  C   UNL     1       3.577  15.166  17.605  0.00  0.00    +0.000 C 
ATOM     32  C   UNL     1       3.386  16.611  18.001  0.00  0.00    +0.000 C 
ATOM     33  C   UNL     1       2.403  16.508  19.193  0.00  0.00    +0.000 C 
BRANCH  33  34
ATOM     34  C   UNL     1       0.993  16.583  18.766  0.00  0.00    +0.000 C 
ATOM     35  N   UNL     1      -0.087  16.641  18.371  0.00  0.00    +0.000 NA
ENDBRANCH  33  34
ENDBRANCH  26  27
ENDBRANCH  24  26
ENDBRANCH  21  24
ENDBRANCH  20  21
ENDBRANCH   3  20
TORSDOF 8
ENDMDL
MODEL 7
REMARK VINA RESULT:      -7.1      3.811     10.839
REMARK  Name = 
REMARK  15 active torsions:
REMARK  status: ('A' for Active; 'I' for Inactive)
REMARK    1  A    between atoms: C_1  and  C_2
REMARK    2  A    between atoms: C_6  and  C_7
REMARK    3  A    between atoms: C_7  and  C_8
REMARK    4  A    between atoms: C_7  and  C_9
REMARK    5  A    between atoms: C_7  and  C_10
REMARK    6  A    between atoms: C_13  and  C_14
REMARK    7  A    between atoms: C_15  and  C_16
REMARK    8  A    between atoms: N_18  and  C_19
REMARK    9  A    between atoms: C_19  and  C_20
REMARK   10  A    between atoms: C_20  and  C_21
REMARK   11  A    between atoms: C_20  and  C_22
REMARK   12  A    between atoms: C_20  and  N_23
REMARK   13  A    between atoms: N_23  and  C_24
REMARK   14  A    between atoms: C_24  and  C_25
REMARK   15  A    between atoms: C_31  and  C_32
REMARK                            x       y       z     vdW  Elec       q    Type
REMARK                         _______ _______ _______ _____ _____    ______ ____
ROOT
ATOM      1  C   UNL     1       0.664  11.237  20.211  0.00  0.00    +0.000 C 
ATOM      2  O   UNL     1       1.540  12.050  20.459  0.00  0.00    +0.000 OA
ATOM      3  N   UNL     1      -0.611  11.748  20.004  0.00  0.00    +0.000 N 
ATOM      4  H   UNL     1      -1.392  11.190  19.799  0.00  0.00    +0.000 HD
ENDROOT
BRANCH   1  15
ATOM      5  C   UNL     1       0.078   9.227  22.425  0.00  0.00    +0.000 C 
ATOM      6  C   UNL     1       0.761   8.798  21.267  0.00  0.00    +0.000 A 
ATOM      7  N   UNL     1       1.167   7.509  21.310  0.00  0.00    +0.000 NA
ATOM      8  C   UNL     1       1.812   6.995  20.277  0.00  0.00    +0.000 A 
ATOM      9  C   UNL     1       2.288   5.723  20.168  0.00  0.00    +0.000 A 
ATOM     10  C   UNL     1       2.762   5.682  18.873  0.00  0.00    +0.000 A 
ATOM     11  N   UNL     1       2.610   6.908  18.280  0.00  0.00    +0.000 NA
ATOM     12  N   UNL     1       2.024   7.708  19.174  0.00  0.00    +0.000 N 
ATOM     13  C   UNL     1       1.668   9.038  19.066  0.00  0.00    +0.000 A 
ATOM     14  C   UNL     1       1.908   9.802  17.816  0.00  0.00    +0.000 C 
ATOM     15  C   UNL     1       1.037   9.692  20.184  0.00  0.00    +0.000 A 
BRANCH  10  16
ATOM     16  C   UNL     1       3.317   4.438  18.211  0.00  0.00    +0.000 C 
ATOM     17  C   UNL     1       4.273   4.827  17.070  0.00  0.00    +0.000 C 
ATOM     18  C   UNL     1       4.086   3.598  19.254  0.00  0.00    +0.000 C 
ATOM     19  C   UNL     1       2.159   3.606  17.653  0.00  0.00    +0.000 C 
ENDBRANCH  10  16
ENDBRANCH   1  15
BRANCH   3  20
ATOM     20  C   UNL     1      -1.063  13.130  20.038  0.00  0.00    +0.000 C 
BRANCH  20  21
ATOM     21  C   UNL     1      -1.540  13.560  21.504  0.00  0.00    +0.000 C 
ATOM     22  C   UNL     1      -2.033  12.301  22.298  0.00  0.00    +0.000 C 
ATOM     23  C   UNL     1      -0.361  14.218  22.286  0.00  0.00    +0.000 C 
BRANCH  21  24
ATOM     24  N   UNL     1      -2.646  14.541  21.355  0.00  0.00    +0.000 NA
ATOM     25  H   UNL     1      -2.911  14.573  20.342  0.00  0.00    +0.000 HD
BRANCH  24  26
ATOM     26  C   UNL     1      -3.843  14.238  22.171  0.00  0.00    +0.000 C 
BRANCH  26  27
ATOM     27  C   UNL     1      -4.981  13.663  21.386  0.00  0.00    +0.000 C 
ATOM     28  O   UNL     1      -4.821  13.399  20.202  0.00  0.00    +0.000 OA
ATOM     29  N   UNL     1      -6.113  13.255  22.026  0.00  0.00    +0.000 N 
ATOM     30  C   UNL     1      -7.137  12.509  21.332  0.00  0.00    +0.000 C 
ATOM     31  C   UNL     1      -7.915  11.837  22.461  0.00  0.00    +0.000 C 
ATOM     32  C   UNL     1      -7.856  12.888  23.543  0.00  0.00    +0.000 C 
ATOM     33  C   UNL     1      -6.397  13.397  23.443  0.00  0.00    +0.000 C 
BRANCH  33  34
ATOM     34  C   UNL     1      -5.478  12.644  24.318  0.00  0.00    +0.000 C 
ATOM     35  N   UNL     1      -4.749  12.016  24.950  0.00  0.00    +0.000 NA
ENDBRANCH  33  34
ENDBRANCH  26  27
ENDBRANCH  24  26
ENDBRANCH  21  24
ENDBRANCH  20  21
ENDBRANCH   3  20
TORSDOF 8
ENDMDL
MODEL 8
REMARK VINA RESULT:      -7.1      2.472      3.952
REMARK  Name = 
REMARK  15 active torsions:
REMARK  status: ('A' for Active; 'I' for Inactive)
REMARK    1  A    between atoms: C_1  and  C_2
REMARK    2  A    between atoms: C_6  and  C_7
REMARK    3  A    between atoms: C_7  and  C_8
REMARK    4  A    between atoms: C_7  and  C_9
REMARK    5  A    between atoms: C_7  and  C_10
REMARK    6  A    between atoms: C_13  and  C_14
REMARK    7  A    between atoms: C_15  and  C_16
REMARK    8  A    between atoms: N_18  and  C_19
REMARK    9  A    between atoms: C_19  and  C_20
REMARK   10  A    between atoms: C_20  and  C_21
REMARK   11  A    between atoms: C_20  and  C_22
REMARK   12  A    between atoms: C_20  and  N_23
REMARK   13  A    between atoms: N_23  and  C_24
REMARK   14  A    between atoms: C_24  and  C_25
REMARK   15  A    between atoms: C_31  and  C_32
REMARK                            x       y       z     vdW  Elec       q    Type
REMARK                         _______ _______ _______ _____ _____    ______ ____
ROOT
ATOM      1  C   UNL     1       1.104   9.989  18.519  0.00  0.00    +0.000 C 
ATOM      2  O   UNL     1       1.824  10.408  17.627  0.00  0.00    +0.000 OA
ATOM      3  N   UNL     1       1.383   8.714  18.991  0.00  0.00    +0.000 N 
ATOM      4  H   UNL     1       0.871   8.275  19.704  0.00  0.00    +0.000 HD
ENDROOT
BRANCH   1  15
ATOM      5  C   UNL     1       1.307  12.155  20.653  0.00  0.00    +0.000 C 
ATOM      6  C   UNL     1       0.056  11.888  20.058  0.00  0.00    +0.000 A 
ATOM      7  N   UNL     1      -0.968  12.597  20.584  0.00  0.00    +0.000 NA
ATOM      8  C   UNL     1      -2.187  12.436  20.101  0.00  0.00    +0.000 A 
ATOM      9  C   UNL     1      -3.319  13.067  20.523  0.00  0.00    +0.000 A 
ATOM     10  C   UNL     1      -4.269  12.629  19.624  0.00  0.00    +0.000 A 
ATOM     11  N   UNL     1      -3.709  11.733  18.751  0.00  0.00    +0.000 NA
ATOM     12  N   UNL     1      -2.418  11.625  19.072  0.00  0.00    +0.000 N 
ATOM     13  C   UNL     1      -1.431  10.845  18.502  0.00  0.00    +0.000 A 
ATOM     14  C   UNL     1      -1.718   9.959  17.346  0.00  0.00    +0.000 C 
ATOM     15  C   UNL     1      -0.092  10.903  19.031  0.00  0.00    +0.000 A 
BRANCH  10  16
ATOM     16  C   UNL     1      -5.702  13.119  19.596  0.00  0.00    +0.000 C 
ATOM     17  C   UNL     1      -6.533  12.389  20.666  0.00  0.00    +0.000 C 
ATOM     18  C   UNL     1      -5.732  14.638  19.877  0.00  0.00    +0.000 C 
ATOM     19  C   UNL     1      -6.297  12.855  18.210  0.00  0.00    +0.000 C 
ENDBRANCH  10  16
ENDBRANCH   1  15
BRANCH   3  20
ATOM     20  C   UNL     1       2.424   7.788  18.573  0.00  0.00    +0.000 C 
BRANCH  20  21
ATOM     21  C   UNL     1       2.453   6.477  19.488  0.00  0.00    +0.000 C 
ATOM     22  C   UNL     1       1.459   6.639  20.690  0.00  0.00    +0.000 C 
ATOM     23  C   UNL     1       2.035   5.225  18.656  0.00  0.00    +0.000 C 
BRANCH  21  24
ATOM     24  N   UNL     1       3.841   6.298  19.989  0.00  0.00    +0.000 NA
ATOM     25  H   UNL     1       3.819   6.391  21.033  0.00  0.00    +0.000 HD
BRANCH  24  26
ATOM     26  C   UNL     1       4.461   5.006  19.620  0.00  0.00    +0.000 C 
BRANCH  26  27
ATOM     27  C   UNL     1       5.808   5.142  18.981  0.00  0.00    +0.000 C 
ATOM     28  O   UNL     1       6.795   5.298  19.686  0.00  0.00    +0.000 OA
ATOM     29  N   UNL     1       5.958   4.896  17.647  0.00  0.00    +0.000 N 
ATOM     30  C   UNL     1       7.268   4.814  17.045  0.00  0.00    +0.000 C 
ATOM     31  C   UNL     1       7.015   4.048  15.749  0.00  0.00    +0.000 C 
ATOM     32  C   UNL     1       5.648   4.553  15.354  0.00  0.00    +0.000 C 
ATOM     33  C   UNL     1       4.896   4.586  16.707  0.00  0.00    +0.000 C 
BRANCH  33  34
ATOM     34  C   UNL     1       4.193   3.320  16.991  0.00  0.00    +0.000 C 
ATOM     35  N   UNL     1       3.684   2.326  17.264  0.00  0.00    +0.000 NA
ENDBRANCH  33  34
ENDBRANCH  26  27
ENDBRANCH  24  26
ENDBRANCH  21  24
ENDBRANCH  20  21
ENDBRANCH   3  20
TORSDOF 8
ENDMDL
MODEL 9
REMARK VINA RESULT:      -7.1      3.859     11.019
REMARK  Name = 
REMARK  15 active torsions:
REMARK  status: ('A' for Active; 'I' for Inactive)
REMARK    1  A    between atoms: C_1  and  C_2
REMARK    2  A    between atoms: C_6  and  C_7
REMARK    3  A    between atoms: C_7  and  C_8
REMARK    4  A    between atoms: C_7  and  C_9
REMARK    5  A    between atoms: C_7  and  C_10
REMARK    6  A    between atoms: C_13  and  C_14
REMARK    7  A    between atoms: C_15  and  C_16
REMARK    8  A    between atoms: N_18  and  C_19
REMARK    9  A    between atoms: C_19  and  C_20
REMARK   10  A    between atoms: C_20  and  C_21
REMARK   11  A    between atoms: C_20  and  C_22
REMARK   12  A    between atoms: C_20  and  N_23
REMARK   13  A    between atoms: N_23  and  C_24
REMARK   14  A    between atoms: C_24  and  C_25
REMARK   15  A    between atoms: C_31  and  C_32
REMARK                            x       y       z     vdW  Elec       q    Type
REMARK                         _______ _______ _______ _____ _____    ______ ____
ROOT
ATOM      1  C   UNL     1       0.629  11.230  20.142  0.00  0.00    +0.000 C 
ATOM      2  O   UNL     1       1.483  12.045  20.453  0.00  0.00    +0.000 OA
ATOM      3  N   UNL     1      -0.629  11.738  19.846  0.00  0.00    +0.000 N 
ATOM      4  H   UNL     1      -1.392  11.178  19.585  0.00  0.00    +0.000 HD
ENDROOT
BRANCH   1  15
ATOM      5  C   UNL     1       0.048   9.252  22.385  0.00  0.00    +0.000 C 
ATOM      6  C   UNL     1       0.734   8.808  21.235  0.00  0.00    +0.000 A 
ATOM      7  N   UNL     1       1.144   7.521  21.298  0.00  0.00    +0.000 NA
ATOM      8  C   UNL     1       1.792   6.994  20.274  0.00  0.00    +0.000 A 
ATOM      9  C   UNL     1       2.273   5.722  20.185  0.00  0.00    +0.000 A 
ATOM     10  C   UNL     1       2.748   5.662  18.891  0.00  0.00    +0.000 A 
ATOM     11  N   UNL     1       2.592   6.879  18.280  0.00  0.00    +0.000 NA
ATOM     12  N   UNL     1       2.003   7.690  19.161  0.00  0.00    +0.000 N 
ATOM     13  C   UNL     1       1.642   9.017  19.032  0.00  0.00    +0.000 A 
ATOM     14  C   UNL     1       1.882   9.763  17.771  0.00  0.00    +0.000 C 
ATOM     15  C   UNL     1       1.007   9.687  20.139  0.00  0.00    +0.000 A 
BRANCH  10  16
ATOM     16  C   UNL     1       3.308   4.410  18.249  0.00  0.00    +0.000 C 
ATOM     17  C   UNL     1       4.081   3.581  19.289  0.00  0.00    +0.000 C 
ATOM     18  C   UNL     1       2.150   3.561  17.680  0.00  0.00    +0.000 C 
ATOM     19  C   UNL     1       4.246   4.808  17.105  0.00  0.00    +0.000 C 
ENDBRANCH  10  16
ENDBRANCH   1  15
BRANCH   3  20
ATOM     20  C   UNL     1      -1.086  13.119  19.851  0.00  0.00    +0.000 C 
BRANCH  20  21
ATOM     21  C   UNL     1      -1.978  13.442  21.138  0.00  0.00    +0.000 C 
ATOM     22  C   UNL     1      -1.212  13.024  22.441  0.00  0.00    +0.000 C 
ATOM     23  C   UNL     1      -2.296  14.968  21.209  0.00  0.00    +0.000 C 
BRANCH  21  24
ATOM     24  N   UNL     1      -3.247  12.676  21.020  0.00  0.00    +0.000 NA
ATOM     25  H   UNL     1      -3.325  12.054  21.860  0.00  0.00    +0.000 HD
BRANCH  24  26
ATOM     26  C   UNL     1      -4.459  13.519  20.914  0.00  0.00    +0.000 C 
BRANCH  26  27
ATOM     27  C   UNL     1      -5.705  12.851  21.407  0.00  0.00    +0.000 C 
ATOM     28  O   UNL     1      -5.943  11.699  21.070  0.00  0.00    +0.000 OA
ATOM     29  N   UNL     1      -6.461  13.447  22.373  0.00  0.00    +0.000 N 
ATOM     30  C   UNL     1      -7.544  12.740  23.016  0.00  0.00    +0.000 C 
ATOM     31  C   UNL     1      -7.759  13.521  24.310  0.00  0.00    +0.000 C 
ATOM     32  C   UNL     1      -7.472  14.936  23.868  0.00  0.00    +0.000 C 
ATOM     33  C   UNL     1      -6.236  14.759  22.951  0.00  0.00    +0.000 C 
BRANCH  33  34
ATOM     34  C   UNL     1      -4.965  14.881  23.691  0.00  0.00    +0.000 C 
ATOM     35  N   UNL     1      -4.003  14.944  24.319  0.00  0.00    +0.000 NA
ENDBRANCH  33  34
ENDBRANCH  26  27
ENDBRANCH  24  26
ENDBRANCH  21  24
ENDBRANCH  20  21
ENDBRANCH   3  20
TORSDOF 8
ENDMDL
