MODEL 1
REMARK VINA RESULT:      -8.6      0.000      0.000
REMARK  Name = 
REMARK  8 active torsions:
REMARK  status: ('A' for Active; 'I' for Inactive)
REMARK    1  A    between atoms: C_1  and  O_2
REMARK    2  A    between atoms: O_2  and  C_3
REMARK    3  A    between atoms: C_6  and  C_7
REMARK    4  A    between atoms: N_12  and  C_13
REMARK    5  A    between atoms: C_13  and  C_14
REMARK    6  A    between atoms: N_16  and  C_17
REMARK    7  A    between atoms: C_20  and  C_21
REMARK    8  A    between atoms: C_22  and  C_23
REMARK                            x       y       z     vdW  Elec       q    Type
REMARK                         _______ _______ _______ _____ _____    ______ ____
ROOT
ATOM      1  C   UNL     1       2.984   6.840  18.329  0.00  0.00    +0.000 A 
ATOM      2  C   UNL     1       2.425   8.079  17.928  0.00  0.00    +0.000 A 
ATOM      3  C   UNL     1       1.805   8.567  19.050  0.00  0.00    +0.000 A 
ATOM      4  C   UNL     1       1.130   9.782  19.349  0.00  0.00    +0.000 A 
ATOM      5  N   UNL     1       0.919  10.789  18.555  0.00  0.00    +0.000 NA
ATOM      6  N   UNL     1       0.231  11.684  19.360  0.00  0.00    +0.000 N 
ATOM      7  C   UNL     1       0.060  11.165  20.653  0.00  0.00    +0.000 A 
ATOM      8  O   UNL     1      -0.506  11.703  21.597  0.00  0.00    +0.000 OA
ATOM      9  N   UNL     1       0.656   9.927  20.618  0.00  0.00    +0.000 N 
ATOM     10  C   UNL     1       0.789   8.985  21.609  0.00  0.00    +0.000 A 
ATOM     11  C   UNL     1       1.431   7.837  21.326  0.00  0.00    +0.000 A 
ATOM     12  N   UNL     1       1.952   7.618  20.045  0.00  0.00    +0.000 N 
ATOM     13  N   UNL     1       2.673   6.559  19.606  0.00  0.00    +0.000 NA
ENDROOT
BRANCH   1  17
ATOM     14  C   UNL     1       5.391   4.298  15.865  0.00  0.00    +0.000 A 
ATOM     15  C   UNL     1       5.497   5.685  15.768  0.00  0.00    +0.000 A 
ATOM     16  C   UNL     1       4.745   6.516  16.604  0.00  0.00    +0.000 A 
ATOM     17  C   UNL     1       3.853   5.967  17.533  0.00  0.00    +0.000 A 
ATOM     18  C   UNL     1       3.755   4.576  17.632  0.00  0.00    +0.000 A 
ATOM     19  C   UNL     1       4.521   3.741  16.803  0.00  0.00    +0.000 A 
BRANCH  14  21
ATOM     20  C   UNL     1       6.252   4.161  13.670  0.00  0.00    +0.000 C 
ATOM     21  O   UNL     1       6.146   3.593  14.968  0.00  0.00    +0.000 OA
ENDBRANCH  14  21
ENDBRANCH   1  17
BRANCH   6  22
ATOM     22  C   UNL     1      -0.333  12.918  18.864  0.00  0.00    +0.000 C 
BRANCH  22  23
ATOM     23  C   UNL     1      -1.648  13.320  19.521  0.00  0.00    +0.000 C 
ATOM     24  O   UNL     1      -1.726  14.379  20.144  0.00  0.00    +0.000 OA
ATOM     25  N   UNL     1      -2.655  12.370  19.462  0.00  0.00    +0.000 N 
ATOM     26  H   UNL     1      -2.340  11.415  19.325  0.00  0.00    +0.000 HD
BRANCH  25  27
ATOM     27  C   UNL     1      -3.924  12.571  20.035  0.00  0.00    +0.000 A 
ATOM     28  C   UNL     1      -4.098  12.706  21.412  0.00  0.00    +0.000 A 
ATOM     29  C   UNL     1      -5.376  12.893  21.942  0.00  0.00    +0.000 A 
ATOM     30  C   UNL     1      -6.506  12.909  21.110  0.00  0.00    +0.000 A 
ATOM     31  C   UNL     1      -7.864  13.095  21.731  0.00  0.00    +0.000 C 
ATOM     32  C   UNL     1      -6.335  12.747  19.721  0.00  0.00    +0.000 A 
ATOM     33  C   UNL     1      -7.485  12.655  18.756  0.00  0.00    +0.000 C 
ATOM     34  C   UNL     1      -5.034  12.628  19.196  0.00  0.00    +0.000 A 
ENDBRANCH  25  27
ENDBRANCH  22  23
ENDBRANCH   6  22
TORSDOF 5
ENDMDL
MODEL 2
REMARK VINA RESULT:      -8.6      3.193      5.668
REMARK  Name = 
REMARK  8 active torsions:
REMARK  status: ('A' for Active; 'I' for Inactive)
REMARK    1  A    between atoms: C_1  and  O_2
REMARK    2  A    between atoms: O_2  and  C_3
REMARK    3  A    between atoms: C_6  and  C_7
REMARK    4  A    between atoms: N_12  and  C_13
REMARK    5  A    between atoms: C_13  and  C_14
REMARK    6  A    between atoms: N_16  and  C_17
REMARK    7  A    between atoms: C_20  and  C_21
REMARK    8  A    between atoms: C_22  and  C_23
REMARK                            x       y       z     vdW  Elec       q    Type
REMARK                         _______ _______ _______ _____ _____    ______ ____
ROOT
ATOM      1  C   UNL     1       2.789   7.121  18.394  0.00  0.00    +0.000 A 
ATOM      2  C   UNL     1       2.310   8.380  17.952  0.00  0.00    +0.000 A 
ATOM      3  C   UNL     1       1.660   8.911  19.036  0.00  0.00    +0.000 A 
ATOM      4  C   UNL     1       1.030  10.160  19.288  0.00  0.00    +0.000 A 
ATOM      5  N   UNL     1       0.906  11.165  18.473  0.00  0.00    +0.000 NA
ATOM      6  N   UNL     1       0.223  12.103  19.233  0.00  0.00    +0.000 N 
ATOM      7  C   UNL     1      -0.035  11.610  20.523  0.00  0.00    +0.000 A 
ATOM      8  O   UNL     1      -0.620  12.187  21.432  0.00  0.00    +0.000 OA
ATOM      9  N   UNL     1       0.503  10.345  20.531  0.00  0.00    +0.000 N 
ATOM     10  C   UNL     1       0.542   9.411  21.538  0.00  0.00    +0.000 A 
ATOM     11  C   UNL     1       1.142   8.230  21.300  0.00  0.00    +0.000 A 
ATOM     12  N   UNL     1       1.713   7.970  20.048  0.00  0.00    +0.000 N 
ATOM     13  N   UNL     1       2.403   6.872  19.657  0.00  0.00    +0.000 NA
ENDROOT
BRANCH   1  17
ATOM     14  C   UNL     1       5.199   4.450  16.074  0.00  0.00    +0.000 A 
ATOM     15  C   UNL     1       5.450   5.822  16.061  0.00  0.00    +0.000 A 
ATOM     16  C   UNL     1       4.693   6.690  16.854  0.00  0.00    +0.000 A 
ATOM     17  C   UNL     1       3.653   6.197  17.651  0.00  0.00    +0.000 A 
ATOM     18  C   UNL     1       3.410   4.820  17.666  0.00  0.00    +0.000 A 
ATOM     19  C   UNL     1       4.179   3.947  16.881  0.00  0.00    +0.000 A 
BRANCH  14  21
ATOM     20  C   UNL     1       6.576   4.423  14.154  0.00  0.00    +0.000 C 
ATOM     21  O   UNL     1       5.977   3.709  15.228  0.00  0.00    +0.000 OA
ENDBRANCH  14  21
ENDBRANCH   1  17
BRANCH   6  22
ATOM     22  C   UNL     1      -0.257  13.355  18.697  0.00  0.00    +0.000 C 
BRANCH  22  23
ATOM     23  C   UNL     1       0.683  14.536  18.911  0.00  0.00    +0.000 C 
ATOM     24  O   UNL     1       0.296  15.681  18.675  0.00  0.00    +0.000 OA
ATOM     25  N   UNL     1       1.984  14.203  19.255  0.00  0.00    +0.000 N 
ATOM     26  H   UNL     1       2.275  13.267  18.991  0.00  0.00    +0.000 HD
BRANCH  25  27
ATOM     27  C   UNL     1       2.984  15.170  19.469  0.00  0.00    +0.000 A 
ATOM     28  C   UNL     1       3.784  15.646  18.430  0.00  0.00    +0.000 A 
ATOM     29  C   UNL     1       4.772  16.598  18.687  0.00  0.00    +0.000 A 
ATOM     30  C   UNL     1       5.006  17.061  19.991  0.00  0.00    +0.000 A 
ATOM     31  C   UNL     1       6.096  18.073  20.219  0.00  0.00    +0.000 C 
ATOM     32  C   UNL     1       4.216  16.561  21.045  0.00  0.00    +0.000 A 
ATOM     33  C   UNL     1       4.448  16.921  22.488  0.00  0.00    +0.000 C 
ATOM     34  C   UNL     1       3.179  15.654  20.760  0.00  0.00    +0.000 A 
ENDBRANCH  25  27
ENDBRANCH  22  23
ENDBRANCH   6  22
TORSDOF 5
ENDMDL
MODEL 3
REMARK VINA RESULT:      -8.6      1.587      1.882
REMARK  Name = 
REMARK  8 active torsions:
REMARK  status: ('A' for Active; 'I' for Inactive)
REMARK    1  A    between atoms: C_1  and  O_2
REMARK    2  A    between atoms: O_2  and  C_3
REMARK    3  A    between atoms: C_6  and  C_7
REMARK    4  A    between atoms: N_12  and  C_13
REMARK    5  A    between atoms: C_13  and  C_14
REMARK    6  A    between atoms: N_16  and  C_17
REMARK    7  A    between atoms: C_20  and  C_21
REMARK    8  A    between atoms: C_22  and  C_23
REMARK                            x       y       z     vdW  Elec       q    Type
REMARK                         _______ _______ _______ _____ _____    ______ ____
ROOT
ATOM      1  C   UNL     1       3.239   6.653  18.093  0.00  0.00    +0.000 A 
ATOM      2  C   UNL     1       2.535   7.834  17.745  0.00  0.00    +0.000 A 
ATOM      3  C   UNL     1       1.925   8.236  18.905  0.00  0.00    +0.000 A 
ATOM      4  C   UNL     1       1.143   9.369  19.261  0.00  0.00    +0.000 A 
ATOM      5  N   UNL     1       0.789  10.361  18.499  0.00  0.00    +0.000 NA
ATOM      6  N   UNL     1       0.053  11.166  19.354  0.00  0.00    +0.000 N 
ATOM      7  C   UNL     1       0.000  10.611  20.643  0.00  0.00    +0.000 A 
ATOM      8  O   UNL     1      -0.571  11.072  21.624  0.00  0.00    +0.000 OA
ATOM      9  N   UNL     1       0.720   9.443  20.554  0.00  0.00    +0.000 N 
ATOM     10  C   UNL     1       0.998   8.504  21.518  0.00  0.00    +0.000 A 
ATOM     11  C   UNL     1       1.741   7.434  21.180  0.00  0.00    +0.000 A 
ATOM     12  N   UNL     1       2.218   7.291  19.872  0.00  0.00    +0.000 N 
ATOM     13  N   UNL     1       3.022   6.321  19.377  0.00  0.00    +0.000 NA
ENDROOT
BRANCH   1  17
ATOM     14  C   UNL     1       5.768   4.407  15.469  0.00  0.00    +0.000 A 
ATOM     15  C   UNL     1       5.668   5.792  15.342  0.00  0.00    +0.000 A 
ATOM     16  C   UNL     1       4.879   6.531  16.227  0.00  0.00    +0.000 A 
ATOM     17  C   UNL     1       4.154   5.889  17.238  0.00  0.00    +0.000 A 
ATOM     18  C   UNL     1       4.263   4.501  17.367  0.00  0.00    +0.000 A 
ATOM     19  C   UNL     1       5.067   3.759  16.487  0.00  0.00    +0.000 A 
BRANCH  14  21
ATOM     20  C   UNL     1       6.009   3.787  13.202  0.00  0.00    +0.000 C 
ATOM     21  O   UNL     1       6.538   3.789  14.522  0.00  0.00    +0.000 OA
ENDBRANCH  14  21
ENDBRANCH   1  17
BRANCH   6  22
ATOM     22  C   UNL     1      -0.660  12.342  18.913  0.00  0.00    +0.000 C 
BRANCH  22  23
ATOM     23  C   UNL     1      -2.006  12.559  19.595  0.00  0.00    +0.000 C 
ATOM     24  O   UNL     1      -3.023  12.050  19.123  0.00  0.00    +0.000 OA
ATOM     25  N   UNL     1      -1.993  13.441  20.663  0.00  0.00    +0.000 N 
ATOM     26  H   UNL     1      -1.224  14.103  20.668  0.00  0.00    +0.000 HD
BRANCH  25  27
ATOM     27  C   UNL     1      -3.152  13.770  21.391  0.00  0.00    +0.000 A 
ATOM     28  C   UNL     1      -3.955  14.857  21.047  0.00  0.00    +0.000 A 
ATOM     29  C   UNL     1      -5.091  15.156  21.801  0.00  0.00    +0.000 A 
ATOM     30  C   UNL     1      -5.423  14.399  22.935  0.00  0.00    +0.000 A 
ATOM     31  C   UNL     1      -6.647  14.772  23.726  0.00  0.00    +0.000 C 
ATOM     32  C   UNL     1      -4.599  13.315  23.298  0.00  0.00    +0.000 A 
ATOM     33  C   UNL     1      -4.813  12.502  24.546  0.00  0.00    +0.000 C 
ATOM     34  C   UNL     1      -3.496  12.985  22.489  0.00  0.00    +0.000 A 
ENDBRANCH  25  27
ENDBRANCH  22  23
ENDBRANCH   6  22
TORSDOF 5
ENDMDL
MODEL 4
REMARK VINA RESULT:      -8.5      3.353      6.004
REMARK  Name = 
REMARK  8 active torsions:
REMARK  status: ('A' for Active; 'I' for Inactive)
REMARK    1  A    between atoms: C_1  and  O_2
REMARK    2  A    between atoms: O_2  and  C_3
REMARK    3  A    between atoms: C_6  and  C_7
REMARK    4  A    between atoms: N_12  and  C_13
REMARK    5  A    between atoms: C_13  and  C_14
REMARK    6  A    between atoms: N_16  and  C_17
REMARK    7  A    between atoms: C_20  and  C_21
REMARK    8  A    between atoms: C_22  and  C_23
REMARK                            x       y       z     vdW  Elec       q    Type
REMARK                         _______ _______ _______ _____ _____    ______ ____
ROOT
ATOM      1  C   UNL     1       2.637   7.239  18.520  0.00  0.00    +0.000 A 
ATOM      2  C   UNL     1       2.216   8.554  18.198  0.00  0.00    +0.000 A 
ATOM      3  C   UNL     1       1.611   9.020  19.337  0.00  0.00    +0.000 A 
ATOM      4  C   UNL     1       1.049  10.272  19.709  0.00  0.00    +0.000 A 
ATOM      5  N   UNL     1       0.963  11.349  18.986  0.00  0.00    +0.000 NA
ATOM      6  N   UNL     1       0.341  12.249  19.838  0.00  0.00    +0.000 N 
ATOM      7  C   UNL     1       0.077  11.659  21.085  0.00  0.00    +0.000 A 
ATOM      8  O   UNL     1      -0.464  12.182  22.052  0.00  0.00    +0.000 OA
ATOM      9  N   UNL     1       0.550  10.373  20.973  0.00  0.00    +0.000 N 
ATOM     10  C   UNL     1       0.557   9.354  21.894  0.00  0.00    +0.000 A 
ATOM     11  C   UNL     1       1.093   8.170  21.542  0.00  0.00    +0.000 A 
ATOM     12  N   UNL     1       1.631   7.992  20.262  0.00  0.00    +0.000 N 
ATOM     13  N   UNL     1       2.259   6.900  19.764  0.00  0.00    +0.000 NA
ENDROOT
BRANCH   1  17
ATOM     14  C   UNL     1       5.100   4.594  16.227  0.00  0.00    +0.000 A 
ATOM     15  C   UNL     1       4.042   4.095  16.988  0.00  0.00    +0.000 A 
ATOM     16  C   UNL     1       3.210   4.963  17.700  0.00  0.00    +0.000 A 
ATOM     17  C   UNL     1       3.442   6.343  17.683  0.00  0.00    +0.000 A 
ATOM     18  C   UNL     1       4.498   6.839  16.912  0.00  0.00    +0.000 A 
ATOM     19  C   UNL     1       5.326   5.970  16.185  0.00  0.00    +0.000 A 
BRANCH  14  21
ATOM     20  C   UNL     1       6.325   3.979  14.302  0.00  0.00    +0.000 C 
ATOM     21  O   UNL     1       5.867   3.646  15.607  0.00  0.00    +0.000 OA
ENDBRANCH  14  21
ENDBRANCH   1  17
BRANCH   6  22
ATOM     22  C   UNL     1      -0.083  13.566  19.422  0.00  0.00    +0.000 C 
BRANCH  22  23
ATOM     23  C   UNL     1       1.055  14.556  19.203  0.00  0.00    +0.000 C 
ATOM     24  O   UNL     1       0.916  15.487  18.408  0.00  0.00    +0.000 OA
ATOM     25  N   UNL     1       2.241  14.249  19.850  0.00  0.00    +0.000 N 
ATOM     26  H   UNL     1       2.358  13.271  20.096  0.00  0.00    +0.000 HD
BRANCH  25  27
ATOM     27  C   UNL     1       3.396  15.045  19.739  0.00  0.00    +0.000 A 
ATOM     28  C   UNL     1       3.527  16.255  20.420  0.00  0.00    +0.000 A 
ATOM     29  C   UNL     1       4.686  17.020  20.274  0.00  0.00    +0.000 A 
ATOM     30  C   UNL     1       5.717  16.609  19.415  0.00  0.00    +0.000 A 
ATOM     31  C   UNL     1       6.938  17.477  19.278  0.00  0.00    +0.000 C 
ATOM     32  C   UNL     1       5.576  15.399  18.707  0.00  0.00    +0.000 A 
ATOM     33  C   UNL     1       6.578  14.918  17.693  0.00  0.00    +0.000 C 
ATOM     34  C   UNL     1       4.432  14.606  18.917  0.00  0.00    +0.000 A 
ENDBRANCH  25  27
ENDBRANCH  22  23
ENDBRANCH   6  22
TORSDOF 5
ENDMDL
MODEL 5
REMARK VINA RESULT:      -8.5      3.169      5.932
REMARK  Name = 
REMARK  8 active torsions:
REMARK  status: ('A' for Active; 'I' for Inactive)
REMARK    1  A    between atoms: C_1  and  O_2
REMARK    2  A    between atoms: O_2  and  C_3
REMARK    3  A    between atoms: C_6  and  C_7
REMARK    4  A    between atoms: N_12  and  C_13
REMARK    5  A    between atoms: C_13  and  C_14
REMARK    6  A    between atoms: N_16  and  C_17
REMARK    7  A    between atoms: C_20  and  C_21
REMARK    8  A    between atoms: C_22  and  C_23
REMARK                            x       y       z     vdW  Elec       q    Type
REMARK                         _______ _______ _______ _____ _____    ______ ____
ROOT
ATOM      1  C   UNL     1       2.818   6.967  18.290  0.00  0.00    +0.000 A 
ATOM      2  C   UNL     1       2.352   8.275  18.007  0.00  0.00    +0.000 A 
ATOM      3  C   UNL     1       1.702   8.674  19.147  0.00  0.00    +0.000 A 
ATOM      4  C   UNL     1       1.082   9.887  19.550  0.00  0.00    +0.000 A 
ATOM      5  N   UNL     1       0.970  10.987  18.866  0.00  0.00    +0.000 NA
ATOM      6  N   UNL     1       0.292  11.829  19.735  0.00  0.00    +0.000 N 
ATOM      7  C   UNL     1       0.023  11.181  20.951  0.00  0.00    +0.000 A 
ATOM      8  O   UNL     1      -0.561  11.646  21.923  0.00  0.00    +0.000 OA
ATOM      9  N   UNL     1       0.550   9.920  20.804  0.00  0.00    +0.000 N 
ATOM     10  C   UNL     1       0.576   8.868  21.687  0.00  0.00    +0.000 A 
ATOM     11  C   UNL     1       1.167   7.721  21.305  0.00  0.00    +0.000 A 
ATOM     12  N   UNL     1       1.742   7.613  20.033  0.00  0.00    +0.000 N 
ATOM     13  N   UNL     1       2.424   6.566  19.511  0.00  0.00    +0.000 NA
ENDROOT
BRANCH   1  17
ATOM     14  C   UNL     1       5.444   4.517  15.961  0.00  0.00    +0.000 A 
ATOM     15  C   UNL     1       4.432   3.940  16.727  0.00  0.00    +0.000 A 
ATOM     16  C   UNL     1       3.545   4.742  17.451  0.00  0.00    +0.000 A 
ATOM     17  C   UNL     1       3.678   6.135  17.441  0.00  0.00    +0.000 A 
ATOM     18  C   UNL     1       4.689   6.710  16.665  0.00  0.00    +0.000 A 
ATOM     19  C   UNL     1       5.571   5.906  15.926  0.00  0.00    +0.000 A 
BRANCH  14  21
ATOM     20  C   UNL     1       6.334   3.744  13.913  0.00  0.00    +0.000 C 
ATOM     21  O   UNL     1       6.273   3.631  15.329  0.00  0.00    +0.000 OA
ENDBRANCH  14  21
ENDBRANCH   1  17
BRANCH   6  22
ATOM     22  C   UNL     1      -0.174  13.142  19.357  0.00  0.00    +0.000 C 
BRANCH  22  23
ATOM     23  C   UNL     1       0.905  14.219  19.351  0.00  0.00    +0.000 C 
ATOM     24  O   UNL     1       0.591  15.406  19.441  0.00  0.00    +0.000 OA
ATOM     25  N   UNL     1       2.194  13.764  19.118  0.00  0.00    +0.000 N 
ATOM     26  H   UNL     1       2.257  12.873  18.637  0.00  0.00    +0.000 HD
BRANCH  25  27
ATOM     27  C   UNL     1       3.304  14.627  19.059  0.00  0.00    +0.000 A 
ATOM     28  C   UNL     1       3.718  15.215  17.865  0.00  0.00    +0.000 A 
ATOM     29  C   UNL     1       4.832  16.057  17.847  0.00  0.00    +0.000 A 
ATOM     30  C   UNL     1       5.575  16.293  19.014  0.00  0.00    +0.000 A 
ATOM     31  C   UNL     1       6.779  17.193  18.940  0.00  0.00    +0.000 C 
ATOM     32  C   UNL     1       5.173  15.679  20.217  0.00  0.00    +0.000 A 
ATOM     33  C   UNL     1       5.953  15.791  21.498  0.00  0.00    +0.000 C 
ATOM     34  C   UNL     1       4.009  14.888  20.232  0.00  0.00    +0.000 A 
ENDBRANCH  25  27
ENDBRANCH  22  23
ENDBRANCH   6  22
TORSDOF 5
ENDMDL
MODEL 6
REMARK VINA RESULT:      -8.5      1.179      1.800
REMARK  Name = 
REMARK  8 active torsions:
REMARK  status: ('A' for Active; 'I' for Inactive)
REMARK    1  A    between atoms: C_1  and  O_2
REMARK    2  A    between atoms: O_2  and  C_3
REMARK    3  A    between atoms: C_6  and  C_7
REMARK    4  A    between atoms: N_12  and  C_13
REMARK    5  A    between atoms: C_13  and  C_14
REMARK    6  A    between atoms: N_16  and  C_17
REMARK    7  A    between atoms: C_20  and  C_21
REMARK    8  A    between atoms: C_22  and  C_23
REMARK                            x       y       z     vdW  Elec       q    Type
REMARK                         _______ _______ _______ _____ _____    ______ ____
ROOT
ATOM      1  C   UNL     1       3.485   6.321  17.762  0.00  0.00    +0.000 A 
ATOM      2  C   UNL     1       3.063   7.674  17.710  0.00  0.00    +0.000 A 
ATOM      3  C   UNL     1       2.334   7.861  18.856  0.00  0.00    +0.000 A 
ATOM      4  C   UNL     1       1.703   8.991  19.445  0.00  0.00    +0.000 A 
ATOM      5  N   UNL     1       1.662  10.206  18.985  0.00  0.00    +0.000 NA
ATOM      6  N   UNL     1       0.933  10.882  19.952  0.00  0.00    +0.000 N 
ATOM      7  C   UNL     1       0.561  10.018  20.995  0.00  0.00    +0.000 A 
ATOM      8  O   UNL     1      -0.088  10.301  21.994  0.00  0.00    +0.000 OA
ATOM      9  N   UNL     1       1.078   8.794  20.640  0.00  0.00    +0.000 N 
ATOM     10  C   UNL     1       1.019   7.589  21.297  0.00  0.00    +0.000 A 
ATOM     11  C   UNL     1       1.619   6.521  20.740  0.00  0.00    +0.000 A 
ATOM     12  N   UNL     1       2.288   6.646  19.517  0.00  0.00    +0.000 N 
ATOM     13  N   UNL     1       2.992   5.702  18.849  0.00  0.00    +0.000 NA
ENDROOT
BRANCH   1  17
ATOM     14  C   UNL     1       6.001   4.360  14.909  0.00  0.00    +0.000 A 
ATOM     15  C   UNL     1       5.970   5.752  14.986  0.00  0.00    +0.000 A 
ATOM     16  C   UNL     1       5.184   6.392  15.948  0.00  0.00    +0.000 A 
ATOM     17  C   UNL     1       4.394   5.646  16.830  0.00  0.00    +0.000 A 
ATOM     18  C   UNL     1       4.434   4.250  16.754  0.00  0.00    +0.000 A 
ATOM     19  C   UNL     1       5.235   3.606  15.798  0.00  0.00    +0.000 A 
BRANCH  14  21
ATOM     20  C   UNL     1       6.075   3.409  12.747  0.00  0.00    +0.000 C 
ATOM     21  O   UNL     1       6.776   3.850  13.903  0.00  0.00    +0.000 OA
ENDBRANCH  14  21
ENDBRANCH   1  17
BRANCH   6  22
ATOM     22  C   UNL     1       0.518  12.258  19.808  0.00  0.00    +0.000 C 
BRANCH  22  23
ATOM     23  C   UNL     1      -0.819  12.444  19.099  0.00  0.00    +0.000 C 
ATOM     24  O   UNL     1      -0.879  13.108  18.064  0.00  0.00    +0.000 OA
ATOM     25  N   UNL     1      -1.920  11.930  19.766  0.00  0.00    +0.000 N 
ATOM     26  H   UNL     1      -1.802  11.812  20.767  0.00  0.00    +0.000 HD
BRANCH  25  27
ATOM     27  C   UNL     1      -3.230  12.034  19.263  0.00  0.00    +0.000 A 
ATOM     28  C   UNL     1      -3.602  11.454  18.051  0.00  0.00    +0.000 A 
ATOM     29  C   UNL     1      -4.910  11.589  17.581  0.00  0.00    +0.000 A 
ATOM     30  C   UNL     1      -5.858  12.339  18.295  0.00  0.00    +0.000 A 
ATOM     31  C   UNL     1      -7.250  12.471  17.739  0.00  0.00    +0.000 C 
ATOM     32  C   UNL     1      -5.476  12.946  19.508  0.00  0.00    +0.000 A 
ATOM     33  C   UNL     1      -6.387  13.846  20.299  0.00  0.00    +0.000 C 
ATOM     34  C   UNL     1      -4.174  12.744  20.001  0.00  0.00    +0.000 A 
ENDBRANCH  25  27
ENDBRANCH  22  23
ENDBRANCH   6  22
TORSDOF 5
ENDMDL
MODEL 7
REMARK VINA RESULT:      -8.4      3.007      5.305
REMARK  Name = 
REMARK  8 active torsions:
REMARK  status: ('A' for Active; 'I' for Inactive)
REMARK    1  A    between atoms: C_1  and  O_2
REMARK    2  A    between atoms: O_2  and  C_3
REMARK    3  A    between atoms: C_6  and  C_7
REMARK    4  A    between atoms: N_12  and  C_13
REMARK    5  A    between atoms: C_13  and  C_14
REMARK    6  A    between atoms: N_16  and  C_17
REMARK    7  A    between atoms: C_20  and  C_21
REMARK    8  A    between atoms: C_22  and  C_23
REMARK                            x       y       z     vdW  Elec       q    Type
REMARK                         _______ _______ _______ _____ _____    ______ ____
ROOT
ATOM      1  C   UNL     1       2.836   7.069  18.350  0.00  0.00    +0.000 A 
ATOM      2  C   UNL     1       2.273   8.295  17.912  0.00  0.00    +0.000 A 
ATOM      3  C   UNL     1       1.629   8.802  19.011  0.00  0.00    +0.000 A 
ATOM      4  C   UNL     1       0.939  10.017  19.271  0.00  0.00    +0.000 A 
ATOM      5  N   UNL     1       0.733  11.004  18.451  0.00  0.00    +0.000 NA
ATOM      6  N   UNL     1       0.023  11.910  19.223  0.00  0.00    +0.000 N 
ATOM      7  C   UNL     1      -0.167  11.418  20.525  0.00  0.00    +0.000 A 
ATOM      8  O   UNL     1      -0.755  11.972  21.446  0.00  0.00    +0.000 OA
ATOM      9  N   UNL     1       0.441  10.185  20.528  0.00  0.00    +0.000 N 
ATOM     10  C   UNL     1       0.564   9.267  21.542  0.00  0.00    +0.000 A 
ATOM     11  C   UNL     1       1.221   8.119  21.296  0.00  0.00    +0.000 A 
ATOM     12  N   UNL     1       1.766   7.876  20.030  0.00  0.00    +0.000 N 
ATOM     13  N   UNL     1       2.504   6.814  19.627  0.00  0.00    +0.000 NA
ENDROOT
BRANCH   1  17
ATOM     14  C   UNL     1       5.310   4.499  15.985  0.00  0.00    +0.000 A 
ATOM     15  C   UNL     1       5.423   5.885  15.878  0.00  0.00    +0.000 A 
ATOM     16  C   UNL     1       4.648   6.725  16.683  0.00  0.00    +0.000 A 
ATOM     17  C   UNL     1       3.727   6.187  17.589  0.00  0.00    +0.000 A 
ATOM     18  C   UNL     1       3.623   4.797  17.699  0.00  0.00    +0.000 A 
ATOM     19  C   UNL     1       4.411   3.953  16.901  0.00  0.00    +0.000 A 
BRANCH  14  21
ATOM     20  C   UNL     1       6.750   4.541  14.112  0.00  0.00    +0.000 C 
ATOM     21  O   UNL     1       6.091   3.783  15.119  0.00  0.00    +0.000 OA
ENDBRANCH  14  21
ENDBRANCH   1  17
BRANCH   6  22
ATOM     22  C   UNL     1      -0.543  13.127  18.690  0.00  0.00    +0.000 C 
BRANCH  22  23
ATOM     23  C   UNL     1       0.245  14.389  19.025  0.00  0.00    +0.000 C 
ATOM     24  O   UNL     1      -0.127  15.480  18.590  0.00  0.00    +0.000 OA
ATOM     25  N   UNL     1       1.425  14.184  19.720  0.00  0.00    +0.000 N 
ATOM     26  H   UNL     1       1.824  13.255  19.630  0.00  0.00    +0.000 HD
BRANCH  25  27
ATOM     27  C   UNL     1       2.282  15.237  20.091  0.00  0.00    +0.000 A 
ATOM     28  C   UNL     1       2.002  16.070  21.173  0.00  0.00    +0.000 A 
ATOM     29  C   UNL     1       2.873  17.111  21.501  0.00  0.00    +0.000 A 
ATOM     30  C   UNL     1       4.019  17.362  20.730  0.00  0.00    +0.000 A 
ATOM     31  C   UNL     1       4.917  18.507  21.113  0.00  0.00    +0.000 C 
ATOM     32  C   UNL     1       4.290  16.537  19.620  0.00  0.00    +0.000 A 
ATOM     33  C   UNL     1       5.436  16.779  18.676  0.00  0.00    +0.000 C 
ATOM     34  C   UNL     1       3.439  15.451  19.344  0.00  0.00    +0.000 A 
ENDBRANCH  25  27
ENDBRANCH  22  23
ENDBRANCH   6  22
TORSDOF 5
ENDMDL
MODEL 8
REMARK VINA RESULT:      -8.4      1.146      1.171
REMARK  Name = 
REMARK  8 active torsions:
REMARK  status: ('A' for Active; 'I' for Inactive)
REMARK    1  A    between atoms: C_1  and  O_2
REMARK    2  A    between atoms: O_2  and  C_3
REMARK    3  A    between atoms: C_6  and  C_7
REMARK    4  A    between atoms: N_12  and  C_13
REMARK    5  A    between atoms: C_13  and  C_14
REMARK    6  A    between atoms: N_16  and  C_17
REMARK    7  A    between atoms: C_20  and  C_21
REMARK    8  A    between atoms: C_22  and  C_23
REMARK                            x       y       z     vdW  Elec       q    Type
REMARK                         _______ _______ _______ _____ _____    ______ ____
ROOT
ATOM      1  C   UNL     1       3.030   6.775  18.273  0.00  0.00    +0.000 A 
ATOM      2  C   UNL     1       2.278   7.901  17.852  0.00  0.00    +0.000 A 
ATOM      3  C   UNL     1       1.703   8.391  18.996  0.00  0.00    +0.000 A 
ATOM      4  C   UNL     1       0.904   9.531  19.283  0.00  0.00    +0.000 A 
ATOM      5  N   UNL     1       0.491  10.440  18.451  0.00  0.00    +0.000 NA
ATOM      6  N   UNL     1      -0.233  11.302  19.261  0.00  0.00    +0.000 N 
ATOM      7  C   UNL     1      -0.217  10.865  20.596  0.00  0.00    +0.000 A 
ATOM      8  O   UNL     1      -0.761  11.398  21.556  0.00  0.00    +0.000 OA
ATOM      9  N   UNL     1       0.532   9.712  20.581  0.00  0.00    +0.000 N 
ATOM     10  C   UNL     1       0.876   8.872  21.612  0.00  0.00    +0.000 A 
ATOM     11  C   UNL     1       1.636   7.795  21.340  0.00  0.00    +0.000 A 
ATOM     12  N   UNL     1       2.063   7.546  20.030  0.00  0.00    +0.000 N 
ATOM     13  N   UNL     1       2.875   6.555  19.590  0.00  0.00    +0.000 NA
ENDROOT
BRANCH   1  17
ATOM     14  C   UNL     1       5.526   4.394  15.739  0.00  0.00    +0.000 A 
ATOM     15  C   UNL     1       5.546   5.786  15.647  0.00  0.00    +0.000 A 
ATOM     16  C   UNL     1       4.766   6.565  16.506  0.00  0.00    +0.000 A 
ATOM     17  C   UNL     1       3.930   5.960  17.452  0.00  0.00    +0.000 A 
ATOM     18  C   UNL     1       3.919   4.565  17.546  0.00  0.00    +0.000 A 
ATOM     19  C   UNL     1       4.714   3.781  16.694  0.00  0.00    +0.000 A 
BRANCH  14  21
ATOM     20  C   UNL     1       6.591   4.462  13.632  0.00  0.00    +0.000 C 
ATOM     21  O   UNL     1       6.300   3.739  14.821  0.00  0.00    +0.000 OA
ENDBRANCH  14  21
ENDBRANCH   1  17
BRANCH   6  22
ATOM     22  C   UNL     1      -0.997  12.414  18.747  0.00  0.00    +0.000 C 
BRANCH  22  23
ATOM     23  C   UNL     1      -2.437  12.474  19.243  0.00  0.00    +0.000 C 
ATOM     24  O   UNL     1      -3.313  11.826  18.669  0.00  0.00    +0.000 OA
ATOM     25  N   UNL     1      -2.675  13.380  20.264  0.00  0.00    +0.000 N 
ATOM     26  H   UNL     1      -2.001  14.136  20.336  0.00  0.00    +0.000 HD
BRANCH  25  27
ATOM     27  C   UNL     1      -3.951  13.577  20.823  0.00  0.00    +0.000 A 
ATOM     28  C   UNL     1      -4.434  12.779  21.860  0.00  0.00    +0.000 A 
ATOM     29  C   UNL     1      -5.710  13.001  22.380  0.00  0.00    +0.000 A 
ATOM     30  C   UNL     1      -6.542  13.998  21.847  0.00  0.00    +0.000 A 
ATOM     31  C   UNL     1      -7.916  14.186  22.429  0.00  0.00    +0.000 C 
ATOM     32  C   UNL     1      -6.066  14.789  20.783  0.00  0.00    +0.000 A 
ATOM     33  C   UNL     1      -6.910  15.817  20.080  0.00  0.00    +0.000 C 
ATOM     34  C   UNL     1      -4.752  14.598  20.316  0.00  0.00    +0.000 A 
ENDBRANCH  25  27
ENDBRANCH  22  23
ENDBRANCH   6  22
TORSDOF 5
ENDMDL
MODEL 9
REMARK VINA RESULT:      -8.3      3.529      6.155
REMARK  Name = 
REMARK  8 active torsions:
REMARK  status: ('A' for Active; 'I' for Inactive)
REMARK    1  A    between atoms: C_1  and  O_2
REMARK    2  A    between atoms: O_2  and  C_3
REMARK    3  A    between atoms: C_6  and  C_7
REMARK    4  A    between atoms: N_12  and  C_13
REMARK    5  A    between atoms: C_13  and  C_14
REMARK    6  A    between atoms: N_16  and  C_17
REMARK    7  A    between atoms: C_20  and  C_21
REMARK    8  A    between atoms: C_22  and  C_23
REMARK                            x       y       z     vdW  Elec       q    Type
REMARK                         _______ _______ _______ _____ _____    ______ ____
ROOT
ATOM      1  C   UNL     1       2.363   7.560  18.849  0.00  0.00    +0.000 A 
ATOM      2  C   UNL     1       2.036   8.870  18.414  0.00  0.00    +0.000 A 
ATOM      3  C   UNL     1       1.393   9.445  19.480  0.00  0.00    +0.000 A 
ATOM      4  C   UNL     1       0.883  10.748  19.731  0.00  0.00    +0.000 A 
ATOM      5  N   UNL     1       0.900  11.775  18.934  0.00  0.00    +0.000 NA
ATOM      6  N   UNL     1       0.281  12.764  19.684  0.00  0.00    +0.000 N 
ATOM      7  C   UNL     1      -0.087  12.277  20.948  0.00  0.00    +0.000 A 
ATOM      8  O   UNL     1      -0.653  12.895  21.843  0.00  0.00    +0.000 OA
ATOM      9  N   UNL     1       0.318  10.963  20.953  0.00  0.00    +0.000 N 
ATOM     10  C   UNL     1       0.215  10.013  21.939  0.00  0.00    +0.000 A 
ATOM     11  C   UNL     1       0.702   8.781  21.701  0.00  0.00    +0.000 A 
ATOM     12  N   UNL     1       1.302   8.485  20.471  0.00  0.00    +0.000 N 
ATOM     13  N   UNL     1       1.895   7.330  20.087  0.00  0.00    +0.000 NA
ENDROOT
BRANCH   1  17
ATOM     14  C   UNL     1       4.603   4.706  16.577  0.00  0.00    +0.000 A 
ATOM     15  C   UNL     1       5.026   6.032  16.661  0.00  0.00    +0.000 A 
ATOM     16  C   UNL     1       4.321   6.954  17.440  0.00  0.00    +0.000 A 
ATOM     17  C   UNL     1       3.163   6.567  18.125  0.00  0.00    +0.000 A 
ATOM     18  C   UNL     1       2.747   5.234  18.044  0.00  0.00    +0.000 A 
ATOM     19  C   UNL     1       3.463   4.304  17.274  0.00  0.00    +0.000 A 
BRANCH  14  21
ATOM     20  C   UNL     1       5.917   4.551  14.620  0.00  0.00    +0.000 C 
ATOM     21  O   UNL     1       5.350   3.908  15.755  0.00  0.00    +0.000 OA
ENDBRANCH  14  21
ENDBRANCH   1  17
BRANCH   6  22
ATOM     22  C   UNL     1      -0.043  14.068  19.155  0.00  0.00    +0.000 C 
BRANCH  22  23
ATOM     23  C   UNL     1       1.155  14.995  18.983  0.00  0.00    +0.000 C 
ATOM     24  O   UNL     1       1.028  16.056  18.370  0.00  0.00    +0.000 OA
ATOM     25  N   UNL     1       2.362  14.497  19.447  0.00  0.00    +0.000 N 
ATOM     26  H   UNL     1       2.413  13.486  19.517  0.00  0.00    +0.000 HD
BRANCH  25  27
ATOM     27  C   UNL     1       3.568  15.214  19.348  0.00  0.00    +0.000 A 
ATOM     28  C   UNL     1       3.714  16.491  19.889  0.00  0.00    +0.000 A 
ATOM     29  C   UNL     1       4.926  17.173  19.760  0.00  0.00    +0.000 A 
ATOM     30  C   UNL     1       5.999  16.608  19.054  0.00  0.00    +0.000 A 
ATOM     31  C   UNL     1       7.278  17.390  18.926  0.00  0.00    +0.000 C 
ATOM     32  C   UNL     1       5.845  15.328  18.485  0.00  0.00    +0.000 A 
ATOM     33  C   UNL     1       6.898  14.676  17.631  0.00  0.00    +0.000 C 
ATOM     34  C   UNL     1       4.641  14.626  18.682  0.00  0.00    +0.000 A 
ENDBRANCH  25  27
ENDBRANCH  22  23
ENDBRANCH   6  22
TORSDOF 5
ENDMDL
