MODEL 1
REMARK VINA RESULT:      -7.3      0.000      0.000
REMARK  Name = 
REMARK  4 active torsions:
REMARK  status: ('A' for Active; 'I' for Inactive)
REMARK    1  A    between atoms: C_1  and  C_2
REMARK    2  A    between atoms: C_2  and  N_3
REMARK    3  A    between atoms: C_12  and  O_13
REMARK    4  A    between atoms: O_13  and  C_14
REMARK                            x       y       z     vdW  Elec       q    Type
REMARK                         _______ _______ _______ _____ _____    ______ ____
ROOT
ATOM      1  N   UNL     1       5.820   4.168  16.514  0.00  0.00    +0.000 N 
ATOM      2  C   UNL     1       4.608   4.496  17.220  0.00  0.00    +0.000 C 
ATOM      3  C   UNL     1       5.032   5.555  18.251  0.00  0.00    +0.000 C 
ATOM      4  C   UNL     1       4.336   5.359  19.613  0.00  0.00    +0.000 C 
ATOM      5  C   UNL     1       2.847   5.696  19.568  0.00  0.00    +0.000 C 
ATOM      6  N   UNL     1       2.696   7.036  19.037  0.00  0.00    +0.000 N 
ATOM      7  C   UNL     1       1.834   7.928  19.630  0.00  0.00    +0.000 A 
ATOM      8  N   UNL     1       1.288   7.616  20.817  0.00  0.00    +0.000 NA
ATOM      9  C   UNL     1       0.512   8.544  21.422  0.00  0.00    +0.000 A 
ATOM     10  C   UNL     1       0.235   9.779  20.900  0.00  0.00    +0.000 A 
ATOM     11  C   UNL     1       0.821  10.002  19.679  0.00  0.00    +0.000 A 
ATOM     12  N   UNL     1       1.605   9.110  19.035  0.00  0.00    +0.000 NA
ATOM     13  C   UNL     1       3.232   7.306  17.716  0.00  0.00    +0.000 C 
ATOM     14  C   UNL     1       4.733   6.980  17.719  0.00  0.00    +0.000 C 
ATOM     15  C   UNL     1       6.553   5.330  18.412  0.00  0.00    +0.000 C 
ATOM     16  C   UNL     1       6.962   4.534  17.200  0.00  0.00    +0.000 C 
ATOM     17  O   UNL     1       8.113   4.265  16.896  0.00  0.00    +0.000 OA
ENDROOT
BRANCH   1  19
ATOM     18  C   UNL     1       6.226   4.513  14.085  0.00  0.00    +0.000 C 
ATOM     19  C   UNL     1       5.831   3.558  15.196  0.00  0.00    +0.000 C 
ENDBRANCH   1  19
BRANCH  10  20
ATOM     20  O   UNL     1      -0.524  10.770  21.432  0.00  0.00    +0.000 OA
ATOM     21  C   UNL     1      -0.805  10.672  22.824  0.00  0.00    +0.000 C 
ENDBRANCH  10  20
TORSDOF 2
ENDMDL
MODEL 2
REMARK VINA RESULT:      -6.4      3.009      7.611
REMARK  Name = 
REMARK  4 active torsions:
REMARK  status: ('A' for Active; 'I' for Inactive)
REMARK    1  A    between atoms: C_1  and  C_2
REMARK    2  A    between atoms: C_2  and  N_3
REMARK    3  A    between atoms: C_12  and  O_13
REMARK    4  A    between atoms: O_13  and  C_14
REMARK                            x       y       z     vdW  Elec       q    Type
REMARK                         _______ _______ _______ _____ _____    ______ ____
ROOT
ATOM      1  N   UNL     1       0.843  12.354  19.331  0.00  0.00    +0.000 N 
ATOM      2  C   UNL     1       1.386  11.174  19.952  0.00  0.00    +0.000 C 
ATOM      3  C   UNL     1       0.454  10.035  19.507  0.00  0.00    +0.000 C 
ATOM      4  C   UNL     1       0.174   9.029  20.642  0.00  0.00    +0.000 C 
ATOM      5  C   UNL     1       1.394   8.177  20.989  0.00  0.00    +0.000 C 
ATOM      6  N   UNL     1       1.875   7.549  19.774  0.00  0.00    +0.000 N 
ATOM      7  C   UNL     1       2.225   6.219  19.769  0.00  0.00    +0.000 A 
ATOM      8  N   UNL     1       1.929   5.463  20.838  0.00  0.00    +0.000 NA
ATOM      9  C   UNL     1       2.205   4.140  20.775  0.00  0.00    +0.000 A 
ATOM     10  C   UNL     1       2.778   3.520  19.697  0.00  0.00    +0.000 A 
ATOM     11  C   UNL     1       3.060   4.374  18.660  0.00  0.00    +0.000 A 
ATOM     12  N   UNL     1       2.802   5.701  18.673  0.00  0.00    +0.000 NA
ATOM     13  C   UNL     1       2.258   8.411  18.672  0.00  0.00    +0.000 C 
ATOM     14  C   UNL     1       1.056   9.286  18.291  0.00  0.00    +0.000 C 
ATOM     15  C   UNL     1      -0.858  10.756  19.123  0.00  0.00    +0.000 C 
ATOM     16  C   UNL     1      -0.470  12.199  18.929  0.00  0.00    +0.000 C 
ATOM     17  O   UNL     1      -1.207  13.069  18.494  0.00  0.00    +0.000 OA
ENDROOT
BRANCH   1  19
ATOM     18  C   UNL     1       2.786  13.375  18.162  0.00  0.00    +0.000 C 
ATOM     19  C   UNL     1       1.617  13.563  19.110  0.00  0.00    +0.000 C 
ENDBRANCH   1  19
BRANCH  10  20
ATOM     20  O   UNL     1       3.085   2.208  19.543  0.00  0.00    +0.000 OA
ATOM     21  C   UNL     1       3.499   1.804  18.242  0.00  0.00    +0.000 C 
ENDBRANCH  10  20
TORSDOF 2
ENDMDL
MODEL 3
REMARK VINA RESULT:      -6.1      2.669      3.569
REMARK  Name = 
REMARK  4 active torsions:
REMARK  status: ('A' for Active; 'I' for Inactive)
REMARK    1  A    between atoms: C_1  and  C_2
REMARK    2  A    between atoms: C_2  and  N_3
REMARK    3  A    between atoms: C_12  and  O_13
REMARK    4  A    between atoms: O_13  and  C_14
REMARK                            x       y       z     vdW  Elec       q    Type
REMARK                         _______ _______ _______ _____ _____    ______ ____
ROOT
ATOM      1  N   UNL     1       3.750   3.477  18.836  0.00  0.00    +0.000 N 
ATOM      2  C   UNL     1       3.701   4.901  19.041  0.00  0.00    +0.000 C 
ATOM      3  C   UNL     1       2.258   5.297  18.689  0.00  0.00    +0.000 C 
ATOM      4  C   UNL     1       2.188   6.627  17.913  0.00  0.00    +0.000 C 
ATOM      5  C   UNL     1       2.529   7.837  18.783  0.00  0.00    +0.000 C 
ATOM      6  N   UNL     1       1.676   7.812  19.955  0.00  0.00    +0.000 N 
ATOM      7  C   UNL     1       1.060   8.961  20.392  0.00  0.00    +0.000 A 
ATOM      8  N   UNL     1       1.092  10.054  19.613  0.00  0.00    +0.000 NA
ATOM      9  C   UNL     1       0.405  11.145  20.023  0.00  0.00    +0.000 A 
ATOM     10  C   UNL     1      -0.312  11.215  21.188  0.00  0.00    +0.000 A 
ATOM     11  C   UNL     1      -0.273  10.058  21.925  0.00  0.00    +0.000 A 
ATOM     12  N   UNL     1       0.395   8.942  21.558  0.00  0.00    +0.000 NA
ATOM     13  C   UNL     1       1.734   6.642  20.811  0.00  0.00    +0.000 C 
ATOM     14  C   UNL     1       1.395   5.402  19.972  0.00  0.00    +0.000 C 
ATOM     15  C   UNL     1       1.767   4.145  17.781  0.00  0.00    +0.000 C 
ATOM     16  C   UNL     1       2.722   3.009  18.040  0.00  0.00    +0.000 C 
ATOM     17  O   UNL     1       2.593   1.876  17.605  0.00  0.00    +0.000 OA
ENDROOT
BRANCH   1  19
ATOM     18  C   UNL     1       4.308   2.001  20.758  0.00  0.00    +0.000 C 
ATOM     19  C   UNL     1       4.751   2.620  19.446  0.00  0.00    +0.000 C 
ENDBRANCH   1  19
BRANCH  10  20
ATOM     20  O   UNL     1      -1.030  12.257  21.676  0.00  0.00    +0.000 OA
ATOM     21  C   UNL     1      -1.467  12.148  23.026  0.00  0.00    +0.000 C 
ENDBRANCH  10  20
TORSDOF 2
ENDMDL
MODEL 4
REMARK VINA RESULT:      -6.0      2.015      3.207
REMARK  Name = 
REMARK  4 active torsions:
REMARK  status: ('A' for Active; 'I' for Inactive)
REMARK    1  A    between atoms: C_1  and  C_2
REMARK    2  A    between atoms: C_2  and  N_3
REMARK    3  A    between atoms: C_12  and  O_13
REMARK    4  A    between atoms: O_13  and  C_14
REMARK                            x       y       z     vdW  Elec       q    Type
REMARK                         _______ _______ _______ _____ _____    ______ ____
ROOT
ATOM      1  N   UNL     1       4.351   4.780  18.424  0.00  0.00    +0.000 N 
ATOM      2  C   UNL     1       3.966   6.161  18.561  0.00  0.00    +0.000 C 
ATOM      3  C   UNL     1       2.429   6.141  18.544  0.00  0.00    +0.000 C 
ATOM      4  C   UNL     1       1.837   7.316  17.741  0.00  0.00    +0.000 C 
ATOM      5  C   UNL     1       2.020   8.662  18.441  0.00  0.00    +0.000 C 
ATOM      6  N   UNL     1       1.481   8.556  19.783  0.00  0.00    +0.000 N 
ATOM      7  C   UNL     1       0.688   9.556  20.295  0.00  0.00    +0.000 A 
ATOM      8  N   UNL     1       0.254  10.528  19.476  0.00  0.00    +0.000 NA
ATOM      9  C   UNL     1      -0.595  11.452  19.983  0.00  0.00    +0.000 A 
ATOM     10  C   UNL     1      -1.033  11.470  21.280  0.00  0.00    +0.000 A 
ATOM     11  C   UNL     1      -0.525  10.450  22.045  0.00  0.00    +0.000 A 
ATOM     12  N   UNL     1       0.323   9.503  21.586  0.00  0.00    +0.000 NA
ATOM     13  C   UNL     1       2.036   7.542  20.659  0.00  0.00    +0.000 C 
ATOM     14  C   UNL     1       1.870   6.170  19.990  0.00  0.00    +0.000 C 
ATOM     15  C   UNL     1       2.082   4.808  17.841  0.00  0.00    +0.000 C 
ATOM     16  C   UNL     1       3.340   3.983  17.921  0.00  0.00    +0.000 C 
ATOM     17  O   UNL     1       3.430   2.813  17.588  0.00  0.00    +0.000 OA
ENDROOT
BRANCH   1  19
ATOM     18  C   UNL     1       6.788   4.750  17.931  0.00  0.00    +0.000 C 
ATOM     19  C   UNL     1       5.654   4.275  18.819  0.00  0.00    +0.000 C 
ENDBRANCH   1  19
BRANCH  10  20
ATOM     20  O   UNL     1      -1.882  12.348  21.872  0.00  0.00    +0.000 OA
ATOM     21  C   UNL     1      -2.379  11.981  23.153  0.00  0.00    +0.000 C 
ENDBRANCH  10  20
TORSDOF 2
ENDMDL
MODEL 5
REMARK VINA RESULT:      -5.9      2.715      8.128
REMARK  Name = 
REMARK  4 active torsions:
REMARK  status: ('A' for Active; 'I' for Inactive)
REMARK    1  A    between atoms: C_1  and  C_2
REMARK    2  A    between atoms: C_2  and  N_3
REMARK    3  A    between atoms: C_12  and  O_13
REMARK    4  A    between atoms: O_13  and  C_14
REMARK                            x       y       z     vdW  Elec       q    Type
REMARK                         _______ _______ _______ _____ _____    ______ ____
ROOT
ATOM      1  N   UNL     1       0.290  12.625  20.262  0.00  0.00    +0.000 N 
ATOM      2  C   UNL     1       1.011  11.424  20.596  0.00  0.00    +0.000 C 
ATOM      3  C   UNL     1       0.159  10.284  20.014  0.00  0.00    +0.000 C 
ATOM      4  C   UNL     1       0.100   9.060  20.949  0.00  0.00    +0.000 C 
ATOM      5  C   UNL     1       1.429   8.310  21.025  0.00  0.00    +0.000 C 
ATOM      6  N   UNL     1       1.845   7.979  19.677  0.00  0.00    +0.000 N 
ATOM      7  C   UNL     1       2.326   6.724  19.384  0.00  0.00    +0.000 A 
ATOM      8  N   UNL     1       2.219   5.754  20.306  0.00  0.00    +0.000 NA
ATOM      9  C   UNL     1       2.619   4.508  19.964  0.00  0.00    +0.000 A 
ATOM     10  C   UNL     1       3.140   4.170  18.743  0.00  0.00    +0.000 A 
ATOM     11  C   UNL     1       3.227   5.228  17.873  0.00  0.00    +0.000 A 
ATOM     12  N   UNL     1       2.838   6.490  18.165  0.00  0.00    +0.000 NA
ATOM     13  C   UNL     1       2.025   9.069  18.735  0.00  0.00    +0.000 C 
ATOM     14  C   UNL     1       0.707   9.849  18.630  0.00  0.00    +0.000 C 
ATOM     15  C   UNL     1      -1.252  10.903  19.884  0.00  0.00    +0.000 C 
ATOM     16  C   UNL     1      -1.034  12.392  19.944  0.00  0.00    +0.000 C 
ATOM     17  O   UNL     1      -1.896  13.233  19.748  0.00  0.00    +0.000 OA
ENDROOT
BRANCH   1  19
ATOM     18  C   UNL     1       0.951  14.638  21.564  0.00  0.00    +0.000 C 
ATOM     19  C   UNL     1       0.911  13.937  20.219  0.00  0.00    +0.000 C 
ENDBRANCH   1  19
BRANCH  10  20
ATOM     20  O   UNL     1       3.562   2.955  18.312  0.00  0.00    +0.000 OA
ATOM     21  C   UNL     1       2.576   2.116  17.722  0.00  0.00    +0.000 C 
ENDBRANCH  10  20
TORSDOF 2
ENDMDL
MODEL 6
REMARK VINA RESULT:      -5.7      2.442      8.019
REMARK  Name = 
REMARK  4 active torsions:
REMARK  status: ('A' for Active; 'I' for Inactive)
REMARK    1  A    between atoms: C_1  and  C_2
REMARK    2  A    between atoms: C_2  and  N_3
REMARK    3  A    between atoms: C_12  and  O_13
REMARK    4  A    between atoms: O_13  and  C_14
REMARK                            x       y       z     vdW  Elec       q    Type
REMARK                         _______ _______ _______ _____ _____    ______ ____
ROOT
ATOM      1  N   UNL     1      -1.059  12.002  19.304  0.00  0.00    +0.000 N 
ATOM      2  C   UNL     1      -0.496  10.831  18.684  0.00  0.00    +0.000 C 
ATOM      3  C   UNL     1       0.947  10.766  19.210  0.00  0.00    +0.000 C 
ATOM      4  C   UNL     1       1.950  10.341  18.119  0.00  0.00    +0.000 C 
ATOM      5  C   UNL     1       1.805   8.872  17.725  0.00  0.00    +0.000 C 
ATOM      6  N   UNL     1       1.891   8.065  18.926  0.00  0.00    +0.000 N 
ATOM      7  C   UNL     1       2.657   6.924  18.946  0.00  0.00    +0.000 A 
ATOM      8  N   UNL     1       3.480   6.673  17.915  0.00  0.00    +0.000 NA
ATOM      9  C   UNL     1       4.288   5.591  17.997  0.00  0.00    +0.000 A 
ATOM     10  C   UNL     1       4.314   4.724  19.056  0.00  0.00    +0.000 A 
ATOM     11  C   UNL     1       3.429   5.050  20.053  0.00  0.00    +0.000 A 
ATOM     12  N   UNL     1       2.604   6.120  20.021  0.00  0.00    +0.000 NA
ATOM     13  C   UNL     1       0.929   8.319  19.984  0.00  0.00    +0.000 C 
ATOM     14  C   UNL     1       1.044   9.789  20.409  0.00  0.00    +0.000 C 
ATOM     15  C   UNL     1       1.248  12.218  19.649  0.00  0.00    +0.000 C 
ATOM     16  C   UNL     1      -0.101  12.875  19.784  0.00  0.00    +0.000 C 
ATOM     17  O   UNL     1      -0.292  13.992  20.236  0.00  0.00    +0.000 OA
ENDROOT
BRANCH   1  19
ATOM     18  C   UNL     1      -3.318  11.549  18.369  0.00  0.00    +0.000 C 
ATOM     19  C   UNL     1      -2.488  12.215  19.450  0.00  0.00    +0.000 C 
ENDBRANCH   1  19
BRANCH  10  20
ATOM     20  O   UNL     1       5.087   3.622  19.226  0.00  0.00    +0.000 OA
ATOM     21  C   UNL     1       4.438   2.468  19.748  0.00  0.00    +0.000 C 
ENDBRANCH  10  20
TORSDOF 2
ENDMDL
MODEL 7
REMARK VINA RESULT:      -5.7      2.516      8.602
REMARK  Name = 
REMARK  4 active torsions:
REMARK  status: ('A' for Active; 'I' for Inactive)
REMARK    1  A    between atoms: C_1  and  C_2
REMARK    2  A    between atoms: C_2  and  N_3
REMARK    3  A    between atoms: C_12  and  O_13
REMARK    4  A    between atoms: O_13  and  C_14
REMARK                            x       y       z     vdW  Elec       q    Type
REMARK                         _______ _______ _______ _____ _____    ______ ____
ROOT
ATOM      1  N   UNL     1      -1.371  12.533  21.081  0.00  0.00    +0.000 N 
ATOM      2  C   UNL     1      -0.956  11.497  20.170  0.00  0.00    +0.000 C 
ATOM      3  C   UNL     1       0.569  11.416  20.341  0.00  0.00    +0.000 C 
ATOM      4  C   UNL     1       1.299  11.209  18.999  0.00  0.00    +0.000 C 
ATOM      5  C   UNL     1       1.080   9.813  18.418  0.00  0.00    +0.000 C 
ATOM      6  N   UNL     1       1.445   8.835  19.424  0.00  0.00    +0.000 N 
ATOM      7  C   UNL     1       2.204   7.739  19.088  0.00  0.00    +0.000 A 
ATOM      8  N   UNL     1       2.771   7.688  17.872  0.00  0.00    +0.000 NA
ATOM      9  C   UNL     1       3.584   6.642  17.596  0.00  0.00    +0.000 A 
ATOM     10  C   UNL     1       3.860   5.624  18.470  0.00  0.00    +0.000 A 
ATOM     11  C   UNL     1       3.223   5.754  19.679  0.00  0.00    +0.000 A 
ATOM     12  N   UNL     1       2.405   6.779  20.005  0.00  0.00    +0.000 NA
ATOM     13  C   UNL     1       0.749   8.880  20.697  0.00  0.00    +0.000 C 
ATOM     14  C   UNL     1       0.946  10.271  21.316  0.00  0.00    +0.000 C 
ATOM     15  C   UNL     1       0.952  12.795  20.928  0.00  0.00    +0.000 C 
ATOM     16  C   UNL     1      -0.336  13.363  21.466  0.00  0.00    +0.000 C 
ATOM     17  O   UNL     1      -0.427  14.387  22.123  0.00  0.00    +0.000 OA
ENDROOT
BRANCH   1  19
ATOM     18  C   UNL     1      -2.910  12.161  22.999  0.00  0.00    +0.000 C 
ATOM     19  C   UNL     1      -2.731  12.657  21.576  0.00  0.00    +0.000 C 
ENDBRANCH   1  19
BRANCH  10  20
ATOM     20  O   UNL     1       4.660   4.545  18.283  0.00  0.00    +0.000 OA
ATOM     21  C   UNL     1       4.550   3.502  19.245  0.00  0.00    +0.000 C 
ENDBRANCH  10  20
TORSDOF 2
ENDMDL
MODEL 8
REMARK VINA RESULT:      -5.6      2.388      8.148
REMARK  Name = 
REMARK  4 active torsions:
REMARK  status: ('A' for Active; 'I' for Inactive)
REMARK    1  A    between atoms: C_1  and  C_2
REMARK    2  A    between atoms: C_2  and  N_3
REMARK    3  A    between atoms: C_12  and  O_13
REMARK    4  A    between atoms: O_13  and  C_14
REMARK                            x       y       z     vdW  Elec       q    Type
REMARK                         _______ _______ _______ _____ _____    ______ ____
ROOT
ATOM      1  N   UNL     1      -0.191  12.604  20.200  0.00  0.00    +0.000 N 
ATOM      2  C   UNL     1       0.665  11.483  20.491  0.00  0.00    +0.000 C 
ATOM      3  C   UNL     1      -0.027  10.282  19.825  0.00  0.00    +0.000 C 
ATOM      4  C   UNL     1       0.045   9.009  20.693  0.00  0.00    +0.000 C 
ATOM      5  C   UNL     1       1.455   8.424  20.767  0.00  0.00    +0.000 C 
ATOM      6  N   UNL     1       1.937   8.222  19.415  0.00  0.00    +0.000 N 
ATOM      7  C   UNL     1       2.576   7.054  19.070  0.00  0.00    +0.000 A 
ATOM      8  N   UNL     1       2.569   6.028  19.936  0.00  0.00    +0.000 NA
ATOM      9  C   UNL     1       3.128   4.861  19.541  0.00  0.00    +0.000 A 
ATOM     10  C   UNL     1       3.713   4.658  18.319  0.00  0.00    +0.000 A 
ATOM     11  C   UNL     1       3.687   5.766  17.509  0.00  0.00    +0.000 A 
ATOM     12  N   UNL     1       3.140   6.952  17.856  0.00  0.00    +0.000 NA
ATOM     13  C   UNL     1       2.002   9.376  18.538  0.00  0.00    +0.000 C 
ATOM     14  C   UNL     1       0.600   9.995  18.437  0.00  0.00    +0.000 C 
ATOM     15  C   UNL     1      -1.500  10.730  19.688  0.00  0.00    +0.000 C 
ATOM     16  C   UNL     1      -1.469  12.229  19.833  0.00  0.00    +0.000 C 
ATOM     17  O   UNL     1      -2.424  12.967  19.658  0.00  0.00    +0.000 OA
ENDROOT
BRANCH   1  19
ATOM     18  C   UNL     1       0.852  14.474  18.935  0.00  0.00    +0.000 C 
ATOM     19  C   UNL     1       0.263  13.982  20.244  0.00  0.00    +0.000 C 
ENDBRANCH   1  19
BRANCH  10  20
ATOM     20  O   UNL     1       4.291   3.530  17.837  0.00  0.00    +0.000 OA
ATOM     21  C   UNL     1       5.016   3.661  16.620  0.00  0.00    +0.000 C 
ENDBRANCH  10  20
TORSDOF 2
ENDMDL
MODEL 9
REMARK VINA RESULT:      -5.5      3.301      9.924
REMARK  Name = 
REMARK  4 active torsions:
REMARK  status: ('A' for Active; 'I' for Inactive)
REMARK    1  A    between atoms: C_1  and  C_2
REMARK    2  A    between atoms: C_2  and  N_3
REMARK    3  A    between atoms: C_12  and  O_13
REMARK    4  A    between atoms: O_13  and  C_14
REMARK                            x       y       z     vdW  Elec       q    Type
REMARK                         _______ _______ _______ _____ _____    ______ ____
ROOT
ATOM      1  N   UNL     1      -3.080  12.933  23.472  0.00  0.00    +0.000 N 
ATOM      2  C   UNL     1      -2.725  12.219  22.273  0.00  0.00    +0.000 C 
ATOM      3  C   UNL     1      -1.213  12.446  22.117  0.00  0.00    +0.000 C 
ATOM      4  C   UNL     1      -0.803  12.678  20.649  0.00  0.00    +0.000 C 
ATOM      5  C   UNL     1      -0.913  11.413  19.799  0.00  0.00    +0.000 C 
ATOM      6  N   UNL     1      -0.154  10.361  20.445  0.00  0.00    +0.000 N 
ATOM      7  C   UNL     1       0.678   9.550  19.709  0.00  0.00    +0.000 A 
ATOM      8  N   UNL     1       0.936   9.870  18.430  0.00  0.00    +0.000 NA
ATOM      9  C   UNL     1       1.825   9.108  17.753  0.00  0.00    +0.000 A 
ATOM     10  C   UNL     1       2.474   8.023  18.280  0.00  0.00    +0.000 A 
ATOM     11  C   UNL     1       2.135   7.763  19.585  0.00  0.00    +0.000 A 
ATOM     12  N   UNL     1       1.256   8.495  20.305  0.00  0.00    +0.000 NA
ATOM     13  C   UNL     1      -0.520   9.994  21.800  0.00  0.00    +0.000 C 
ATOM     14  C   UNL     1      -0.421  11.242  22.689  0.00  0.00    +0.000 C 
ATOM     15  C   UNL     1      -0.943  13.729  22.937  0.00  0.00    +0.000 C 
ATOM     16  C   UNL     1      -2.140  13.878  23.838  0.00  0.00    +0.000 C 
ATOM     17  O   UNL     1      -2.245  14.704  24.730  0.00  0.00    +0.000 OA
ENDROOT
BRANCH   1  19
ATOM     18  C   UNL     1      -5.561  13.084  23.551  0.00  0.00    +0.000 C 
ATOM     19  C   UNL     1      -4.280  12.651  24.239  0.00  0.00    +0.000 C 
ENDBRANCH   1  19
BRANCH  10  20
ATOM     20  O   UNL     1       3.378   7.208  17.683  0.00  0.00    +0.000 OA
ATOM     21  C   UNL     1       3.442   5.871  18.167  0.00  0.00    +0.000 C 
ENDBRANCH  10  20
TORSDOF 2
ENDMDL
