MODEL 1
REMARK VINA RESULT:      -9.3      0.000      0.000
REMARK  Name = 
REMARK  8 active torsions:
REMARK  status: ('A' for Active; 'I' for Inactive)
REMARK    1  A    between atoms: C_1  and  C_2
REMARK    2  A    between atoms: C_2  and  N_3
REMARK    3  A    between atoms: N_3  and  C_4
REMARK    4  A    between atoms: C_10  and  C_11
REMARK    5  A    between atoms: C_10  and  C_12
REMARK    6  A    between atoms: C_15  and  C_16
REMARK    7  A    between atoms: C_15  and  C_17
REMARK    8  A    between atoms: C_21  and  C_22
REMARK                            x       y       z     vdW  Elec       q    Type
REMARK                         _______ _______ _______ _____ _____    ______ ____
ROOT
ATOM      1  N   UNL     1       2.849   6.094  18.825  0.00  0.00    +0.000 N 
ATOM      2  C   UNL     1       3.723   5.767  17.759  0.00  0.00    +0.000 A 
ATOM      3  C   UNL     1       4.006   4.450  17.395  0.00  0.00    +0.000 A 
ATOM      4  C   UNL     1       4.889   4.183  16.342  0.00  0.00    +0.000 A 
ATOM      5  C   UNL     1       5.478   5.223  15.636  0.00  0.00    +0.000 A 
ATOM      6  C   UNL     1       5.142   6.505  16.045  0.00  0.00    +0.000 A 
ATOM      7  N   UNL     1       4.300   6.780  17.068  0.00  0.00    +0.000 NA
ENDROOT
BRANCH   1   8
ATOM      8  C   UNL     1       2.231   7.360  18.969  0.00  0.00    +0.000 A 
ATOM      9  C   UNL     1       2.170   8.251  17.893  0.00  0.00    +0.000 A 
ATOM     10  C   UNL     1       1.634   9.537  18.026  0.00  0.00    +0.000 A 
ATOM     11  C   UNL     1       1.095   9.994  19.243  0.00  0.00    +0.000 A 
ATOM     12  C   UNL     1       1.060   9.093  20.321  0.00  0.00    +0.000 A 
ATOM     13  C   UNL     1       1.673   7.818  20.169  0.00  0.00    +0.000 A 
ATOM     14  C   UNL     1       0.395   9.432  21.657  0.00  0.00    +0.000 C 
ATOM     15  C   UNL     1       1.478   9.591  22.747  0.00  0.00    +0.000 C 
ATOM     16  C   UNL     1      -0.568   8.295  22.079  0.00  0.00    +0.000 C 
ATOM     17  C   UNL     1      -0.472  10.709  21.571  0.00  0.00    +0.000 C 
ATOM     18  C   UNL     1       0.175  11.830  20.777  0.00  0.00    +0.000 C 
ATOM     19  C   UNL     1       0.567  11.429  19.336  0.00  0.00    +0.000 C 
ATOM     20  C   UNL     1      -0.649  11.580  18.395  0.00  0.00    +0.000 C 
ATOM     21  C   UNL     1       1.655  12.437  18.894  0.00  0.00    +0.000 C 
ENDBRANCH   1   8
BRANCH   5  22
ATOM     22  C   UNL     1       6.382   4.957  14.528  0.00  0.00    +0.000 A 
ATOM     23  N   UNL     1       6.190   4.125  13.519  0.00  0.00    +0.000 NA
ATOM     24  N   UNL     1       7.300   4.211  12.716  0.00  0.00    +0.000 NA
ATOM     25  N   UNL     1       8.174   5.075  13.210  0.00  0.00    +0.000 NA
ATOM     26  N   UNL     1       7.613   5.535  14.330  0.00  0.00    +0.000 N 
ATOM     27  H   UNL     1       8.108   6.220  14.887  0.00  0.00    +0.000 HD
ENDBRANCH   5  22
BRANCH   1  29
ATOM     28  C   UNL     1       1.457   4.379  19.954  0.00  0.00    +0.000 C 
ATOM     29  C   UNL     1       2.784   5.131  19.939  0.00  0.00    +0.000 C 
ENDBRANCH   1  29
TORSDOF 3
ENDMDL
MODEL 2
REMARK VINA RESULT:      -8.0      1.054      2.828
REMARK  Name = 
REMARK  8 active torsions:
REMARK  status: ('A' for Active; 'I' for Inactive)
REMARK    1  A    between atoms: C_1  and  C_2
REMARK    2  A    between atoms: C_2  and  N_3
REMARK    3  A    between atoms: N_3  and  C_4
REMARK    4  A    between atoms: C_10  and  C_11
REMARK    5  A    between atoms: C_10  and  C_12
REMARK    6  A    between atoms: C_15  and  C_16
REMARK    7  A    between atoms: C_15  and  C_17
REMARK    8  A    between atoms: C_21  and  C_22
REMARK                            x       y       z     vdW  Elec       q    Type
REMARK                         _______ _______ _______ _____ _____    ______ ____
ROOT
ATOM      1  N   UNL     1       2.852   4.603  18.613  0.00  0.00    +0.000 N 
ATOM      2  C   UNL     1       3.803   4.669  17.565  0.00  0.00    +0.000 A 
ATOM      3  C   UNL     1       3.984   3.633  16.648  0.00  0.00    +0.000 A 
ATOM      4  C   UNL     1       4.949   3.744  15.640  0.00  0.00    +0.000 A 
ATOM      5  C   UNL     1       5.723   4.891  15.529  0.00  0.00    +0.000 A 
ATOM      6  C   UNL     1       5.481   5.883  16.467  0.00  0.00    +0.000 A 
ATOM      7  N   UNL     1       4.561   5.787  17.455  0.00  0.00    +0.000 NA
ENDROOT
BRANCH   1   8
ATOM      8  C   UNL     1       2.361   5.743  19.296  0.00  0.00    +0.000 A 
ATOM      9  C   UNL     1       2.116   5.700  20.672  0.00  0.00    +0.000 A 
ATOM     10  C   UNL     1       1.560   6.785  21.359  0.00  0.00    +0.000 A 
ATOM     11  C   UNL     1       1.246   7.993  20.710  0.00  0.00    +0.000 A 
ATOM     12  C   UNL     1       1.562   8.101  19.345  0.00  0.00    +0.000 A 
ATOM     13  C   UNL     1       2.065   6.958  18.664  0.00  0.00    +0.000 A 
ATOM     14  C   UNL     1       1.378   9.400  18.557  0.00  0.00    +0.000 C 
ATOM     15  C   UNL     1       0.220   9.233  17.548  0.00  0.00    +0.000 C 
ATOM     16  C   UNL     1       2.670   9.739  17.774  0.00  0.00    +0.000 C 
ATOM     17  C   UNL     1       1.114  10.612  19.481  0.00  0.00    +0.000 C 
ATOM     18  C   UNL     1       0.155  10.311  20.618  0.00  0.00    +0.000 C 
ATOM     19  C   UNL     1       0.596   9.126  21.509  0.00  0.00    +0.000 C 
ATOM     20  C   UNL     1       1.586   9.616  22.588  0.00  0.00    +0.000 C 
ATOM     21  C   UNL     1      -0.688   8.624  22.215  0.00  0.00    +0.000 C 
ENDBRANCH   1   8
BRANCH   5  22
ATOM     22  C   UNL     1       6.715   5.024  14.474  0.00  0.00    +0.000 A 
ATOM     23  N   UNL     1       7.849   5.703  14.520  0.00  0.00    +0.000 NA
ATOM     24  N   UNL     1       8.463   5.534  13.304  0.00  0.00    +0.000 NA
ATOM     25  N   UNL     1       7.732   4.769  12.508  0.00  0.00    +0.000 NA
ATOM     26  N   UNL     1       6.651   4.454  13.225  0.00  0.00    +0.000 N 
ATOM     27  H   UNL     1       5.938   3.866  12.814  0.00  0.00    +0.000 HD
ENDBRANCH   5  22
BRANCH   1  29
ATOM     28  C   UNL     1       1.159   2.798  18.759  0.00  0.00    +0.000 C 
ATOM     29  C   UNL     1       2.557   3.262  19.150  0.00  0.00    +0.000 C 
ENDBRANCH   1  29
TORSDOF 3
ENDMDL
MODEL 3
REMARK VINA RESULT:      -7.9      6.771      9.180
REMARK  Name = 
REMARK  8 active torsions:
REMARK  status: ('A' for Active; 'I' for Inactive)
REMARK    1  A    between atoms: C_1  and  C_2
REMARK    2  A    between atoms: C_2  and  N_3
REMARK    3  A    between atoms: N_3  and  C_4
REMARK    4  A    between atoms: C_10  and  C_11
REMARK    5  A    between atoms: C_10  and  C_12
REMARK    6  A    between atoms: C_15  and  C_16
REMARK    7  A    between atoms: C_15  and  C_17
REMARK    8  A    between atoms: C_21  and  C_22
REMARK                            x       y       z     vdW  Elec       q    Type
REMARK                         _______ _______ _______ _____ _____    ______ ____
ROOT
ATOM      1  N   UNL     1      -2.413  11.351  18.426  0.00  0.00    +0.000 N 
ATOM      2  C   UNL     1      -2.810  10.941  17.130  0.00  0.00    +0.000 A 
ATOM      3  C   UNL     1      -2.114   9.978  16.399  0.00  0.00    +0.000 A 
ATOM      4  C   UNL     1      -2.542   9.620  15.116  0.00  0.00    +0.000 A 
ATOM      5  C   UNL     1      -3.673  10.204  14.562  0.00  0.00    +0.000 A 
ATOM      6  C   UNL     1      -4.321  11.143  15.348  0.00  0.00    +0.000 A 
ATOM      7  N   UNL     1      -3.914  11.510  16.586  0.00  0.00    +0.000 NA
ENDROOT
BRANCH   1   8
ATOM      8  C   UNL     1      -3.279  11.999  19.341  0.00  0.00    +0.000 A 
ATOM      9  C   UNL     1      -2.768  12.848  20.328  0.00  0.00    +0.000 A 
ATOM     10  C   UNL     1      -3.590  13.442  21.292  0.00  0.00    +0.000 A 
ATOM     11  C   UNL     1      -4.983  13.244  21.303  0.00  0.00    +0.000 A 
ATOM     12  C   UNL     1      -5.540  12.467  20.272  0.00  0.00    +0.000 A 
ATOM     13  C   UNL     1      -4.669  11.826  19.349  0.00  0.00    +0.000 A 
ATOM     14  C   UNL     1      -7.050  12.276  20.109  0.00  0.00    +0.000 C 
ATOM     15  C   UNL     1      -7.425  10.817  20.447  0.00  0.00    +0.000 C 
ATOM     16  C   UNL     1      -7.471  12.569  18.647  0.00  0.00    +0.000 C 
ATOM     17  C   UNL     1      -7.862  13.257  20.986  0.00  0.00    +0.000 C 
ATOM     18  C   UNL     1      -7.300  13.428  22.386  0.00  0.00    +0.000 C 
ATOM     19  C   UNL     1      -5.822  13.883  22.414  0.00  0.00    +0.000 C 
ATOM     20  C   UNL     1      -5.740  15.421  22.286  0.00  0.00    +0.000 C 
ATOM     21  C   UNL     1      -5.278  13.478  23.805  0.00  0.00    +0.000 C 
ENDBRANCH   1   8
BRANCH   5  22
ATOM     22  C   UNL     1      -4.137   9.825  13.236  0.00  0.00    +0.000 A 
ATOM     23  N   UNL     1      -3.399   9.599  12.163  0.00  0.00    +0.000 NA
ATOM     24  N   UNL     1      -4.262   9.261  11.151  0.00  0.00    +0.000 NA
ATOM     25  N   UNL     1      -5.517   9.277  11.575  0.00  0.00    +0.000 NA
ATOM     26  N   UNL     1      -5.444   9.628  12.861  0.00  0.00    +0.000 N 
ATOM     27  H   UNL     1      -6.295   9.707  13.401  0.00  0.00    +0.000 HD
ENDBRANCH   5  22
BRANCH   1  29
ATOM     28  C   UNL     1      -0.625  10.127  19.632  0.00  0.00    +0.000 C 
ATOM     29  C   UNL     1      -0.969  11.298  18.718  0.00  0.00    +0.000 C 
ENDBRANCH   1  29
TORSDOF 3
ENDMDL
MODEL 4
REMARK VINA RESULT:      -7.8      8.649     11.250
REMARK  Name = 
REMARK  8 active torsions:
REMARK  status: ('A' for Active; 'I' for Inactive)
REMARK    1  A    between atoms: C_1  and  C_2
REMARK    2  A    between atoms: C_2  and  N_3
REMARK    3  A    between atoms: N_3  and  C_4
REMARK    4  A    between atoms: C_10  and  C_11
REMARK    5  A    between atoms: C_10  and  C_12
REMARK    6  A    between atoms: C_15  and  C_16
REMARK    7  A    between atoms: C_15  and  C_17
REMARK    8  A    between atoms: C_21  and  C_22
REMARK                            x       y       z     vdW  Elec       q    Type
REMARK                         _______ _______ _______ _____ _____    ______ ____
ROOT
ATOM      1  N   UNL     1       7.194  14.452  24.341  0.00  0.00    +0.000 N 
ATOM      2  C   UNL     1       6.514  13.439  25.061  0.00  0.00    +0.000 A 
ATOM      3  C   UNL     1       5.905  13.672  26.294  0.00  0.00    +0.000 A 
ATOM      4  C   UNL     1       5.258  12.629  26.969  0.00  0.00    +0.000 A 
ATOM      5  C   UNL     1       5.200  11.359  26.412  0.00  0.00    +0.000 A 
ATOM      6  C   UNL     1       5.816  11.204  25.181  0.00  0.00    +0.000 A 
ATOM      7  N   UNL     1       6.456  12.197  24.520  0.00  0.00    +0.000 NA
ENDROOT
BRANCH   1   8
ATOM      8  C   UNL     1       7.467  14.378  22.953  0.00  0.00    +0.000 A 
ATOM      9  C   UNL     1       8.638  13.771  22.488  0.00  0.00    +0.000 A 
ATOM     10  C   UNL     1       8.970  13.749  21.129  0.00  0.00    +0.000 A 
ATOM     11  C   UNL     1       8.129  14.308  20.150  0.00  0.00    +0.000 A 
ATOM     12  C   UNL     1       6.902  14.848  20.574  0.00  0.00    +0.000 A 
ATOM     13  C   UNL     1       6.627  14.912  21.968  0.00  0.00    +0.000 A 
ATOM     14  C   UNL     1       5.852  15.379  19.595  0.00  0.00    +0.000 C 
ATOM     15  C   UNL     1       5.762  16.915  19.718  0.00  0.00    +0.000 C 
ATOM     16  C   UNL     1       4.464  14.774  19.919  0.00  0.00    +0.000 C 
ATOM     17  C   UNL     1       6.159  14.974  18.134  0.00  0.00    +0.000 C 
ATOM     18  C   UNL     1       7.626  15.099  17.764  0.00  0.00    +0.000 C 
ATOM     19  C   UNL     1       8.572  14.294  18.684  0.00  0.00    +0.000 C 
ATOM     20  C   UNL     1       8.663  12.830  18.198  0.00  0.00    +0.000 C 
ATOM     21  C   UNL     1       9.968  14.947  18.534  0.00  0.00    +0.000 C 
ENDBRANCH   1   8
BRANCH   5  22
ATOM     22  C   UNL     1       4.514  10.274  27.097  0.00  0.00    +0.000 A 
ATOM     23  N   UNL     1       3.210  10.127  27.262  0.00  0.00    +0.000 NA
ATOM     24  N   UNL     1       3.027   8.956  27.954  0.00  0.00    +0.000 NA
ATOM     25  N   UNL     1       4.189   8.379  28.222  0.00  0.00    +0.000 NA
ATOM     26  N   UNL     1       5.109   9.191  27.697  0.00  0.00    +0.000 N 
ATOM     27  H   UNL     1       6.088   8.950  27.782  0.00  0.00    +0.000 HD
ENDBRANCH   5  22
BRANCH   1  29
ATOM     28  C   UNL     1       9.113  15.007  25.812  0.00  0.00    +0.000 C 
ATOM     29  C   UNL     1       7.837  15.509  25.144  0.00  0.00    +0.000 C 
ENDBRANCH   1  29
TORSDOF 3
ENDMDL
MODEL 5
REMARK VINA RESULT:      -7.7      3.486      8.255
REMARK  Name = 
REMARK  8 active torsions:
REMARK  status: ('A' for Active; 'I' for Inactive)
REMARK    1  A    between atoms: C_1  and  C_2
REMARK    2  A    between atoms: C_2  and  N_3
REMARK    3  A    between atoms: N_3  and  C_4
REMARK    4  A    between atoms: C_10  and  C_11
REMARK    5  A    between atoms: C_10  and  C_12
REMARK    6  A    between atoms: C_15  and  C_16
REMARK    7  A    between atoms: C_15  and  C_17
REMARK    8  A    between atoms: C_21  and  C_22
REMARK                            x       y       z     vdW  Elec       q    Type
REMARK                         _______ _______ _______ _____ _____    ______ ____
ROOT
ATOM      1  N   UNL     1       2.198   6.638  19.811  0.00  0.00    +0.000 N 
ATOM      2  C   UNL     1       1.719   7.970  19.760  0.00  0.00    +0.000 A 
ATOM      3  C   UNL     1       1.228   8.636  20.884  0.00  0.00    +0.000 A 
ATOM      4  C   UNL     1       0.754   9.948  20.774  0.00  0.00    +0.000 A 
ATOM      5  C   UNL     1       0.782  10.608  19.553  0.00  0.00    +0.000 A 
ATOM      6  C   UNL     1       1.293   9.890  18.484  0.00  0.00    +0.000 A 
ATOM      7  N   UNL     1       1.745   8.617  18.569  0.00  0.00    +0.000 NA
ENDROOT
BRANCH   1   8
ATOM      8  C   UNL     1       3.052   6.076  18.830  0.00  0.00    +0.000 A 
ATOM      9  C   UNL     1       2.555   5.169  17.888  0.00  0.00    +0.000 A 
ATOM     10  C   UNL     1       3.388   4.540  16.955  0.00  0.00    +0.000 A 
ATOM     11  C   UNL     1       4.767   4.810  16.891  0.00  0.00    +0.000 A 
ATOM     12  C   UNL     1       5.283   5.783  17.765  0.00  0.00    +0.000 A 
ATOM     13  C   UNL     1       4.422   6.353  18.742  0.00  0.00    +0.000 A 
ATOM     14  C   UNL     1       6.740   6.248  17.712  0.00  0.00    +0.000 C 
ATOM     15  C   UNL     1       7.488   5.745  18.967  0.00  0.00    +0.000 C 
ATOM     16  C   UNL     1       6.808   7.795  17.683  0.00  0.00    +0.000 C 
ATOM     17  C   UNL     1       7.460   5.770  16.430  0.00  0.00    +0.000 C 
ATOM     18  C   UNL     1       7.143   4.333  16.055  0.00  0.00    +0.000 C 
ATOM     19  C   UNL     1       5.633   4.054  15.879  0.00  0.00    +0.000 C 
ATOM     20  C   UNL     1       5.187   4.435  14.450  0.00  0.00    +0.000 C 
ATOM     21  C   UNL     1       5.460   2.525  16.054  0.00  0.00    +0.000 C 
ENDBRANCH   1   8
BRANCH   5  22
ATOM     22  C   UNL     1       0.308  11.978  19.433  0.00  0.00    +0.000 A 
ATOM     23  N   UNL     1      -0.141  12.759  20.401  0.00  0.00    +0.000 NA
ATOM     24  N   UNL     1      -0.463  13.962  19.824  0.00  0.00    +0.000 NA
ATOM     25  N   UNL     1      -0.226  13.940  18.521  0.00  0.00    +0.000 NA
ATOM     26  N   UNL     1       0.247  12.716  18.276  0.00  0.00    +0.000 N 
ATOM     27  H   UNL     1       0.502  12.464  17.329  0.00  0.00    +0.000 HD
ENDBRANCH   5  22
BRANCH   1  29
ATOM     28  C   UNL     1       2.438   4.526  21.088  0.00  0.00    +0.000 C 
ATOM     29  C   UNL     1       1.577   5.754  20.815  0.00  0.00    +0.000 C 
ENDBRANCH   1  29
TORSDOF 3
ENDMDL
MODEL 6
REMARK VINA RESULT:      -7.7      8.750     11.361
REMARK  Name = 
REMARK  8 active torsions:
REMARK  status: ('A' for Active; 'I' for Inactive)
REMARK    1  A    between atoms: C_1  and  C_2
REMARK    2  A    between atoms: C_2  and  N_3
REMARK    3  A    between atoms: N_3  and  C_4
REMARK    4  A    between atoms: C_10  and  C_11
REMARK    5  A    between atoms: C_10  and  C_12
REMARK    6  A    between atoms: C_15  and  C_16
REMARK    7  A    between atoms: C_15  and  C_17
REMARK    8  A    between atoms: C_21  and  C_22
REMARK                            x       y       z     vdW  Elec       q    Type
REMARK                         _______ _______ _______ _____ _____    ______ ____
ROOT
ATOM      1  N   UNL     1       7.385  14.565  23.981  0.00  0.00    +0.000 N 
ATOM      2  C   UNL     1       6.715  13.560  24.722  0.00  0.00    +0.000 A 
ATOM      3  C   UNL     1       6.108  13.812  25.953  0.00  0.00    +0.000 A 
ATOM      4  C   UNL     1       5.472  12.778  26.650  0.00  0.00    +0.000 A 
ATOM      5  C   UNL     1       5.420  11.497  26.118  0.00  0.00    +0.000 A 
ATOM      6  C   UNL     1       6.034  11.323  24.887  0.00  0.00    +0.000 A 
ATOM      7  N   UNL     1       6.664  12.308  24.206  0.00  0.00    +0.000 NA
ENDROOT
BRANCH   1   8
ATOM      8  C   UNL     1       7.654  14.466  22.594  0.00  0.00    +0.000 A 
ATOM      9  C   UNL     1       7.077  15.364  21.690  0.00  0.00    +0.000 A 
ATOM     10  C   UNL     1       7.263  15.246  20.308  0.00  0.00    +0.000 A 
ATOM     11  C   UNL     1       8.068  14.235  19.752  0.00  0.00    +0.000 A 
ATOM     12  C   UNL     1       8.734  13.370  20.637  0.00  0.00    +0.000 A 
ATOM     13  C   UNL     1       8.470  13.478  22.030  0.00  0.00    +0.000 A 
ATOM     14  C   UNL     1       9.727  12.307  20.160  0.00  0.00    +0.000 C 
ATOM     15  C   UNL     1       9.119  10.903  20.365  0.00  0.00    +0.000 C 
ATOM     16  C   UNL     1      11.043  12.401  20.972  0.00  0.00    +0.000 C 
ATOM     17  C   UNL     1      10.130  12.507  18.680  0.00  0.00    +0.000 C 
ATOM     18  C   UNL     1       8.965  12.869  17.777  0.00  0.00    +0.000 C 
ATOM     19  C   UNL     1       8.193  14.130  18.229  0.00  0.00    +0.000 C 
ATOM     20  C   UNL     1       8.892  15.399  17.692  0.00  0.00    +0.000 C 
ATOM     21  C   UNL     1       6.793  14.030  17.576  0.00  0.00    +0.000 C 
ENDBRANCH   1   8
BRANCH   5  22
ATOM     22  C   UNL     1       4.745  10.420  26.826  0.00  0.00    +0.000 A 
ATOM     23  N   UNL     1       3.475  10.065  26.721  0.00  0.00    +0.000 NA
ATOM     24  N   UNL     1       3.291   8.997  27.564  0.00  0.00    +0.000 NA
ATOM     25  N   UNL     1       4.418   8.688  28.188  0.00  0.00    +0.000 NA
ATOM     26  N   UNL     1       5.316   9.566  27.737  0.00  0.00    +0.000 N 
ATOM     27  H   UNL     1       6.267   9.523  28.081  0.00  0.00    +0.000 HD
ENDBRANCH   5  22
BRANCH   1  29
ATOM     28  C   UNL     1       9.451  15.277  25.155  0.00  0.00    +0.000 C 
ATOM     29  C   UNL     1       8.023  15.641  24.762  0.00  0.00    +0.000 C 
ENDBRANCH   1  29
TORSDOF 3
ENDMDL
MODEL 7
REMARK VINA RESULT:      -7.4      6.193      8.611
REMARK  Name = 
REMARK  8 active torsions:
REMARK  status: ('A' for Active; 'I' for Inactive)
REMARK    1  A    between atoms: C_1  and  C_2
REMARK    2  A    between atoms: C_2  and  N_3
REMARK    3  A    between atoms: N_3  and  C_4
REMARK    4  A    between atoms: C_10  and  C_11
REMARK    5  A    between atoms: C_10  and  C_12
REMARK    6  A    between atoms: C_15  and  C_16
REMARK    7  A    between atoms: C_15  and  C_17
REMARK    8  A    between atoms: C_21  and  C_22
REMARK                            x       y       z     vdW  Elec       q    Type
REMARK                         _______ _______ _______ _____ _____    ______ ____
ROOT
ATOM      1  N   UNL     1      -0.383  11.319  18.934  0.00  0.00    +0.000 N 
ATOM      2  C   UNL     1       0.551  12.384  18.941  0.00  0.00    +0.000 A 
ATOM      3  C   UNL     1       1.889  12.213  18.589  0.00  0.00    +0.000 A 
ATOM      4  C   UNL     1       2.773  13.297  18.627  0.00  0.00    +0.000 A 
ATOM      5  C   UNL     1       2.326  14.558  18.997  0.00  0.00    +0.000 A 
ATOM      6  C   UNL     1       0.982  14.657  19.323  0.00  0.00    +0.000 A 
ATOM      7  N   UNL     1       0.117  13.616  19.303  0.00  0.00    +0.000 NA
ENDROOT
BRANCH   1   8
ATOM      8  C   UNL     1      -1.786  11.509  18.889  0.00  0.00    +0.000 A 
ATOM      9  C   UNL     1      -2.548  10.954  17.856  0.00  0.00    +0.000 A 
ATOM     10  C   UNL     1      -3.924  11.187  17.743  0.00  0.00    +0.000 A 
ATOM     11  C   UNL     1      -4.624  11.966  18.683  0.00  0.00    +0.000 A 
ATOM     12  C   UNL     1      -3.905  12.465  19.782  0.00  0.00    +0.000 A 
ATOM     13  C   UNL     1      -2.498  12.264  19.830  0.00  0.00    +0.000 A 
ATOM     14  C   UNL     1      -4.575  13.225  20.929  0.00  0.00    +0.000 C 
ATOM     15  C   UNL     1      -4.152  14.710  20.881  0.00  0.00    +0.000 C 
ATOM     16  C   UNL     1      -4.141  12.631  22.291  0.00  0.00    +0.000 C 
ATOM     17  C   UNL     1      -6.117  13.104  20.888  0.00  0.00    +0.000 C 
ATOM     18  C   UNL     1      -6.699  13.235  19.492  0.00  0.00    +0.000 C 
ATOM     19  C   UNL     1      -6.120  12.222  18.477  0.00  0.00    +0.000 C 
ATOM     20  C   UNL     1      -6.880  10.881  18.575  0.00  0.00    +0.000 C 
ATOM     21  C   UNL     1      -6.378  12.829  17.076  0.00  0.00    +0.000 C 
ENDBRANCH   1   8
BRANCH   5  22
ATOM     22  C   UNL     1       3.232  15.696  19.022  0.00  0.00    +0.000 A 
ATOM     23  N   UNL     1       4.202  15.967  18.166  0.00  0.00    +0.000 NA
ATOM     24  N   UNL     1       4.780  17.141  18.579  0.00  0.00    +0.000 NA
ATOM     25  N   UNL     1       4.191  17.598  19.674  0.00  0.00    +0.000 NA
ATOM     26  N   UNL     1       3.237  16.707  19.952  0.00  0.00    +0.000 N 
ATOM     27  H   UNL     1       2.647  16.851  20.761  0.00  0.00    +0.000 HD
ENDBRANCH   5  22
BRANCH   1  29
ATOM     28  C   UNL     1      -0.007   9.613  20.695  0.00  0.00    +0.000 C 
ATOM     29  C   UNL     1       0.151   9.975  19.222  0.00  0.00    +0.000 C 
ENDBRANCH   1  29
TORSDOF 3
ENDMDL
MODEL 8
REMARK VINA RESULT:      -7.4      7.476     11.081
REMARK  Name = 
REMARK  8 active torsions:
REMARK  status: ('A' for Active; 'I' for Inactive)
REMARK    1  A    between atoms: C_1  and  C_2
REMARK    2  A    between atoms: C_2  and  N_3
REMARK    3  A    between atoms: N_3  and  C_4
REMARK    4  A    between atoms: C_10  and  C_11
REMARK    5  A    between atoms: C_10  and  C_12
REMARK    6  A    between atoms: C_15  and  C_16
REMARK    7  A    between atoms: C_15  and  C_17
REMARK    8  A    between atoms: C_21  and  C_22
REMARK                            x       y       z     vdW  Elec       q    Type
REMARK                         _______ _______ _______ _____ _____    ______ ____
ROOT
ATOM      1  N   UNL     1       6.048  15.928  18.823  0.00  0.00    +0.000 N 
ATOM      2  C   UNL     1       4.665  15.721  19.053  0.00  0.00    +0.000 A 
ATOM      3  C   UNL     1       3.694  16.652  18.687  0.00  0.00    +0.000 A 
ATOM      4  C   UNL     1       2.342  16.401  18.951  0.00  0.00    +0.000 A 
ATOM      5  C   UNL     1       1.951  15.219  19.564  0.00  0.00    +0.000 A 
ATOM      6  C   UNL     1       2.968  14.336  19.890  0.00  0.00    +0.000 A 
ATOM      7  N   UNL     1       4.280  14.567  19.653  0.00  0.00    +0.000 NA
ENDROOT
BRANCH   1   8
ATOM      8  C   UNL     1       7.004  14.883  18.804  0.00  0.00    +0.000 A 
ATOM      9  C   UNL     1       7.194  14.112  17.653  0.00  0.00    +0.000 A 
ATOM     10  C   UNL     1       8.076  13.026  17.627  0.00  0.00    +0.000 A 
ATOM     11  C   UNL     1       8.846  12.668  18.749  0.00  0.00    +0.000 A 
ATOM     12  C   UNL     1       8.744  13.476  19.895  0.00  0.00    +0.000 A 
ATOM     13  C   UNL     1       7.790  14.531  19.908  0.00  0.00    +0.000 A 
ATOM     14  C   UNL     1       9.614  13.260  21.136  0.00  0.00    +0.000 C 
ATOM     15  C   UNL     1       8.739  12.735  22.295  0.00  0.00    +0.000 C 
ATOM     16  C   UNL     1      10.264  14.596  21.573  0.00  0.00    +0.000 C 
ATOM     17  C   UNL     1      10.787  12.289  20.865  0.00  0.00    +0.000 C 
ATOM     18  C   UNL     1      10.395  11.080  20.034  0.00  0.00    +0.000 C 
ATOM     19  C   UNL     1       9.758  11.440  18.672  0.00  0.00    +0.000 C 
ATOM     20  C   UNL     1      10.862  11.696  17.622  0.00  0.00    +0.000 C 
ATOM     21  C   UNL     1       8.950  10.192  18.238  0.00  0.00    +0.000 C 
ENDBRANCH   1   8
BRANCH   5  22
ATOM     22  C   UNL     1       0.547  14.941  19.826  0.00  0.00    +0.000 A 
ATOM     23  N   UNL     1      -0.038  13.757  19.884  0.00  0.00    +0.000 NA
ATOM     24  N   UNL     1      -1.362  13.982  20.167  0.00  0.00    +0.000 NA
ATOM     25  N   UNL     1      -1.607  15.279  20.282  0.00  0.00    +0.000 NA
ATOM     26  N   UNL     1      -0.431  15.874  20.069  0.00  0.00    +0.000 N 
ATOM     27  H   UNL     1      -0.374  16.883  20.106  0.00  0.00    +0.000 HD
ENDBRANCH   5  22
BRANCH   1  29
ATOM     28  C   UNL     1       6.628  17.863  20.262  0.00  0.00    +0.000 C 
ATOM     29  C   UNL     1       6.513  17.327  18.839  0.00  0.00    +0.000 C 
ENDBRANCH   1  29
TORSDOF 3
ENDMDL
MODEL 9
REMARK VINA RESULT:      -7.3      8.959     11.663
REMARK  Name = 
REMARK  8 active torsions:
REMARK  status: ('A' for Active; 'I' for Inactive)
REMARK    1  A    between atoms: C_1  and  C_2
REMARK    2  A    between atoms: C_2  and  N_3
REMARK    3  A    between atoms: N_3  and  C_4
REMARK    4  A    between atoms: C_10  and  C_11
REMARK    5  A    between atoms: C_10  and  C_12
REMARK    6  A    between atoms: C_15  and  C_16
REMARK    7  A    between atoms: C_15  and  C_17
REMARK    8  A    between atoms: C_21  and  C_22
REMARK                            x       y       z     vdW  Elec       q    Type
REMARK                         _______ _______ _______ _____ _____    ______ ____
ROOT
ATOM      1  N   UNL     1       7.522  14.078  24.169  0.00  0.00    +0.000 N 
ATOM      2  C   UNL     1       6.770  13.150  24.930  0.00  0.00    +0.000 A 
ATOM      3  C   UNL     1       5.876  13.544  25.926  0.00  0.00    +0.000 A 
ATOM      4  C   UNL     1       5.169  12.583  26.658  0.00  0.00    +0.000 A 
ATOM      5  C   UNL     1       5.335  11.231  26.392  0.00  0.00    +0.000 A 
ATOM      6  C   UNL     1       6.230  10.914  25.383  0.00  0.00    +0.000 A 
ATOM      7  N   UNL     1       6.931  11.829  24.673  0.00  0.00    +0.000 NA
ENDROOT
BRANCH   1   8
ATOM      8  C   UNL     1       8.115  13.768  22.920  0.00  0.00    +0.000 A 
ATOM      9  C   UNL     1       8.936  12.645  22.780  0.00  0.00    +0.000 A 
ATOM     10  C   UNL     1       9.595  12.355  21.580  0.00  0.00    +0.000 A 
ATOM     11  C   UNL     1       9.441  13.159  20.436  0.00  0.00    +0.000 A 
ATOM     12  C   UNL     1       8.553  14.245  20.516  0.00  0.00    +0.000 A 
ATOM     13  C   UNL     1       7.952  14.549  21.769  0.00  0.00    +0.000 A 
ATOM     14  C   UNL     1       8.213  15.122  19.308  0.00  0.00    +0.000 C 
ATOM     15  C   UNL     1       8.828  16.525  19.500  0.00  0.00    +0.000 C 
ATOM     16  C   UNL     1       6.677  15.270  19.171  0.00  0.00    +0.000 C 
ATOM     17  C   UNL     1       8.698  14.499  17.978  0.00  0.00    +0.000 C 
ATOM     18  C   UNL     1      10.085  13.889  18.064  0.00  0.00    +0.000 C 
ATOM     19  C   UNL     1      10.227  12.814  19.166  0.00  0.00    +0.000 C 
ATOM     20  C   UNL     1       9.751  11.444  18.635  0.00  0.00    +0.000 C 
ATOM     21  C   UNL     1      11.741  12.720  19.476  0.00  0.00    +0.000 C 
ENDBRANCH   1   8
BRANCH   5  22
ATOM     22  C   UNL     1       4.591  10.226  27.135  0.00  0.00    +0.000 A 
ATOM     23  N   UNL     1       5.068   9.364  28.017  0.00  0.00    +0.000 NA
ATOM     24  N   UNL     1       4.004   8.624  28.467  0.00  0.00    +0.000 NA
ATOM     25  N   UNL     1       2.880   9.007  27.878  0.00  0.00    +0.000 NA
ATOM     26  N   UNL     1       3.239   9.993  27.053  0.00  0.00    +0.000 N 
ATOM     27  H   UNL     1       2.533  10.447  26.488  0.00  0.00    +0.000 HD
ENDBRANCH   5  22
BRANCH   1  29
ATOM     28  C   UNL     1       9.174  15.204  25.637  0.00  0.00    +0.000 C 
ATOM     29  C   UNL     1       7.881  15.341  24.840  0.00  0.00    +0.000 C 
ENDBRANCH   1  29
TORSDOF 3
ENDMDL
