MODEL 1
REMARK VINA RESULT:      -9.0      0.000      0.000
REMARK  Name = 
REMARK  9 active torsions:
REMARK  status: ('A' for Active; 'I' for Inactive)
REMARK    1  A    between atoms: C_4  and  C_5
REMARK    2  A    between atoms: C_5  and  C_6
REMARK    3  A    between atoms: C_6  and  C_7
REMARK    4  A    between atoms: C_9  and  O_10
REMARK    5  A    between atoms: O_10  and  C_11
REMARK    6  A    between atoms: C_11  and  C_12
REMARK    7  A    between atoms: C_19  and  O_20
REMARK    8  A    between atoms: O_20  and  C_21
REMARK    9  A    between atoms: C_21  and  C_22
REMARK                            x       y       z     vdW  Elec       q    Type
REMARK                         _______ _______ _______ _____ _____    ______ ____
ROOT
ATOM      1  C   UNL     1       7.545   6.766  17.926  0.00  0.00    +0.000 A 
ATOM      2  C   UNL     1       6.989   5.827  18.764  0.00  0.00    +0.000 A 
ATOM      3  C   UNL     1       6.223   4.846  18.186  0.00  0.00    +0.000 A 
ATOM      4  N   UNL     1       6.011   4.772  16.861  0.00  0.00    +0.000 NA
ATOM      5  C   UNL     1       6.558   5.752  16.130  0.00  0.00    +0.000 A 
ATOM      6  N   UNL     1       7.317   6.751  16.604  0.00  0.00    +0.000 NA
ENDROOT
BRANCH   1   7
ATOM      7  C   UNL     1       8.395   7.898  18.455  0.00  0.00    +0.000 C 
BRANCH   7   8
ATOM      8  C   UNL     1       8.090   9.249  17.798  0.00  0.00    +0.000 C 
BRANCH   8  12
ATOM      9  C   UNL     1      10.203  12.537  19.584  0.00  0.00    +0.000 A 
ATOM     10  C   UNL     1       9.585  12.690  18.346  0.00  0.00    +0.000 A 
ATOM     11  C   UNL     1       8.895  11.623  17.778  0.00  0.00    +0.000 A 
ATOM     12  C   UNL     1       8.820  10.392  18.446  0.00  0.00    +0.000 A 
ATOM     13  C   UNL     1       9.429  10.249  19.696  0.00  0.00    +0.000 A 
ATOM     14  C   UNL     1      10.120  11.320  20.261  0.00  0.00    +0.000 A 
ENDBRANCH   8  12
ENDBRANCH   7   8
ENDBRANCH   1   7
BRANCH   3  15
ATOM     15  O   UNL     1       5.644   3.836  18.910  0.00  0.00    +0.000 OA
BRANCH  15  16
ATOM     16  C   UNL     1       4.675   4.246  19.882  0.00  0.00    +0.000 C 
BRANCH  16  17
ATOM     17  C   UNL     1       3.318   3.648  19.596  0.00  0.00    +0.000 A 
ATOM     18  C   UNL     1       3.132   2.680  18.601  0.00  0.00    +0.000 A 
ATOM     19  C   UNL     1       1.859   2.188  18.319  0.00  0.00    +0.000 A 
ATOM     20  C   UNL     1       0.757   2.652  19.032  0.00  0.00    +0.000 A 
ATOM     21  C   UNL     1       0.927   3.603  20.036  0.00  0.00    +0.000 A 
ATOM     22  C   UNL     1       2.200   4.097  20.319  0.00  0.00    +0.000 A 
ENDBRANCH  16  17
ENDBRANCH  15  16
ENDBRANCH   3  15
BRANCH   5  23
ATOM     23  O   UNL     1       6.333   5.681  14.772  0.00  0.00    +0.000 OA
BRANCH  23  24
ATOM     24  C   UNL     1       7.247   4.788  14.134  0.00  0.00    +0.000 C 
BRANCH  24  25
ATOM     25  C   UNL     1       6.496   3.951  13.124  0.00  0.00    +0.000 A 
ATOM     26  C   UNL     1       7.189   3.136  12.218  0.00  0.00    +0.000 A 
ATOM     27  C   UNL     1       6.497   2.400  11.255  0.00  0.00    +0.000 A 
ATOM     28  C   UNL     1       5.106   2.459  11.197  0.00  0.00    +0.000 A 
ATOM     29  C   UNL     1       4.404   3.241  12.111  0.00  0.00    +0.000 A 
ATOM     30  C   UNL     1       5.093   3.982  13.073  0.00  0.00    +0.000 A 
ENDBRANCH  24  25
ENDBRANCH  23  24
ENDBRANCH   5  23
TORSDOF 9
ENDMDL
MODEL 2
REMARK VINA RESULT:      -8.9      1.344      1.808
REMARK  Name = 
REMARK  9 active torsions:
REMARK  status: ('A' for Active; 'I' for Inactive)
REMARK    1  A    between atoms: C_4  and  C_5
REMARK    2  A    between atoms: C_5  and  C_6
REMARK    3  A    between atoms: C_6  and  C_7
REMARK    4  A    between atoms: C_9  and  O_10
REMARK    5  A    between atoms: O_10  and  C_11
REMARK    6  A    between atoms: C_11  and  C_12
REMARK    7  A    between atoms: C_19  and  O_20
REMARK    8  A    between atoms: O_20  and  C_21
REMARK    9  A    between atoms: C_21  and  C_22
REMARK                            x       y       z     vdW  Elec       q    Type
REMARK                         _______ _______ _______ _____ _____    ______ ____
ROOT
ATOM      1  C   UNL     1       7.207   7.190  17.394  0.00  0.00    +0.000 A 
ATOM      2  C   UNL     1       5.897   7.432  17.738  0.00  0.00    +0.000 A 
ATOM      3  C   UNL     1       4.943   6.607  17.198  0.00  0.00    +0.000 A 
ATOM      4  N   UNL     1       5.242   5.591  16.372  0.00  0.00    +0.000 NA
ATOM      5  C   UNL     1       6.539   5.456  16.060  0.00  0.00    +0.000 A 
ATOM      6  N   UNL     1       7.539   6.214  16.536  0.00  0.00    +0.000 NA
ENDROOT
BRANCH   1   7
ATOM      7  C   UNL     1       8.337   8.045  17.920  0.00  0.00    +0.000 C 
BRANCH   7   8
ATOM      8  C   UNL     1       7.979   9.531  18.025  0.00  0.00    +0.000 C 
BRANCH   8  12
ATOM      9  C   UNL     1      11.095  11.926  19.763  0.00  0.00    +0.000 A 
ATOM     10  C   UNL     1      10.121  11.347  20.572  0.00  0.00    +0.000 A 
ATOM     11  C   UNL     1       9.121  10.566  20.002  0.00  0.00    +0.000 A 
ATOM     12  C   UNL     1       9.086  10.358  18.616  0.00  0.00    +0.000 A 
ATOM     13  C   UNL     1      10.075  10.929  17.809  0.00  0.00    +0.000 A 
ATOM     14  C   UNL     1      11.075  11.713  18.384  0.00  0.00    +0.000 A 
ENDBRANCH   8  12
ENDBRANCH   7   8
ENDBRANCH   1   7
BRANCH   3  15
ATOM     15  O   UNL     1       3.609   6.726  17.490  0.00  0.00    +0.000 OA
BRANCH  15  16
ATOM     16  C   UNL     1       3.262   6.575  18.872  0.00  0.00    +0.000 C 
BRANCH  16  17
ATOM     17  C   UNL     1       2.432   5.335  19.101  0.00  0.00    +0.000 A 
ATOM     18  C   UNL     1       2.050   4.496  18.047  0.00  0.00    +0.000 A 
ATOM     19  C   UNL     1       1.236   3.389  18.280  0.00  0.00    +0.000 A 
ATOM     20  C   UNL     1       0.798   3.104  19.570  0.00  0.00    +0.000 A 
ATOM     21  C   UNL     1       1.182   3.919  20.633  0.00  0.00    +0.000 A 
ATOM     22  C   UNL     1       1.997   5.027  20.401  0.00  0.00    +0.000 A 
ENDBRANCH  16  17
ENDBRANCH  15  16
ENDBRANCH   3  15
BRANCH   5  23
ATOM     23  O   UNL     1       6.844   4.420  15.205  0.00  0.00    +0.000 OA
BRANCH  23  24
ATOM     24  C   UNL     1       7.086   4.889  13.878  0.00  0.00    +0.000 C 
BRANCH  24  25
ATOM     25  C   UNL     1       6.406   3.962  12.896  0.00  0.00    +0.000 A 
ATOM     26  C   UNL     1       5.015   4.006  12.723  0.00  0.00    +0.000 A 
ATOM     27  C   UNL     1       4.382   3.118  11.852  0.00  0.00    +0.000 A 
ATOM     28  C   UNL     1       5.132   2.189  11.134  0.00  0.00    +0.000 A 
ATOM     29  C   UNL     1       6.518   2.156  11.274  0.00  0.00    +0.000 A 
ATOM     30  C   UNL     1       7.153   3.040  12.148  0.00  0.00    +0.000 A 
ENDBRANCH  24  25
ENDBRANCH  23  24
ENDBRANCH   5  23
TORSDOF 9
ENDMDL
MODEL 3
REMARK VINA RESULT:      -8.9      1.120      1.458
REMARK  Name = 
REMARK  9 active torsions:
REMARK  status: ('A' for Active; 'I' for Inactive)
REMARK    1  A    between atoms: C_4  and  C_5
REMARK    2  A    between atoms: C_5  and  C_6
REMARK    3  A    between atoms: C_6  and  C_7
REMARK    4  A    between atoms: C_9  and  O_10
REMARK    5  A    between atoms: O_10  and  C_11
REMARK    6  A    between atoms: C_11  and  C_12
REMARK    7  A    between atoms: C_19  and  O_20
REMARK    8  A    between atoms: O_20  and  C_21
REMARK    9  A    between atoms: C_21  and  C_22
REMARK                            x       y       z     vdW  Elec       q    Type
REMARK                         _______ _______ _______ _____ _____    ______ ____
ROOT
ATOM      1  C   UNL     1       7.277   6.975  17.563  0.00  0.00    +0.000 A 
ATOM      2  C   UNL     1       5.939   6.913  17.879  0.00  0.00    +0.000 A 
ATOM      3  C   UNL     1       5.165   6.039  17.159  0.00  0.00    +0.000 A 
ATOM      4  N   UNL     1       5.660   5.256  16.187  0.00  0.00    +0.000 NA
ATOM      5  C   UNL     1       6.964   5.414  15.921  0.00  0.00    +0.000 A 
ATOM      6  N   UNL     1       7.799   6.243  16.567  0.00  0.00    +0.000 NA
ENDROOT
BRANCH   1   7
ATOM      7  C   UNL     1       8.220   7.912  18.282  0.00  0.00    +0.000 C 
BRANCH   7   8
ATOM      8  C   UNL     1       8.100   9.370  17.822  0.00  0.00    +0.000 C 
BRANCH   8  12
ATOM      9  C   UNL     1      11.027  11.934  19.644  0.00  0.00    +0.000 A 
ATOM     10  C   UNL     1      10.979  11.797  18.259  0.00  0.00    +0.000 A 
ATOM     11  C   UNL     1      10.022  10.971  17.677  0.00  0.00    +0.000 A 
ATOM     12  C   UNL     1       9.106  10.274  18.476  0.00  0.00    +0.000 A 
ATOM     13  C   UNL     1       9.149  10.426  19.865  0.00  0.00    +0.000 A 
ATOM     14  C   UNL     1      10.110  11.253  20.445  0.00  0.00    +0.000 A 
ENDBRANCH   8  12
ENDBRANCH   7   8
ENDBRANCH   1   7
BRANCH   3  15
ATOM     15  O   UNL     1       3.827   5.862  17.402  0.00  0.00    +0.000 OA
BRANCH  15  16
ATOM     16  C   UNL     1       3.367   4.505  17.379  0.00  0.00    +0.000 C 
BRANCH  16  17
ATOM     17  C   UNL     1       2.582   4.166  18.623  0.00  0.00    +0.000 A 
ATOM     18  C   UNL     1       2.993   4.588  19.894  0.00  0.00    +0.000 A 
ATOM     19  C   UNL     1       2.281   4.212  21.031  0.00  0.00    +0.000 A 
ATOM     20  C   UNL     1       1.146   3.414  20.913  0.00  0.00    +0.000 A 
ATOM     21  C   UNL     1       0.714   2.999  19.654  0.00  0.00    +0.000 A 
ATOM     22  C   UNL     1       1.427   3.375  18.515  0.00  0.00    +0.000 A 
ENDBRANCH  16  17
ENDBRANCH  15  16
ENDBRANCH   3  15
BRANCH   5  23
ATOM     23  O   UNL     1       7.471   4.618  14.917  0.00  0.00    +0.000 OA
BRANCH  23  24
ATOM     24  C   UNL     1       7.164   5.144  13.624  0.00  0.00    +0.000 C 
BRANCH  24  25
ATOM     25  C   UNL     1       6.552   4.050  12.780  0.00  0.00    +0.000 A 
ATOM     26  C   UNL     1       7.368   3.168  12.057  0.00  0.00    +0.000 A 
ATOM     27  C   UNL     1       6.803   2.188  11.240  0.00  0.00    +0.000 A 
ATOM     28  C   UNL     1       5.417   2.068  11.150  0.00  0.00    +0.000 A 
ATOM     29  C   UNL     1       4.596   2.918  11.886  0.00  0.00    +0.000 A 
ATOM     30  C   UNL     1       5.159   3.903  12.700  0.00  0.00    +0.000 A 
ENDBRANCH  24  25
ENDBRANCH  23  24
ENDBRANCH   5  23
TORSDOF 9
ENDMDL
MODEL 4
REMARK VINA RESULT:      -8.8      0.987      1.688
REMARK  Name = 
REMARK  9 active torsions:
REMARK  status: ('A' for Active; 'I' for Inactive)
REMARK    1  A    between atoms: C_4  and  C_5
REMARK    2  A    between atoms: C_5  and  C_6
REMARK    3  A    between atoms: C_6  and  C_7
REMARK    4  A    between atoms: C_9  and  O_10
REMARK    5  A    between atoms: O_10  and  C_11
REMARK    6  A    between atoms: C_11  and  C_12
REMARK    7  A    between atoms: C_19  and  O_20
REMARK    8  A    between atoms: O_20  and  C_21
REMARK    9  A    between atoms: C_21  and  C_22
REMARK                            x       y       z     vdW  Elec       q    Type
REMARK                         _______ _______ _______ _____ _____    ______ ____
ROOT
ATOM      1  C   UNL     1       7.657   6.961  18.168  0.00  0.00    +0.000 A 
ATOM      2  C   UNL     1       7.202   6.029  19.072  0.00  0.00    +0.000 A 
ATOM      3  C   UNL     1       6.243   5.150  18.638  0.00  0.00    +0.000 A 
ATOM      4  N   UNL     1       5.753   5.165  17.387  0.00  0.00    +0.000 NA
ATOM      5  C   UNL     1       6.224   6.134  16.590  0.00  0.00    +0.000 A 
ATOM      6  N   UNL     1       7.158   7.037  16.926  0.00  0.00    +0.000 NA
ENDROOT
BRANCH   1   7
ATOM      7  C   UNL     1       8.702   7.987  18.544  0.00  0.00    +0.000 C 
BRANCH   7   8
ATOM      8  C   UNL     1       8.299   9.424  18.195  0.00  0.00    +0.000 C 
BRANCH   8  12
ATOM      9  C   UNL     1      10.959  12.370  19.842  0.00  0.00    +0.000 A 
ATOM     10  C   UNL     1      10.161  11.598  20.682  0.00  0.00    +0.000 A 
ATOM     11  C   UNL     1       9.309  10.640  20.141  0.00  0.00    +0.000 A 
ATOM     12  C   UNL     1       9.247  10.448  18.753  0.00  0.00    +0.000 A 
ATOM     13  C   UNL     1      10.062  11.216  17.915  0.00  0.00    +0.000 A 
ATOM     14  C   UNL     1      10.913  12.176  18.461  0.00  0.00    +0.000 A 
ENDBRANCH   8  12
ENDBRANCH   7   8
ENDBRANCH   1   7
BRANCH   3  15
ATOM     15  O   UNL     1       5.735   4.155  19.433  0.00  0.00    +0.000 OA
BRANCH  15  16
ATOM     16  C   UNL     1       4.755   3.310  18.818  0.00  0.00    +0.000 C 
BRANCH  16  17
ATOM     17  C   UNL     1       3.461   3.309  19.595  0.00  0.00    +0.000 A 
ATOM     18  C   UNL     1       2.369   4.098  19.211  0.00  0.00    +0.000 A 
ATOM     19  C   UNL     1       1.206   4.122  19.980  0.00  0.00    +0.000 A 
ATOM     20  C   UNL     1       1.118   3.353  21.137  0.00  0.00    +0.000 A 
ATOM     21  C   UNL     1       2.189   2.550  21.523  0.00  0.00    +0.000 A 
ATOM     22  C   UNL     1       3.353   2.526  20.756  0.00  0.00    +0.000 A 
ENDBRANCH  16  17
ENDBRANCH  15  16
ENDBRANCH   3  15
BRANCH   5  23
ATOM     23  O   UNL     1       5.715   6.156  15.310  0.00  0.00    +0.000 OA
BRANCH  23  24
ATOM     24  C   UNL     1       5.078   4.921  14.977  0.00  0.00    +0.000 C 
BRANCH  24  25
ATOM     25  C   UNL     1       5.718   4.358  13.728  0.00  0.00    +0.000 A 
ATOM     26  C   UNL     1       5.071   3.361  12.984  0.00  0.00    +0.000 A 
ATOM     27  C   UNL     1       5.683   2.807  11.859  0.00  0.00    +0.000 A 
ATOM     28  C   UNL     1       6.940   3.255  11.456  0.00  0.00    +0.000 A 
ATOM     29  C   UNL     1       7.580   4.266  12.169  0.00  0.00    +0.000 A 
ATOM     30  C   UNL     1       6.972   4.818  13.298  0.00  0.00    +0.000 A 
ENDBRANCH  24  25
ENDBRANCH  23  24
ENDBRANCH   5  23
TORSDOF 9
ENDMDL
MODEL 5
REMARK VINA RESULT:      -8.8      0.639      1.109
REMARK  Name = 
REMARK  9 active torsions:
REMARK  status: ('A' for Active; 'I' for Inactive)
REMARK    1  A    between atoms: C_4  and  C_5
REMARK    2  A    between atoms: C_5  and  C_6
REMARK    3  A    between atoms: C_6  and  C_7
REMARK    4  A    between atoms: C_9  and  O_10
REMARK    5  A    between atoms: O_10  and  C_11
REMARK    6  A    between atoms: C_11  and  C_12
REMARK    7  A    between atoms: C_19  and  O_20
REMARK    8  A    between atoms: O_20  and  C_21
REMARK    9  A    between atoms: C_21  and  C_22
REMARK                            x       y       z     vdW  Elec       q    Type
REMARK                         _______ _______ _______ _____ _____    ______ ____
ROOT
ATOM      1  C   UNL     1       7.243   6.970  17.391  0.00  0.00    +0.000 A 
ATOM      2  C   UNL     1       6.544   6.288  18.361  0.00  0.00    +0.000 A 
ATOM      3  C   UNL     1       6.229   4.978  18.102  0.00  0.00    +0.000 A 
ATOM      4  N   UNL     1       6.580   4.354  16.965  0.00  0.00    +0.000 NA
ATOM      5  C   UNL     1       7.221   5.109  16.062  0.00  0.00    +0.000 A 
ATOM      6  N   UNL     1       7.569   6.395  16.224  0.00  0.00    +0.000 NA
ENDROOT
BRANCH   1   7
ATOM      7  C   UNL     1       7.631   8.420  17.564  0.00  0.00    +0.000 C 
BRANCH   7   8
ATOM      8  C   UNL     1       8.677   8.646  18.662  0.00  0.00    +0.000 C 
BRANCH   8  12
ATOM      9  C   UNL     1       9.633  12.802  19.190  0.00  0.00    +0.000 A 
ATOM     10  C   UNL     1       9.149  12.343  17.968  0.00  0.00    +0.000 A 
ATOM     11  C   UNL     1       8.833  10.997  17.808  0.00  0.00    +0.000 A 
ATOM     12  C   UNL     1       9.002  10.098  18.870  0.00  0.00    +0.000 A 
ATOM     13  C   UNL     1       9.473  10.566  20.100  0.00  0.00    +0.000 A 
ATOM     14  C   UNL     1       9.790  11.916  20.256  0.00  0.00    +0.000 A 
ENDBRANCH   8  12
ENDBRANCH   7   8
ENDBRANCH   1   7
BRANCH   3  15
ATOM     15  O   UNL     1       5.566   4.184  19.002  0.00  0.00    +0.000 OA
BRANCH  15  16
ATOM     16  C   UNL     1       4.488   4.812  19.707  0.00  0.00    +0.000 C 
BRANCH  16  17
ATOM     17  C   UNL     1       3.182   4.093  19.474  0.00  0.00    +0.000 A 
ATOM     18  C   UNL     1       2.040   4.369  20.237  0.00  0.00    +0.000 A 
ATOM     19  C   UNL     1       0.863   3.649  20.040  0.00  0.00    +0.000 A 
ATOM     20  C   UNL     1       0.810   2.648  19.073  0.00  0.00    +0.000 A 
ATOM     21  C   UNL     1       1.932   2.373  18.294  0.00  0.00    +0.000 A 
ATOM     22  C   UNL     1       3.111   3.092  18.491  0.00  0.00    +0.000 A 
ENDBRANCH  16  17
ENDBRANCH  15  16
ENDBRANCH   3  15
BRANCH   5  23
ATOM     23  O   UNL     1       7.573   4.472  14.892  0.00  0.00    +0.000 OA
BRANCH  23  24
ATOM     24  C   UNL     1       6.959   5.085  13.756  0.00  0.00    +0.000 C 
BRANCH  24  25
ATOM     25  C   UNL     1       6.430   4.005  12.841  0.00  0.00    +0.000 A 
ATOM     26  C   UNL     1       7.312   3.158  12.154  0.00  0.00    +0.000 A 
ATOM     27  C   UNL     1       6.824   2.193  11.272  0.00  0.00    +0.000 A 
ATOM     28  C   UNL     1       5.451   2.052  11.079  0.00  0.00    +0.000 A 
ATOM     29  C   UNL     1       4.564   2.866  11.778  0.00  0.00    +0.000 A 
ATOM     30  C   UNL     1       5.048   3.837  12.657  0.00  0.00    +0.000 A 
ENDBRANCH  24  25
ENDBRANCH  23  24
ENDBRANCH   5  23
TORSDOF 9
ENDMDL
MODEL 6
REMARK VINA RESULT:      -8.7      0.590      1.130
REMARK  Name = 
REMARK  9 active torsions:
REMARK  status: ('A' for Active; 'I' for Inactive)
REMARK    1  A    between atoms: C_4  and  C_5
REMARK    2  A    between atoms: C_5  and  C_6
REMARK    3  A    between atoms: C_6  and  C_7
REMARK    4  A    between atoms: C_9  and  O_10
REMARK    5  A    between atoms: O_10  and  C_11
REMARK    6  A    between atoms: C_11  and  C_12
REMARK    7  A    between atoms: C_19  and  O_20
REMARK    8  A    between atoms: O_20  and  C_21
REMARK    9  A    between atoms: C_21  and  C_22
REMARK                            x       y       z     vdW  Elec       q    Type
REMARK                         _______ _______ _______ _____ _____    ______ ____
ROOT
ATOM      1  C   UNL     1       7.618   6.866  18.084  0.00  0.00    +0.000 A 
ATOM      2  C   UNL     1       7.020   5.985  18.956  0.00  0.00    +0.000 A 
ATOM      3  C   UNL     1       6.221   5.011  18.413  0.00  0.00    +0.000 A 
ATOM      4  N   UNL     1       6.016   4.888  17.091  0.00  0.00    +0.000 NA
ATOM      5  C   UNL     1       6.605   5.816  16.323  0.00  0.00    +0.000 A 
ATOM      6  N   UNL     1       7.400   6.804  16.762  0.00  0.00    +0.000 NA
ENDROOT
BRANCH   1   7
ATOM      7  C   UNL     1       8.507   7.986  18.573  0.00  0.00    +0.000 C 
BRANCH   7   8
ATOM      8  C   UNL     1       8.286   9.309  17.831  0.00  0.00    +0.000 C 
BRANCH   8  12
ATOM      9  C   UNL     1      10.103  12.688  19.767  0.00  0.00    +0.000 A 
ATOM     10  C   UNL     1       9.564  12.817  18.489  0.00  0.00    +0.000 A 
ATOM     11  C   UNL     1       8.970  11.720  17.873  0.00  0.00    +0.000 A 
ATOM     12  C   UNL     1       8.911  10.483  18.530  0.00  0.00    +0.000 A 
ATOM     13  C   UNL     1       9.440  10.363  19.819  0.00  0.00    +0.000 A 
ATOM     14  C   UNL     1      10.036  11.464  20.432  0.00  0.00    +0.000 A 
ENDBRANCH   8  12
ENDBRANCH   7   8
ENDBRANCH   1   7
BRANCH   3  15
ATOM     15  O   UNL     1       5.598   4.055  19.173  0.00  0.00    +0.000 OA
BRANCH  15  16
ATOM     16  C   UNL     1       4.704   3.187  18.467  0.00  0.00    +0.000 C 
BRANCH  16  17
ATOM     17  C   UNL     1       3.303   3.267  19.022  0.00  0.00    +0.000 A 
ATOM     18  C   UNL     1       3.016   3.949  20.211  0.00  0.00    +0.000 A 
ATOM     19  C   UNL     1       1.723   3.957  20.731  0.00  0.00    +0.000 A 
ATOM     20  C   UNL     1       0.698   3.289  20.066  0.00  0.00    +0.000 A 
ATOM     21  C   UNL     1       0.963   2.620  18.873  0.00  0.00    +0.000 A 
ATOM     22  C   UNL     1       2.257   2.610  18.352  0.00  0.00    +0.000 A 
ENDBRANCH  16  17
ENDBRANCH  15  16
ENDBRANCH   3  15
BRANCH   5  23
ATOM     23  O   UNL     1       6.388   5.696  14.968  0.00  0.00    +0.000 OA
BRANCH  23  24
ATOM     24  C   UNL     1       5.320   4.790  14.685  0.00  0.00    +0.000 C 
BRANCH  24  25
ATOM     25  C   UNL     1       5.662   3.997  13.445  0.00  0.00    +0.000 A 
ATOM     26  C   UNL     1       6.991   3.892  13.011  0.00  0.00    +0.000 A 
ATOM     27  C   UNL     1       7.301   3.200  11.839  0.00  0.00    +0.000 A 
ATOM     28  C   UNL     1       6.289   2.593  11.098  0.00  0.00    +0.000 A 
ATOM     29  C   UNL     1       4.969   2.663  11.535  0.00  0.00    +0.000 A 
ATOM     30  C   UNL     1       4.655   3.359  12.704  0.00  0.00    +0.000 A 
ENDBRANCH  24  25
ENDBRANCH  23  24
ENDBRANCH   5  23
TORSDOF 9
ENDMDL
MODEL 7
REMARK VINA RESULT:      -8.7      1.056      5.922
REMARK  Name = 
REMARK  9 active torsions:
REMARK  status: ('A' for Active; 'I' for Inactive)
REMARK    1  A    between atoms: C_4  and  C_5
REMARK    2  A    between atoms: C_5  and  C_6
REMARK    3  A    between atoms: C_6  and  C_7
REMARK    4  A    between atoms: C_9  and  O_10
REMARK    5  A    between atoms: O_10  and  C_11
REMARK    6  A    between atoms: C_11  and  C_12
REMARK    7  A    between atoms: C_19  and  O_20
REMARK    8  A    between atoms: O_20  and  C_21
REMARK    9  A    between atoms: C_21  and  C_22
REMARK                            x       y       z     vdW  Elec       q    Type
REMARK                         _______ _______ _______ _____ _____    ______ ____
ROOT
ATOM      1  C   UNL     1       7.680   6.905  18.170  0.00  0.00    +0.000 A 
ATOM      2  C   UNL     1       7.465   6.872  16.810  0.00  0.00    +0.000 A 
ATOM      3  C   UNL     1       6.722   5.829  16.319  0.00  0.00    +0.000 A 
ATOM      4  N   UNL     1       6.203   4.869  17.103  0.00  0.00    +0.000 NA
ATOM      5  C   UNL     1       6.499   4.962  18.407  0.00  0.00    +0.000 A 
ATOM      6  N   UNL     1       7.218   5.940  18.978  0.00  0.00    +0.000 NA
ENDROOT
BRANCH   1   7
ATOM      7  C   UNL     1       8.496   8.000  18.817  0.00  0.00    +0.000 C 
BRANCH   7   8
ATOM      8  C   UNL     1       8.369   9.355  18.111  0.00  0.00    +0.000 C 
BRANCH   8  12
ATOM      9  C   UNL     1      10.953  12.360  19.772  0.00  0.00    +0.000 A 
ATOM     10  C   UNL     1      10.884  12.177  18.393  0.00  0.00    +0.000 A 
ATOM     11  C   UNL     1      10.038  11.208  17.863  0.00  0.00    +0.000 A 
ATOM     12  C   UNL     1       9.254  10.411  18.709  0.00  0.00    +0.000 A 
ATOM     13  C   UNL     1       9.316  10.609  20.092  0.00  0.00    +0.000 A 
ATOM     14  C   UNL     1      10.166  11.580  20.620  0.00  0.00    +0.000 A 
ENDBRANCH   8  12
ENDBRANCH   7   8
ENDBRANCH   1   7
BRANCH   3  15
ATOM     15  O   UNL     1       6.411   5.703  14.989  0.00  0.00    +0.000 OA
BRANCH  15  16
ATOM     16  C   UNL     1       7.283   4.863  14.225  0.00  0.00    +0.000 C 
BRANCH  16  17
ATOM     17  C   UNL     1       6.521   4.068  13.193  0.00  0.00    +0.000 A 
ATOM     18  C   UNL     1       5.121   4.031  13.174  0.00  0.00    +0.000 A 
ATOM     19  C   UNL     1       4.444   3.242  12.246  0.00  0.00    +0.000 A 
ATOM     20  C   UNL     1       5.157   2.486  11.320  0.00  0.00    +0.000 A 
ATOM     21  C   UNL     1       6.550   2.524  11.314  0.00  0.00    +0.000 A 
ATOM     22  C   UNL     1       7.229   3.312  12.243  0.00  0.00    +0.000 A 
ENDBRANCH  16  17
ENDBRANCH  15  16
ENDBRANCH   3  15
BRANCH   5  23
ATOM     23  O   UNL     1       5.975   3.972  19.210  0.00  0.00    +0.000 OA
BRANCH  23  24
ATOM     24  C   UNL     1       4.787   3.412  18.647  0.00  0.00    +0.000 C 
BRANCH  24  25
ATOM     25  C   UNL     1       3.654   3.566  19.635  0.00  0.00    +0.000 A 
ATOM     26  C   UNL     1       3.334   2.526  20.519  0.00  0.00    +0.000 A 
ATOM     27  C   UNL     1       2.257   2.649  21.398  0.00  0.00    +0.000 A 
ATOM     28  C   UNL     1       1.501   3.819  21.416  0.00  0.00    +0.000 A 
ATOM     29  C   UNL     1       1.827   4.872  20.565  0.00  0.00    +0.000 A 
ATOM     30  C   UNL     1       2.900   4.749  19.680  0.00  0.00    +0.000 A 
ENDBRANCH  24  25
ENDBRANCH  23  24
ENDBRANCH   5  23
TORSDOF 9
ENDMDL
MODEL 8
REMARK VINA RESULT:      -8.6      1.107      7.739
REMARK  Name = 
REMARK  9 active torsions:
REMARK  status: ('A' for Active; 'I' for Inactive)
REMARK    1  A    between atoms: C_4  and  C_5
REMARK    2  A    between atoms: C_5  and  C_6
REMARK    3  A    between atoms: C_6  and  C_7
REMARK    4  A    between atoms: C_9  and  O_10
REMARK    5  A    between atoms: O_10  and  C_11
REMARK    6  A    between atoms: C_11  and  C_12
REMARK    7  A    between atoms: C_19  and  O_20
REMARK    8  A    between atoms: O_20  and  C_21
REMARK    9  A    between atoms: C_21  and  C_22
REMARK                            x       y       z     vdW  Elec       q    Type
REMARK                         _______ _______ _______ _____ _____    ______ ____
ROOT
ATOM      1  C   UNL     1       6.970   5.291  16.221  0.00  0.00    +0.000 A 
ATOM      2  C   UNL     1       6.223   4.534  17.095  0.00  0.00    +0.000 A 
ATOM      3  C   UNL     1       6.201   4.930  18.408  0.00  0.00    +0.000 A 
ATOM      4  N   UNL     1       6.863   6.011  18.854  0.00  0.00    +0.000 NA
ATOM      5  C   UNL     1       7.597   6.662  17.941  0.00  0.00    +0.000 A 
ATOM      6  N   UNL     1       7.681   6.349  16.639  0.00  0.00    +0.000 NA
ENDROOT
BRANCH   1   7
ATOM      7  C   UNL     1       7.075   4.938  14.755  0.00  0.00    +0.000 C 
BRANCH   7   8
ATOM      8  C   UNL     1       5.715   4.802  14.061  0.00  0.00    +0.000 C 
BRANCH   8  12
ATOM      9  C   UNL     1       5.806   1.944  10.854  0.00  0.00    +0.000 A 
ATOM     10  C   UNL     1       6.984   2.313  11.499  0.00  0.00    +0.000 A 
ATOM     11  C   UNL     1       6.944   3.233  12.543  0.00  0.00    +0.000 A 
ATOM     12  C   UNL     1       5.725   3.793  12.949  0.00  0.00    +0.000 A 
ATOM     13  C   UNL     1       4.543   3.407  12.308  0.00  0.00    +0.000 A 
ATOM     14  C   UNL     1       4.587   2.486  11.261  0.00  0.00    +0.000 A 
ENDBRANCH   8  12
ENDBRANCH   7   8
ENDBRANCH   1   7
BRANCH   3  15
ATOM     15  O   UNL     1       5.468   4.279  19.366  0.00  0.00    +0.000 OA
BRANCH  15  16
ATOM     16  C   UNL     1       4.269   4.941  19.784  0.00  0.00    +0.000 C 
BRANCH  16  17
ATOM     17  C   UNL     1       3.045   4.113  19.477  0.00  0.00    +0.000 A 
ATOM     18  C   UNL     1       1.860   4.243  20.214  0.00  0.00    +0.000 A 
ATOM     19  C   UNL     1       0.764   3.425  19.946  0.00  0.00    +0.000 A 
ATOM     20  C   UNL     1       0.835   2.470  18.935  0.00  0.00    +0.000 A 
ATOM     21  C   UNL     1       2.000   2.339  18.182  0.00  0.00    +0.000 A 
ATOM     22  C   UNL     1       3.098   3.157  18.449  0.00  0.00    +0.000 A 
ENDBRANCH  16  17
ENDBRANCH  15  16
ENDBRANCH   3  15
BRANCH   5  23
ATOM     23  O   UNL     1       8.283   7.765  18.400  0.00  0.00    +0.000 OA
BRANCH  23  24
ATOM     24  C   UNL     1       7.903   8.949  17.698  0.00  0.00    +0.000 C 
BRANCH  24  25
ATOM     25  C   UNL     1       8.605  10.136  18.318  0.00  0.00    +0.000 A 
ATOM     26  C   UNL     1       9.277  10.006  19.542  0.00  0.00    +0.000 A 
ATOM     27  C   UNL     1       9.884  11.112  20.138  0.00  0.00    +0.000 A 
ATOM     28  C   UNL     1       9.840  12.355  19.510  0.00  0.00    +0.000 A 
ATOM     29  C   UNL     1       9.203  12.491  18.279  0.00  0.00    +0.000 A 
ATOM     30  C   UNL     1       8.590  11.387  17.683  0.00  0.00    +0.000 A 
ENDBRANCH  24  25
ENDBRANCH  23  24
ENDBRANCH   5  23
TORSDOF 9
ENDMDL
MODEL 9
REMARK VINA RESULT:      -8.6      1.211      8.789
REMARK  Name = 
REMARK  9 active torsions:
REMARK  status: ('A' for Active; 'I' for Inactive)
REMARK    1  A    between atoms: C_4  and  C_5
REMARK    2  A    between atoms: C_5  and  C_6
REMARK    3  A    between atoms: C_6  and  C_7
REMARK    4  A    between atoms: C_9  and  O_10
REMARK    5  A    between atoms: O_10  and  C_11
REMARK    6  A    between atoms: C_11  and  C_12
REMARK    7  A    between atoms: C_19  and  O_20
REMARK    8  A    between atoms: O_20  and  C_21
REMARK    9  A    between atoms: C_21  and  C_22
REMARK                            x       y       z     vdW  Elec       q    Type
REMARK                         _______ _______ _______ _____ _____    ______ ____
ROOT
ATOM      1  C   UNL     1       6.338   5.614  16.337  0.00  0.00    +0.000 A 
ATOM      2  C   UNL     1       7.160   6.660  16.691  0.00  0.00    +0.000 A 
ATOM      3  C   UNL     1       7.479   6.786  18.019  0.00  0.00    +0.000 A 
ATOM      4  N   UNL     1       7.032   5.937  18.960  0.00  0.00    +0.000 NA
ATOM      5  C   UNL     1       6.205   4.975  18.529  0.00  0.00    +0.000 A 
ATOM      6  N   UNL     1       5.835   4.775  17.254  0.00  0.00    +0.000 NA
ENDROOT
BRANCH   1   7
ATOM      7  C   UNL     1       5.913   5.388  14.905  0.00  0.00    +0.000 C 
BRANCH   7   8
ATOM      8  C   UNL     1       6.920   4.569  14.090  0.00  0.00    +0.000 C 
BRANCH   8  12
ATOM      9  C   UNL     1       5.010   2.280  10.995  0.00  0.00    +0.000 A 
ATOM     10  C   UNL     1       4.284   3.219  11.724  0.00  0.00    +0.000 A 
ATOM     11  C   UNL     1       4.912   3.962  12.718  0.00  0.00    +0.000 A 
ATOM     12  C   UNL     1       6.274   3.771  12.994  0.00  0.00    +0.000 A 
ATOM     13  C   UNL     1       7.002   2.838  12.249  0.00  0.00    +0.000 A 
ATOM     14  C   UNL     1       6.368   2.094  11.254  0.00  0.00    +0.000 A 
ENDBRANCH   8  12
ENDBRANCH   7   8
ENDBRANCH   1   7
BRANCH   3  15
ATOM     15  O   UNL     1       8.314   7.766  18.490  0.00  0.00    +0.000 OA
BRANCH  15  16
ATOM     16  C   UNL     1       8.113   9.072  17.938  0.00  0.00    +0.000 C 
BRANCH  16  17
ATOM     17  C   UNL     1       9.023  10.090  18.580  0.00  0.00    +0.000 A 
ATOM     18  C   UNL     1       9.126  10.216  19.972  0.00  0.00    +0.000 A 
ATOM     19  C   UNL     1       9.930  11.204  20.537  0.00  0.00    +0.000 A 
ATOM     20  C   UNL     1      10.647  12.075  19.720  0.00  0.00    +0.000 A 
ATOM     21  C   UNL     1      10.569  11.952  18.334  0.00  0.00    +0.000 A 
ATOM     22  C   UNL     1       9.764  10.964  17.767  0.00  0.00    +0.000 A 
ENDBRANCH  16  17
ENDBRANCH  15  16
ENDBRANCH   3  15
BRANCH   5  23
ATOM     23  O   UNL     1       5.739   4.110  19.495  0.00  0.00    +0.000 OA
BRANCH  23  24
ATOM     24  C   UNL     1       4.786   3.190  18.960  0.00  0.00    +0.000 C 
BRANCH  24  25
ATOM     25  C   UNL     1       3.418   3.520  19.512  0.00  0.00    +0.000 A 
ATOM     26  C   UNL     1       2.349   2.628  19.347  0.00  0.00    +0.000 A 
ATOM     27  C   UNL     1       1.076   2.954  19.815  0.00  0.00    +0.000 A 
ATOM     28  C   UNL     1       0.861   4.166  20.468  0.00  0.00    +0.000 A 
ATOM     29  C   UNL     1       1.921   5.047  20.666  0.00  0.00    +0.000 A 
ATOM     30  C   UNL     1       3.195   4.726  20.194  0.00  0.00    +0.000 A 
ENDBRANCH  24  25
ENDBRANCH  23  24
ENDBRANCH   5  23
TORSDOF 9
ENDMDL
