MODEL 1
REMARK VINA RESULT:      -8.7      0.000      0.000
REMARK  Name = 
REMARK  4 active torsions:
REMARK  status: ('A' for Active; 'I' for Inactive)
REMARK    1  A    between atoms: C_2  and  O_5
REMARK    2  A    between atoms: O_5  and  C_6
REMARK    3  A    between atoms: C_9  and  N_10
REMARK    4  A    between atoms: C_13  and  C_14
REMARK                            x       y       z     vdW  Elec       q    Type
REMARK                         _______ _______ _______ _____ _____    ______ ____
ROOT
ATOM      1  N   UNL     1       0.771  10.108  17.685  0.00  0.00    +0.000 N 
ATOM      2  C   UNL     1       1.456   9.083  18.376  0.00  0.00    +0.000 A 
ATOM      3  C   UNL     1       2.397   8.338  17.698  0.00  0.00    +0.000 A 
ATOM      4  C   UNL     1       2.942   7.253  18.365  0.00  0.00    +0.000 A 
ATOM      5  N   UNL     1       2.606   6.976  19.644  0.00  0.00    +0.000 NA
ATOM      6  C   UNL     1       1.736   7.793  20.232  0.00  0.00    +0.000 A 
ATOM      7  N   UNL     1       1.143   8.835  19.658  0.00  0.00    +0.000 NA
ATOM      8  H   UNL     1       1.407  10.867  17.463  0.00  0.00    +0.000 HD
ENDROOT
BRANCH   4   9
ATOM      9  C   UNL     1       3.876   6.311  17.720  0.00  0.00    +0.000 A 
ATOM     10  C   UNL     1       4.998   6.752  16.981  0.00  0.00    +0.000 A 
ATOM     11  C   UNL     1       5.886   5.862  16.378  0.00  0.00    +0.000 A 
ATOM     12  C   UNL     1       5.692   4.488  16.478  0.00  0.00    +0.000 A 
ATOM     13  C   UNL     1       4.575   4.042  17.194  0.00  0.00    +0.000 A 
ATOM     14  N   UNL     1       4.148   2.750  17.426  0.00  0.00    +0.000 N 
ATOM     15  C   UNL     1       3.002   2.758  18.171  0.00  0.00    +0.000 A 
ATOM     16  C   UNL     1       2.683   4.070  18.427  0.00  0.00    +0.000 A 
ATOM     17  C   UNL     1       3.668   4.906  17.810  0.00  0.00    +0.000 A 
ATOM     18  H   UNL     1       4.616   1.925  17.087  0.00  0.00    +0.000 HD
ENDBRANCH   4   9
BRANCH   1  22
ATOM     19  C   UNL     1      -3.160  11.441  18.513  0.00  0.00    +0.000 A 
ATOM     20  C   UNL     1      -2.053  12.143  19.002  0.00  0.00    +0.000 A 
ATOM     21  C   UNL     1      -0.749  11.706  18.734  0.00  0.00    +0.000 A 
ATOM     22  C   UNL     1      -0.535  10.537  18.002  0.00  0.00    +0.000 A 
ATOM     23  C   UNL     1      -1.657   9.857  17.505  0.00  0.00    +0.000 A 
ATOM     24  C   UNL     1      -2.953  10.271  17.799  0.00  0.00    +0.000 A 
BRANCH  19  25
ATOM     25  O   UNL     1      -4.374  11.968  18.824  0.00  0.00    +0.000 OA
BRANCH  25  27
ATOM     26  F   UNL     1      -4.900  12.295  16.567  0.00  0.00    +0.000 F 
ATOM     27  C   UNL     1      -5.370  12.062  17.810  0.00  0.00    +0.000 C 
ATOM     28  F   UNL     1      -6.204  13.079  18.125  0.00  0.00    +0.000 F 
ATOM     29  F   UNL     1      -6.090  10.919  17.790  0.00  0.00    +0.000 F 
ENDBRANCH  25  27
ENDBRANCH  19  25
ENDBRANCH   1  22
TORSDOF 4
ENDMDL
MODEL 2
REMARK VINA RESULT:      -8.7      0.727      1.006
REMARK  Name = 
REMARK  4 active torsions:
REMARK  status: ('A' for Active; 'I' for Inactive)
REMARK    1  A    between atoms: C_2  and  O_5
REMARK    2  A    between atoms: O_5  and  C_6
REMARK    3  A    between atoms: C_9  and  N_10
REMARK    4  A    between atoms: C_13  and  C_14
REMARK                            x       y       z     vdW  Elec       q    Type
REMARK                         _______ _______ _______ _____ _____    ______ ____
ROOT
ATOM      1  N   UNL     1       0.074  10.227  17.633  0.00  0.00    +0.000 N 
ATOM      2  C   UNL     1       0.874   9.348  18.398  0.00  0.00    +0.000 A 
ATOM      3  C   UNL     1       1.776   8.534  17.747  0.00  0.00    +0.000 A 
ATOM      4  C   UNL     1       2.438   7.588  18.512  0.00  0.00    +0.000 A 
ATOM      5  N   UNL     1       2.248   7.508  19.846  0.00  0.00    +0.000 NA
ATOM      6  C   UNL     1       1.403   8.380  20.391  0.00  0.00    +0.000 A 
ATOM      7  N   UNL     1       0.705   9.298  19.729  0.00  0.00    +0.000 NA
ATOM      8  H   UNL     1       0.646  10.961  17.230  0.00  0.00    +0.000 HD
ENDROOT
BRANCH   4   9
ATOM      9  C   UNL     1       3.346   6.585  17.923  0.00  0.00    +0.000 A 
ATOM     10  C   UNL     1       4.608   6.934  17.390  0.00  0.00    +0.000 A 
ATOM     11  C   UNL     1       5.470   5.985  16.842  0.00  0.00    +0.000 A 
ATOM     12  C   UNL     1       5.110   4.642  16.793  0.00  0.00    +0.000 A 
ATOM     13  C   UNL     1       3.855   4.289  17.304  0.00  0.00    +0.000 A 
ATOM     14  N   UNL     1       3.257   3.047  17.361  0.00  0.00    +0.000 N 
ATOM     15  C   UNL     1       2.020   3.145  17.935  0.00  0.00    +0.000 A 
ATOM     16  C   UNL     1       1.816   4.465  18.258  0.00  0.00    +0.000 A 
ATOM     17  C   UNL     1       2.970   5.213  17.860  0.00  0.00    +0.000 A 
ATOM     18  H   UNL     1       3.674   2.195  17.020  0.00  0.00    +0.000 HD
ENDBRANCH   4   9
BRANCH   1  22
ATOM     19  C   UNL     1      -3.802  11.576  18.669  0.00  0.00    +0.000 A 
ATOM     20  C   UNL     1      -2.667  12.247  19.136  0.00  0.00    +0.000 A 
ATOM     21  C   UNL     1      -1.381  11.805  18.800  0.00  0.00    +0.000 A 
ATOM     22  C   UNL     1      -1.212  10.660  18.019  0.00  0.00    +0.000 A 
ATOM     23  C   UNL     1      -2.362  10.011  17.546  0.00  0.00    +0.000 A 
ATOM     24  C   UNL     1      -3.640  10.429  17.907  0.00  0.00    +0.000 A 
BRANCH  19  25
ATOM     25  O   UNL     1      -4.996  12.105  19.048  0.00  0.00    +0.000 OA
BRANCH  25  27
ATOM     26  F   UNL     1      -6.725  11.183  17.770  0.00  0.00    +0.000 F 
ATOM     27  C   UNL     1      -6.015  12.290  18.070  0.00  0.00    +0.000 C 
ATOM     28  F   UNL     1      -5.435  12.722  16.926  0.00  0.00    +0.000 F 
ATOM     29  F   UNL     1      -6.868  13.247  18.496  0.00  0.00    +0.000 F 
ENDBRANCH  25  27
ENDBRANCH  19  25
ENDBRANCH   1  22
TORSDOF 4
ENDMDL
MODEL 3
REMARK VINA RESULT:      -8.6      1.709      2.162
REMARK  Name = 
REMARK  4 active torsions:
REMARK  status: ('A' for Active; 'I' for Inactive)
REMARK    1  A    between atoms: C_2  and  O_5
REMARK    2  A    between atoms: O_5  and  C_6
REMARK    3  A    between atoms: C_9  and  N_10
REMARK    4  A    between atoms: C_13  and  C_14
REMARK                            x       y       z     vdW  Elec       q    Type
REMARK                         _______ _______ _______ _____ _____    ______ ____
ROOT
ATOM      1  N   UNL     1       0.641  10.365  17.962  0.00  0.00    +0.000 N 
ATOM      2  C   UNL     1       1.270   9.297  18.640  0.00  0.00    +0.000 A 
ATOM      3  C   UNL     1       2.013   8.392  17.912  0.00  0.00    +0.000 A 
ATOM      4  C   UNL     1       2.495   7.283  18.587  0.00  0.00    +0.000 A 
ATOM      5  N   UNL     1       2.292   7.127  19.913  0.00  0.00    +0.000 NA
ATOM      6  C   UNL     1       1.615   8.087  20.539  0.00  0.00    +0.000 A 
ATOM      7  N   UNL     1       1.093   9.166  19.965  0.00  0.00    +0.000 NA
ATOM      8  H   UNL     1       1.335  11.016  17.612  0.00  0.00    +0.000 HD
ENDROOT
BRANCH   4   9
ATOM      9  C   UNL     1       3.210   6.187  17.905  0.00  0.00    +0.000 A 
ATOM     10  C   UNL     1       4.404   6.405  17.181  0.00  0.00    +0.000 A 
ATOM     11  C   UNL     1       5.085   5.368  16.544  0.00  0.00    +0.000 A 
ATOM     12  C   UNL     1       4.602   4.064  16.594  0.00  0.00    +0.000 A 
ATOM     13  C   UNL     1       3.411   3.841  17.296  0.00  0.00    +0.000 A 
ATOM     14  N   UNL     1       2.718   2.663  17.482  0.00  0.00    +0.000 N 
ATOM     15  C   UNL     1       1.595   2.888  18.229  0.00  0.00    +0.000 A 
ATOM     16  C   UNL     1       1.562   4.229  18.534  0.00  0.00    +0.000 A 
ATOM     17  C   UNL     1       2.706   4.856  17.945  0.00  0.00    +0.000 A 
ATOM     18  H   UNL     1       3.001   1.769  17.113  0.00  0.00    +0.000 HD
ENDBRANCH   4   9
BRANCH   1  22
ATOM     19  C   UNL     1      -2.905  12.177  19.397  0.00  0.00    +0.000 A 
ATOM     20  C   UNL     1      -2.965  11.039  18.586  0.00  0.00    +0.000 A 
ATOM     21  C   UNL     1      -1.797  10.436  18.105  0.00  0.00    +0.000 A 
ATOM     22  C   UNL     1      -0.548  10.986  18.400  0.00  0.00    +0.000 A 
ATOM     23  C   UNL     1      -0.507  12.117  19.229  0.00  0.00    +0.000 A 
ATOM     24  C   UNL     1      -1.669  12.737  19.680  0.00  0.00    +0.000 A 
BRANCH  19  25
ATOM     25  O   UNL     1      -4.103  12.665  19.816  0.00  0.00    +0.000 OA
BRANCH  25  27
ATOM     26  F   UNL     1      -3.480  12.155  22.013  0.00  0.00    +0.000 F 
ATOM     27  C   UNL     1      -4.341  12.817  21.212  0.00  0.00    +0.000 C 
ATOM     28  F   UNL     1      -5.584  12.355  21.485  0.00  0.00    +0.000 F 
ATOM     29  F   UNL     1      -4.301  14.129  21.529  0.00  0.00    +0.000 F 
ENDBRANCH  25  27
ENDBRANCH  19  25
ENDBRANCH   1  22
TORSDOF 4
ENDMDL
MODEL 4
REMARK VINA RESULT:      -8.5      1.135      2.066
REMARK  Name = 
REMARK  4 active torsions:
REMARK  status: ('A' for Active; 'I' for Inactive)
REMARK    1  A    between atoms: C_2  and  O_5
REMARK    2  A    between atoms: O_5  and  C_6
REMARK    3  A    between atoms: C_9  and  N_10
REMARK    4  A    between atoms: C_13  and  C_14
REMARK                            x       y       z     vdW  Elec       q    Type
REMARK                         _______ _______ _______ _____ _____    ______ ____
ROOT
ATOM      1  N   UNL     1       1.079   9.939  17.714  0.00  0.00    +0.000 N 
ATOM      2  C   UNL     1       1.715   8.867  18.378  0.00  0.00    +0.000 A 
ATOM      3  C   UNL     1       2.648   8.119  17.691  0.00  0.00    +0.000 A 
ATOM      4  C   UNL     1       3.144   6.992  18.326  0.00  0.00    +0.000 A 
ATOM      5  N   UNL     1       2.771   6.675  19.584  0.00  0.00    +0.000 NA
ATOM      6  C   UNL     1       1.913   7.495  20.187  0.00  0.00    +0.000 A 
ATOM      7  N   UNL     1       1.366   8.578  19.642  0.00  0.00    +0.000 NA
ATOM      8  H   UNL     1       1.742  10.686  17.537  0.00  0.00    +0.000 HD
ENDROOT
BRANCH   4   9
ATOM      9  C   UNL     1       4.063   6.047  17.662  0.00  0.00    +0.000 A 
ATOM     10  C   UNL     1       3.656   4.749  17.275  0.00  0.00    +0.000 A 
ATOM     11  C   UNL     1       4.522   3.859  16.641  0.00  0.00    +0.000 A 
ATOM     12  C   UNL     1       5.838   4.220  16.368  0.00  0.00    +0.000 A 
ATOM     13  C   UNL     1       6.254   5.497  16.761  0.00  0.00    +0.000 A 
ATOM     14  N   UNL     1       7.493   6.089  16.627  0.00  0.00    +0.000 N 
ATOM     15  C   UNL     1       7.474   7.351  17.153  0.00  0.00    +0.000 A 
ATOM     16  C   UNL     1       6.205   7.581  17.630  0.00  0.00    +0.000 A 
ATOM     17  C   UNL     1       5.413   6.412  17.397  0.00  0.00    +0.000 A 
ATOM     18  H   UNL     1       8.295   5.647  16.206  0.00  0.00    +0.000 HD
ENDBRANCH   4   9
BRANCH   1  22
ATOM     19  C   UNL     1      -2.830  11.356  18.509  0.00  0.00    +0.000 A 
ATOM     20  C   UNL     1      -1.712  12.047  18.986  0.00  0.00    +0.000 A 
ATOM     21  C   UNL     1      -0.415  11.583  18.729  0.00  0.00    +0.000 A 
ATOM     22  C   UNL     1      -0.220  10.397  18.021  0.00  0.00    +0.000 A 
ATOM     23  C   UNL     1      -1.353   9.726  17.535  0.00  0.00    +0.000 A 
ATOM     24  C   UNL     1      -2.643  10.168  17.818  0.00  0.00    +0.000 A 
BRANCH  19  25
ATOM     25  O   UNL     1      -4.036  11.909  18.807  0.00  0.00    +0.000 OA
BRANCH  25  27
ATOM     26  F   UNL     1      -4.585  12.094  16.540  0.00  0.00    +0.000 F 
ATOM     27  C   UNL     1      -5.043  11.960  17.803  0.00  0.00    +0.000 C 
ATOM     28  F   UNL     1      -5.845  13.020  18.056  0.00  0.00    +0.000 F 
ATOM     29  F   UNL     1      -5.795  10.839  17.871  0.00  0.00    +0.000 F 
ENDBRANCH  25  27
ENDBRANCH  19  25
ENDBRANCH   1  22
TORSDOF 4
ENDMDL
MODEL 5
REMARK VINA RESULT:      -8.5      0.662      1.136
REMARK  Name = 
REMARK  4 active torsions:
REMARK  status: ('A' for Active; 'I' for Inactive)
REMARK    1  A    between atoms: C_2  and  O_5
REMARK    2  A    between atoms: O_5  and  C_6
REMARK    3  A    between atoms: C_9  and  N_10
REMARK    4  A    between atoms: C_13  and  C_14
REMARK                            x       y       z     vdW  Elec       q    Type
REMARK                         _______ _______ _______ _____ _____    ______ ____
ROOT
ATOM      1  N   UNL     1       0.282  10.273  17.696  0.00  0.00    +0.000 N 
ATOM      2  C   UNL     1       0.993   9.324  18.464  0.00  0.00    +0.000 A 
ATOM      3  C   UNL     1       1.888   8.490  17.829  0.00  0.00    +0.000 A 
ATOM      4  C   UNL     1       2.458   7.481  18.588  0.00  0.00    +0.000 A 
ATOM      5  N   UNL     1       2.189   7.358  19.905  0.00  0.00    +0.000 NA
ATOM      6  C   UNL     1       1.359   8.251  20.440  0.00  0.00    +0.000 A 
ATOM      7  N   UNL     1       0.746   9.229  19.781  0.00  0.00    +0.000 NA
ATOM      8  H   UNL     1       0.912  10.991  17.355  0.00  0.00    +0.000 HD
ENDROOT
BRANCH   4   9
ATOM      9  C   UNL     1       3.347   6.456  18.007  0.00  0.00    +0.000 A 
ATOM     10  C   UNL     1       4.631   6.770  17.506  0.00  0.00    +0.000 A 
ATOM     11  C   UNL     1       5.474   5.801  16.965  0.00  0.00    +0.000 A 
ATOM     12  C   UNL     1       5.073   4.470  16.893  0.00  0.00    +0.000 A 
ATOM     13  C   UNL     1       3.797   4.151  17.373  0.00  0.00    +0.000 A 
ATOM     14  N   UNL     1       3.158   2.929  17.403  0.00  0.00    +0.000 N 
ATOM     15  C   UNL     1       1.913   3.060  17.951  0.00  0.00    +0.000 A 
ATOM     16  C   UNL     1       1.744   4.382  18.286  0.00  0.00    +0.000 A 
ATOM     17  C   UNL     1       2.929   5.098  17.921  0.00  0.00    +0.000 A 
ATOM     18  H   UNL     1       3.556   2.068  17.061  0.00  0.00    +0.000 HD
ENDBRANCH   4   9
BRANCH   1  22
ATOM     19  C   UNL     1      -3.552  11.672  18.818  0.00  0.00    +0.000 A 
ATOM     20  C   UNL     1      -3.417  10.561  17.978  0.00  0.00    +0.000 A 
ATOM     21  C   UNL     1      -2.152  10.094  17.600  0.00  0.00    +0.000 A 
ATOM     22  C   UNL     1      -1.001  10.757  18.029  0.00  0.00    +0.000 A 
ATOM     23  C   UNL     1      -1.155  11.858  18.885  0.00  0.00    +0.000 A 
ATOM     24  C   UNL     1      -2.412  12.343  19.233  0.00  0.00    +0.000 A 
BRANCH  19  25
ATOM     25  O   UNL     1      -4.828  12.023  19.128  0.00  0.00    +0.000 OA
BRANCH  25  27
ATOM     26  F   UNL     1      -5.298  12.647  16.922  0.00  0.00    +0.000 F 
ATOM     27  C   UNL     1      -5.785  12.158  18.082  0.00  0.00    +0.000 C 
ATOM     28  F   UNL     1      -6.757  13.002  18.499  0.00  0.00    +0.000 F 
ATOM     29  F   UNL     1      -6.349  10.955  17.839  0.00  0.00    +0.000 F 
ENDBRANCH  25  27
ENDBRANCH  19  25
ENDBRANCH   1  22
TORSDOF 4
ENDMDL
MODEL 6
REMARK VINA RESULT:      -8.4      1.665      1.857
REMARK  Name = 
REMARK  4 active torsions:
REMARK  status: ('A' for Active; 'I' for Inactive)
REMARK    1  A    between atoms: C_2  and  O_5
REMARK    2  A    between atoms: O_5  and  C_6
REMARK    3  A    between atoms: C_9  and  N_10
REMARK    4  A    between atoms: C_13  and  C_14
REMARK                            x       y       z     vdW  Elec       q    Type
REMARK                         _______ _______ _______ _____ _____    ______ ____
ROOT
ATOM      1  N   UNL     1       0.717  10.406  18.140  0.00  0.00    +0.000 N 
ATOM      2  C   UNL     1       1.313   9.297  18.781  0.00  0.00    +0.000 A 
ATOM      3  C   UNL     1       2.044   8.405  18.025  0.00  0.00    +0.000 A 
ATOM      4  C   UNL     1       2.491   7.258  18.660  0.00  0.00    +0.000 A 
ATOM      5  N   UNL     1       2.269   7.054  19.976  0.00  0.00    +0.000 NA
ATOM      6  C   UNL     1       1.608   8.004  20.634  0.00  0.00    +0.000 A 
ATOM      7  N   UNL     1       1.118   9.117  20.097  0.00  0.00    +0.000 NA
ATOM      8  H   UNL     1       1.430  11.054  17.824  0.00  0.00    +0.000 HD
ENDROOT
BRANCH   4   9
ATOM      9  C   UNL     1       3.189   6.174  17.943  0.00  0.00    +0.000 A 
ATOM     10  C   UNL     1       4.363   6.404  17.189  0.00  0.00    +0.000 A 
ATOM     11  C   UNL     1       5.027   5.379  16.518  0.00  0.00    +0.000 A 
ATOM     12  C   UNL     1       4.547   4.073  16.562  0.00  0.00    +0.000 A 
ATOM     13  C   UNL     1       3.376   3.838  17.293  0.00  0.00    +0.000 A 
ATOM     14  N   UNL     1       2.689   2.656  17.479  0.00  0.00    +0.000 N 
ATOM     15  C   UNL     1       1.587   2.868  18.260  0.00  0.00    +0.000 A 
ATOM     16  C   UNL     1       1.561   4.204  18.586  0.00  0.00    +0.000 A 
ATOM     17  C   UNL     1       2.688   4.842  17.975  0.00  0.00    +0.000 A 
ATOM     18  H   UNL     1       2.963   1.768  17.089  0.00  0.00    +0.000 HD
ENDBRANCH   4   9
BRANCH   1  22
ATOM     19  C   UNL     1      -2.840  12.345  19.366  0.00  0.00    +0.000 A 
ATOM     20  C   UNL     1      -1.589  12.866  19.714  0.00  0.00    +0.000 A 
ATOM     21  C   UNL     1      -0.408  12.228  19.314  0.00  0.00    +0.000 A 
ATOM     22  C   UNL     1      -0.462  11.037  18.590  0.00  0.00    +0.000 A 
ATOM     23  C   UNL     1      -1.725  10.539  18.234  0.00  0.00    +0.000 A 
ATOM     24  C   UNL     1      -2.900  11.153  18.660  0.00  0.00    +0.000 A 
BRANCH  19  25
ATOM     25  O   UNL     1      -3.915  13.058  19.796  0.00  0.00    +0.000 OA
BRANCH  25  27
ATOM     26  F   UNL     1      -5.565  11.895  20.979  0.00  0.00    +0.000 F 
ATOM     27  C   UNL     1      -4.508  12.731  21.049  0.00  0.00    +0.000 C 
ATOM     28  F   UNL     1      -4.936  13.875  21.631  0.00  0.00    +0.000 F 
ATOM     29  F   UNL     1      -3.573  12.176  21.851  0.00  0.00    +0.000 F 
ENDBRANCH  25  27
ENDBRANCH  19  25
ENDBRANCH   1  22
TORSDOF 4
ENDMDL
MODEL 7
REMARK VINA RESULT:      -8.3      0.219      1.191
REMARK  Name = 
REMARK  4 active torsions:
REMARK  status: ('A' for Active; 'I' for Inactive)
REMARK    1  A    between atoms: C_2  and  O_5
REMARK    2  A    between atoms: O_5  and  C_6
REMARK    3  A    between atoms: C_9  and  N_10
REMARK    4  A    between atoms: C_13  and  C_14
REMARK                            x       y       z     vdW  Elec       q    Type
REMARK                         _______ _______ _______ _____ _____    ______ ____
ROOT
ATOM      1  N   UNL     1       0.978  10.183  17.694  0.00  0.00    +0.000 N 
ATOM      2  C   UNL     1       1.605   9.110  18.367  0.00  0.00    +0.000 A 
ATOM      3  C   UNL     1       2.533   8.351  17.688  0.00  0.00    +0.000 A 
ATOM      4  C   UNL     1       3.020   7.225  18.331  0.00  0.00    +0.000 A 
ATOM      5  N   UNL     1       2.641   6.919  19.591  0.00  0.00    +0.000 NA
ATOM      6  C   UNL     1       1.787   7.750  20.185  0.00  0.00    +0.000 A 
ATOM      7  N   UNL     1       1.250   8.833  19.631  0.00  0.00    +0.000 NA
ATOM      8  H   UNL     1       1.647  10.924  17.514  0.00  0.00    +0.000 HD
ENDROOT
BRANCH   4   9
ATOM      9  C   UNL     1       3.933   6.269  17.677  0.00  0.00    +0.000 A 
ATOM     10  C   UNL     1       5.026   6.692  16.886  0.00  0.00    +0.000 A 
ATOM     11  C   UNL     1       5.894   5.789  16.275  0.00  0.00    +0.000 A 
ATOM     12  C   UNL     1       5.709   4.417  16.419  0.00  0.00    +0.000 A 
ATOM     13  C   UNL     1       4.621   3.988  17.188  0.00  0.00    +0.000 A 
ATOM     14  N   UNL     1       4.209   2.701  17.471  0.00  0.00    +0.000 N 
ATOM     15  C   UNL     1       3.091   2.726  18.256  0.00  0.00    +0.000 A 
ATOM     16  C   UNL     1       2.776   4.044  18.489  0.00  0.00    +0.000 A 
ATOM     17  C   UNL     1       3.734   4.865  17.813  0.00  0.00    +0.000 A 
ATOM     18  H   UNL     1       4.668   1.868  17.137  0.00  0.00    +0.000 HD
ENDBRANCH   4   9
BRANCH   1  22
ATOM     19  C   UNL     1      -2.894  11.551  18.719  0.00  0.00    +0.000 A 
ATOM     20  C   UNL     1      -2.727  10.373  17.984  0.00  0.00    +0.000 A 
ATOM     21  C   UNL     1      -1.449   9.915  17.639  0.00  0.00    +0.000 A 
ATOM     22  C   UNL     1      -0.318  10.653  17.993  0.00  0.00    +0.000 A 
ATOM     23  C   UNL     1      -0.505  11.822  18.745  0.00  0.00    +0.000 A 
ATOM     24  C   UNL     1      -1.776  12.296  19.060  0.00  0.00    +0.000 A 
BRANCH  19  25
ATOM     25  O   UNL     1      -4.180  11.887  19.008  0.00  0.00    +0.000 OA
BRANCH  25  27
ATOM     26  F   UNL     1      -5.841  10.769  17.798  0.00  0.00    +0.000 F 
ATOM     27  C   UNL     1      -5.143  11.912  17.959  0.00  0.00    +0.000 C 
ATOM     28  F   UNL     1      -4.500  12.161  16.795  0.00  0.00    +0.000 F 
ATOM     29  F   UNL     1      -6.014  12.920  18.182  0.00  0.00    +0.000 F 
ENDBRANCH  25  27
ENDBRANCH  19  25
ENDBRANCH   1  22
TORSDOF 4
ENDMDL
MODEL 8
REMARK VINA RESULT:      -8.2      1.844      2.799
REMARK  Name = 
REMARK  4 active torsions:
REMARK  status: ('A' for Active; 'I' for Inactive)
REMARK    1  A    between atoms: C_2  and  O_5
REMARK    2  A    between atoms: O_5  and  C_6
REMARK    3  A    between atoms: C_9  and  N_10
REMARK    4  A    between atoms: C_13  and  C_14
REMARK                            x       y       z     vdW  Elec       q    Type
REMARK                         _______ _______ _______ _____ _____    ______ ____
ROOT
ATOM      1  N   UNL     1       0.877  10.241  18.032  0.00  0.00    +0.000 N 
ATOM      2  C   UNL     1       1.419   9.131  18.718  0.00  0.00    +0.000 A 
ATOM      3  C   UNL     1       2.088   8.165  17.997  0.00  0.00    +0.000 A 
ATOM      4  C   UNL     1       2.479   7.026  18.680  0.00  0.00    +0.000 A 
ATOM      5  N   UNL     1       2.263   6.895  20.007  0.00  0.00    +0.000 NA
ATOM      6  C   UNL     1       1.665   7.910  20.626  0.00  0.00    +0.000 A 
ATOM      7  N   UNL     1       1.231   9.024  20.043  0.00  0.00    +0.000 NA
ATOM      8  H   UNL     1       1.622  10.833  17.679  0.00  0.00    +0.000 HD
ENDROOT
BRANCH   4   9
ATOM      9  C   UNL     1       3.105   5.872  18.007  0.00  0.00    +0.000 A 
ATOM     10  C   UNL     1       2.430   4.641  17.840  0.00  0.00    +0.000 A 
ATOM     11  C   UNL     1       3.018   3.553  17.196  0.00  0.00    +0.000 A 
ATOM     12  C   UNL     1       4.313   3.640  16.694  0.00  0.00    +0.000 A 
ATOM     13  C   UNL     1       4.996   4.850  16.868  0.00  0.00    +0.000 A 
ATOM     14  N   UNL     1       6.278   5.189  16.486  0.00  0.00    +0.000 N 
ATOM     15  C   UNL     1       6.556   6.476  16.856  0.00  0.00    +0.000 A 
ATOM     16  C   UNL     1       5.440   6.977  17.482  0.00  0.00    +0.000 A 
ATOM     17  C   UNL     1       4.436   5.957  17.507  0.00  0.00    +0.000 A 
ATOM     18  H   UNL     1       6.914   4.571  16.008  0.00  0.00    +0.000 HD
ENDBRANCH   4   9
BRANCH   1  22
ATOM     19  C   UNL     1      -2.508  12.349  19.452  0.00  0.00    +0.000 A 
ATOM     20  C   UNL     1      -2.660  11.158  18.734  0.00  0.00    +0.000 A 
ATOM     21  C   UNL     1      -1.545  10.457  18.258  0.00  0.00    +0.000 A 
ATOM     22  C   UNL     1      -0.259  10.958  18.464  0.00  0.00    +0.000 A 
ATOM     23  C   UNL     1      -0.124  12.144  19.202  0.00  0.00    +0.000 A 
ATOM     24  C   UNL     1      -1.233  12.860  19.645  0.00  0.00    +0.000 A 
BRANCH  19  25
ATOM     25  O   UNL     1      -3.660  12.932  19.876  0.00  0.00    +0.000 OA
BRANCH  25  27
ATOM     26  F   UNL     1      -3.163  12.138  22.020  0.00  0.00    +0.000 F 
ATOM     27  C   UNL     1      -4.016  12.849  21.252  0.00  0.00    +0.000 C 
ATOM     28  F   UNL     1      -5.230  12.261  21.344  0.00  0.00    +0.000 F 
ATOM     29  F   UNL     1      -4.114  14.097  21.760  0.00  0.00    +0.000 F 
ENDBRANCH  25  27
ENDBRANCH  19  25
ENDBRANCH   1  22
TORSDOF 4
ENDMDL
MODEL 9
REMARK VINA RESULT:      -8.1      5.402      9.417
REMARK  Name = 
REMARK  4 active torsions:
REMARK  status: ('A' for Active; 'I' for Inactive)
REMARK    1  A    between atoms: C_2  and  O_5
REMARK    2  A    between atoms: O_5  and  C_6
REMARK    3  A    between atoms: C_9  and  N_10
REMARK    4  A    between atoms: C_13  and  C_14
REMARK                            x       y       z     vdW  Elec       q    Type
REMARK                         _______ _______ _______ _____ _____    ______ ____
ROOT
ATOM      1  N   UNL     1       1.769   7.273  20.910  0.00  0.00    +0.000 N 
ATOM      2  C   UNL     1       1.436   8.342  20.047  0.00  0.00    +0.000 A 
ATOM      3  C   UNL     1       0.526   9.284  20.477  0.00  0.00    +0.000 A 
ATOM      4  C   UNL     1       0.118  10.234  19.555  0.00  0.00    +0.000 A 
ATOM      5  N   UNL     1       0.634  10.267  18.308  0.00  0.00    +0.000 NA
ATOM      6  C   UNL     1       1.554   9.352  18.009  0.00  0.00    +0.000 A 
ATOM      7  N   UNL     1       1.979   8.389  18.821  0.00  0.00    +0.000 NA
ATOM      8  H   UNL     1       2.298   7.615  21.704  0.00  0.00    +0.000 HD
ENDROOT
BRANCH   4   9
ATOM      9  C   UNL     1      -0.929  11.230  19.851  0.00  0.00    +0.000 A 
ATOM     10  C   UNL     1      -0.822  12.137  20.931  0.00  0.00    +0.000 A 
ATOM     11  C   UNL     1      -1.807  13.084  21.206  0.00  0.00    +0.000 A 
ATOM     12  C   UNL     1      -2.952  13.167  20.419  0.00  0.00    +0.000 A 
ATOM     13  C   UNL     1      -3.075  12.264  19.357  0.00  0.00    +0.000 A 
ATOM     14  N   UNL     1      -4.103  12.124  18.448  0.00  0.00    +0.000 N 
ATOM     15  C   UNL     1      -3.826  11.110  17.573  0.00  0.00    +0.000 A 
ATOM     16  C   UNL     1      -2.602  10.589  17.917  0.00  0.00    +0.000 A 
ATOM     17  C   UNL     1      -2.107  11.304  19.055  0.00  0.00    +0.000 A 
ATOM     18  H   UNL     1      -4.939  12.687  18.439  0.00  0.00    +0.000 HD
ENDBRANCH   4   9
BRANCH   1  22
ATOM     19  C   UNL     1       3.011   3.412  19.698  0.00  0.00    +0.000 A 
ATOM     20  C   UNL     1       3.857   4.515  19.539  0.00  0.00    +0.000 A 
ATOM     21  C   UNL     1       3.452   5.796  19.935  0.00  0.00    +0.000 A 
ATOM     22  C   UNL     1       2.176   5.998  20.464  0.00  0.00    +0.000 A 
ATOM     23  C   UNL     1       1.348   4.878  20.632  0.00  0.00    +0.000 A 
ATOM     24  C   UNL     1       1.737   3.610  20.208  0.00  0.00    +0.000 A 
BRANCH  19  25
ATOM     25  O   UNL     1       3.518   2.218  19.292  0.00  0.00    +0.000 OA
BRANCH  25  27
ATOM     26  F   UNL     1       2.253   1.871  17.354  0.00  0.00    +0.000 F 
ATOM     27  C   UNL     1       3.484   1.884  17.909  0.00  0.00    +0.000 C 
ATOM     28  F   UNL     1       4.009   0.646  17.755  0.00  0.00    +0.000 F 
ATOM     29  F   UNL     1       4.256   2.755  17.223  0.00  0.00    +0.000 F 
ENDBRANCH  25  27
ENDBRANCH  19  25
ENDBRANCH   1  22
TORSDOF 4
ENDMDL
