MODEL 1
REMARK VINA RESULT:      -8.0      0.000      0.000
REMARK  Name = 
REMARK  7 active torsions:
REMARK  status: ('A' for Active; 'I' for Inactive)
REMARK    1  A    between atoms: C_1  and  C_2
REMARK    2  A    between atoms: C_2  and  N_3
REMARK    3  A    between atoms: C_8  and  C_9
REMARK    4  A    between atoms: N_13  and  C_14
REMARK    5  A    between atoms: C_14  and  C_15
REMARK    6  A    between atoms: C_15  and  N_16
REMARK    7  A    between atoms: N_16  and  C_17
REMARK                            x       y       z     vdW  Elec       q    Type
REMARK                         _______ _______ _______ _____ _____    ______ ____
ROOT
ATOM      1  C   UNL     1       2.100   4.500  20.569  0.00  0.00    +0.000 A 
ATOM      2  C   UNL     1       2.461   4.042  21.825  0.00  0.00    +0.000 A 
ATOM      3  N   UNL     1       2.673   2.711  21.777  0.00  0.00    +0.000 NA
ATOM      4  C   UNL     1       2.463   2.381  20.488  0.00  0.00    +0.000 A 
ATOM      5  N   UNL     1       2.121   3.441  19.724  0.00  0.00    +0.000 N 
ENDROOT
BRANCH   1  11
ATOM      6  N   UNL     1       1.361   9.972  19.313  0.00  0.00    +0.000 N 
ATOM      7  C   UNL     1       2.114  10.123  18.086  0.00  0.00    +0.000 C 
ATOM      8  C   UNL     1       2.416   8.679  17.613  0.00  0.00    +0.000 C 
ATOM      9  C   UNL     1       2.053   7.859  18.804  0.00  0.00    +0.000 A 
ATOM     10  C   UNL     1       2.242   6.495  19.005  0.00  0.00    +0.000 A 
ATOM     11  C   UNL     1       1.833   5.921  20.228  0.00  0.00    +0.000 A 
ATOM     12  C   UNL     1       1.183   6.736  21.187  0.00  0.00    +0.000 A 
ATOM     13  C   UNL     1       0.988   8.104  20.950  0.00  0.00    +0.000 A 
ATOM     14  C   UNL     1       1.443   8.639  19.744  0.00  0.00    +0.000 A 
BRANCH   6  16
ATOM     15  C   UNL     1      -0.622  11.316  19.885  0.00  0.00    +0.000 C 
ATOM     16  C   UNL     1       0.866  11.075  20.113  0.00  0.00    +0.000 C 
ENDBRANCH   6  16
ENDBRANCH   1  11
BRANCH   5  17
ATOM     17  C   UNL     1       1.904   3.367  18.269  0.00  0.00    +0.000 C 
BRANCH  17  18
ATOM     18  C   UNL     1       2.913   2.434  17.564  0.00  0.00    +0.000 C 
BRANCH  18  19
ATOM     19  N   UNL     1       4.310   2.873  17.738  0.00  0.00    +0.000 NA
ATOM     20  H   UNL     1       4.885   2.281  17.091  0.00  0.00    +0.000 HD
BRANCH  19  21
ATOM     21  C   UNL     1       4.489   4.281  17.308  0.00  0.00    +0.000 C 
ATOM     22  C   UNL     1       4.812   4.320  15.783  0.00  0.00    +0.000 C 
ATOM     23  C   UNL     1       6.267   3.874  15.585  0.00  0.00    +0.000 C 
ATOM     24  S   UNL     1       7.036   4.813  16.884  0.00  0.00    +0.000 S 
ATOM     25  O   UNL     1       7.485   6.182  16.349  0.00  0.00    +0.000 OA
ATOM     26  O   UNL     1       8.307   4.182  17.473  0.00  0.00    +0.000 OA
ATOM     27  C   UNL     1       5.669   5.008  18.031  0.00  0.00    +0.000 C 
ENDBRANCH  19  21
ENDBRANCH  18  19
ENDBRANCH  17  18
ENDBRANCH   5  17
TORSDOF 6
ENDMDL
MODEL 2
REMARK VINA RESULT:      -7.9      1.814      2.957
REMARK  Name = 
REMARK  7 active torsions:
REMARK  status: ('A' for Active; 'I' for Inactive)
REMARK    1  A    between atoms: C_1  and  C_2
REMARK    2  A    between atoms: C_2  and  N_3
REMARK    3  A    between atoms: C_8  and  C_9
REMARK    4  A    between atoms: N_13  and  C_14
REMARK    5  A    between atoms: C_14  and  C_15
REMARK    6  A    between atoms: C_15  and  N_16
REMARK    7  A    between atoms: N_16  and  C_17
REMARK                            x       y       z     vdW  Elec       q    Type
REMARK                         _______ _______ _______ _____ _____    ______ ____
ROOT
ATOM      1  C   UNL     1       2.363   5.234  18.391  0.00  0.00    +0.000 A 
ATOM      2  C   UNL     1       1.592   4.525  17.486  0.00  0.00    +0.000 A 
ATOM      3  N   UNL     1       2.079   3.274  17.359  0.00  0.00    +0.000 NA
ATOM      4  C   UNL     1       3.125   3.230  18.207  0.00  0.00    +0.000 A 
ATOM      5  N   UNL     1       3.324   4.398  18.856  0.00  0.00    +0.000 N 
ENDROOT
BRANCH   1  11
ATOM      6  N   UNL     1       1.082  10.496  20.042  0.00  0.00    +0.000 N 
ATOM      7  C   UNL     1       0.634  10.304  21.405  0.00  0.00    +0.000 C 
ATOM      8  C   UNL     1       1.062   8.861  21.774  0.00  0.00    +0.000 C 
ATOM      9  C   UNL     1       1.444   8.283  20.454  0.00  0.00    +0.000 A 
ATOM     10  C   UNL     1       1.785   6.968  20.153  0.00  0.00    +0.000 A 
ATOM     11  C   UNL     1       2.100   6.632  18.819  0.00  0.00    +0.000 A 
ATOM     12  C   UNL     1       2.125   7.655  17.840  0.00  0.00    +0.000 A 
ATOM     13  C   UNL     1       1.797   8.976  18.175  0.00  0.00    +0.000 A 
ATOM     14  C   UNL     1       1.453   9.257  19.499  0.00  0.00    +0.000 A 
BRANCH   6  16
ATOM     15  C   UNL     1      -0.574  11.920  18.902  0.00  0.00    +0.000 C 
ATOM     16  C   UNL     1       0.889  11.714  19.280  0.00  0.00    +0.000 C 
ENDBRANCH   6  16
ENDBRANCH   1  11
BRANCH   5  17
ATOM     17  C   UNL     1       4.355   4.598  19.887  0.00  0.00    +0.000 C 
BRANCH  17  18
ATOM     18  C   UNL     1       5.780   4.303  19.367  0.00  0.00    +0.000 C 
BRANCH  18  19
ATOM     19  N   UNL     1       6.732   5.388  19.674  0.00  0.00    +0.000 NA
ATOM     20  H   UNL     1       7.237   5.095  20.544  0.00  0.00    +0.000 HD
BRANCH  19  21
ATOM     21  C   UNL     1       7.752   5.524  18.607  0.00  0.00    +0.000 C 
ATOM     22  C   UNL     1       7.665   6.952  17.986  0.00  0.00    +0.000 C 
ATOM     23  C   UNL     1       6.429   7.009  17.076  0.00  0.00    +0.000 C 
ATOM     24  S   UNL     1       6.626   5.462  16.224  0.00  0.00    +0.000 S 
ATOM     25  O   UNL     1       7.456   5.667  14.945  0.00  0.00    +0.000 OA
ATOM     26  O   UNL     1       5.318   4.815  15.746  0.00  0.00    +0.000 OA
ATOM     27  C   UNL     1       7.561   4.514  17.429  0.00  0.00    +0.000 C 
ENDBRANCH  19  21
ENDBRANCH  18  19
ENDBRANCH  17  18
ENDBRANCH   5  17
TORSDOF 6
ENDMDL
MODEL 3
REMARK VINA RESULT:      -7.7      1.517      2.395
REMARK  Name = 
REMARK  7 active torsions:
REMARK  status: ('A' for Active; 'I' for Inactive)
REMARK    1  A    between atoms: C_1  and  C_2
REMARK    2  A    between atoms: C_2  and  N_3
REMARK    3  A    between atoms: C_8  and  C_9
REMARK    4  A    between atoms: N_13  and  C_14
REMARK    5  A    between atoms: C_14  and  C_15
REMARK    6  A    between atoms: C_15  and  N_16
REMARK    7  A    between atoms: N_16  and  C_17
REMARK                            x       y       z     vdW  Elec       q    Type
REMARK                         _______ _______ _______ _____ _____    ______ ____
ROOT
ATOM      1  C   UNL     1       2.108   4.471  19.909  0.00  0.00    +0.000 A 
ATOM      2  C   UNL     1       1.371   3.727  20.815  0.00  0.00    +0.000 A 
ATOM      3  N   UNL     1       1.731   2.430  20.735  0.00  0.00    +0.000 NA
ATOM      4  C   UNL     1       2.701   2.405  19.800  0.00  0.00    +0.000 A 
ATOM      5  N   UNL     1       2.962   3.625  19.281  0.00  0.00    +0.000 N 
ENDROOT
BRANCH   1  11
ATOM      6  N   UNL     1       1.474  10.060  19.268  0.00  0.00    +0.000 N 
ATOM      7  C   UNL     1       0.778  10.445  20.478  0.00  0.00    +0.000 C 
ATOM      8  C   UNL     1       0.889   9.218  21.418  0.00  0.00    +0.000 C 
ATOM      9  C   UNL     1       1.383   8.148  20.506  0.00  0.00    +0.000 A 
ATOM     10  C   UNL     1       1.543   6.791  20.772  0.00  0.00    +0.000 A 
ATOM     11  C   UNL     1       2.016   5.944  19.746  0.00  0.00    +0.000 A 
ATOM     12  C   UNL     1       2.376   6.511  18.498  0.00  0.00    +0.000 A 
ATOM     13  C   UNL     1       2.224   7.884  18.265  0.00  0.00    +0.000 A 
ATOM     14  C   UNL     1       1.715   8.679  19.293  0.00  0.00    +0.000 A 
BRANCH   6  16
ATOM     15  C   UNL     1       2.173  12.282  18.466  0.00  0.00    +0.000 C 
ATOM     16  C   UNL     1       1.619  10.909  18.102  0.00  0.00    +0.000 C 
ENDBRANCH   6  16
ENDBRANCH   1  11
BRANCH   5  17
ATOM     17  C   UNL     1       4.021   3.887  18.294  0.00  0.00    +0.000 C 
BRANCH  17  18
ATOM     18  C   UNL     1       5.420   4.004  18.939  0.00  0.00    +0.000 C 
BRANCH  18  19
ATOM     19  N   UNL     1       5.844   5.405  19.125  0.00  0.00    +0.000 NA
ATOM     20  H   UNL     1       6.122   5.494  20.131  0.00  0.00    +0.000 HD
BRANCH  19  21
ATOM     21  C   UNL     1       7.046   5.715  18.315  0.00  0.00    +0.000 C 
ATOM     22  C   UNL     1       6.766   6.969  17.431  0.00  0.00    +0.000 C 
ATOM     23  C   UNL     1       5.855   6.549  16.269  0.00  0.00    +0.000 C 
ATOM     24  S   UNL     1       6.671   5.043  15.793  0.00  0.00    +0.000 S 
ATOM     25  O   UNL     1       7.736   5.337  14.724  0.00  0.00    +0.000 OA
ATOM     26  O   UNL     1       5.757   3.984  15.159  0.00  0.00    +0.000 OA
ATOM     27  C   UNL     1       7.452   4.564  17.337  0.00  0.00    +0.000 C 
ENDBRANCH  19  21
ENDBRANCH  18  19
ENDBRANCH  17  18
ENDBRANCH   5  17
TORSDOF 6
ENDMDL
MODEL 4
REMARK VINA RESULT:      -7.7      0.708      1.611
REMARK  Name = 
REMARK  7 active torsions:
REMARK  status: ('A' for Active; 'I' for Inactive)
REMARK    1  A    between atoms: C_1  and  C_2
REMARK    2  A    between atoms: C_2  and  N_3
REMARK    3  A    between atoms: C_8  and  C_9
REMARK    4  A    between atoms: N_13  and  C_14
REMARK    5  A    between atoms: C_14  and  C_15
REMARK    6  A    between atoms: C_15  and  N_16
REMARK    7  A    between atoms: N_16  and  C_17
REMARK                            x       y       z     vdW  Elec       q    Type
REMARK                         _______ _______ _______ _____ _____    ______ ____
ROOT
ATOM      1  C   UNL     1       1.985   4.651  20.423  0.00  0.00    +0.000 A 
ATOM      2  C   UNL     1       2.300   3.993  21.600  0.00  0.00    +0.000 A 
ATOM      3  N   UNL     1       2.410   2.670  21.364  0.00  0.00    +0.000 NA
ATOM      4  C   UNL     1       2.186   2.543  20.042  0.00  0.00    +0.000 A 
ATOM      5  N   UNL     1       1.932   3.723  19.436  0.00  0.00    +0.000 N 
ENDROOT
BRANCH   1  11
ATOM      6  N   UNL     1       1.119  10.216  19.841  0.00  0.00    +0.000 N 
ATOM      7  C   UNL     1       0.231  10.519  20.944  0.00  0.00    +0.000 C 
ATOM      8  C   UNL     1       0.275   9.268  21.858  0.00  0.00    +0.000 C 
ATOM      9  C   UNL     1       0.962   8.259  21.002  0.00  0.00    +0.000 A 
ATOM     10  C   UNL     1       1.161   6.905  21.253  0.00  0.00    +0.000 A 
ATOM     11  C   UNL     1       1.830   6.122  20.287  0.00  0.00    +0.000 A 
ATOM     12  C   UNL     1       2.336   6.751  19.123  0.00  0.00    +0.000 A 
ATOM     13  C   UNL     1       2.137   8.121  18.905  0.00  0.00    +0.000 A 
ATOM     14  C   UNL     1       1.436   8.850  19.867  0.00  0.00    +0.000 A 
BRANCH   6  16
ATOM     15  C   UNL     1       0.333  12.212  18.632  0.00  0.00    +0.000 C 
ATOM     16  C   UNL     1       1.383  11.111  18.733  0.00  0.00    +0.000 C 
ENDBRANCH   6  16
ENDBRANCH   1  11
BRANCH   5  17
ATOM     17  C   UNL     1       1.721   3.873  17.987  0.00  0.00    +0.000 C 
BRANCH  17  18
ATOM     18  C   UNL     1       2.676   2.990  17.153  0.00  0.00    +0.000 C 
BRANCH  18  19
ATOM     19  N   UNL     1       4.097   3.295  17.405  0.00  0.00    +0.000 NA
ATOM     20  H   UNL     1       4.648   2.617  16.825  0.00  0.00    +0.000 HD
BRANCH  19  21
ATOM     21  C   UNL     1       4.447   4.655  16.929  0.00  0.00    +0.000 C 
ATOM     22  C   UNL     1       4.887   4.583  15.434  0.00  0.00    +0.000 C 
ATOM     23  C   UNL     1       6.302   3.990  15.374  0.00  0.00    +0.000 C 
ATOM     24  S   UNL     1       7.060   4.917  16.688  0.00  0.00    +0.000 S 
ATOM     25  O   UNL     1       7.683   6.207  16.131  0.00  0.00    +0.000 OA
ATOM     26  O   UNL     1       8.213   4.199  17.405  0.00  0.00    +0.000 OA
ATOM     27  C   UNL     1       5.636   5.302  17.711  0.00  0.00    +0.000 C 
ENDBRANCH  19  21
ENDBRANCH  18  19
ENDBRANCH  17  18
ENDBRANCH   5  17
TORSDOF 6
ENDMDL
MODEL 5
REMARK VINA RESULT:      -7.7      3.015      4.694
REMARK  Name = 
REMARK  7 active torsions:
REMARK  status: ('A' for Active; 'I' for Inactive)
REMARK    1  A    between atoms: C_1  and  C_2
REMARK    2  A    between atoms: C_2  and  N_3
REMARK    3  A    between atoms: C_8  and  C_9
REMARK    4  A    between atoms: N_13  and  C_14
REMARK    5  A    between atoms: C_14  and  C_15
REMARK    6  A    between atoms: C_15  and  N_16
REMARK    7  A    between atoms: N_16  and  C_17
REMARK                            x       y       z     vdW  Elec       q    Type
REMARK                         _______ _______ _______ _____ _____    ______ ____
ROOT
ATOM      1  C   UNL     1       5.216   6.359  17.227  0.00  0.00    +0.000 A 
ATOM      2  C   UNL     1       6.460   6.963  17.153  0.00  0.00    +0.000 A 
ATOM      3  N   UNL     1       7.297   6.191  16.431  0.00  0.00    +0.000 NA
ATOM      4  C   UNL     1       6.545   5.140  16.052  0.00  0.00    +0.000 A 
ATOM      5  N   UNL     1       5.276   5.210  16.509  0.00  0.00    +0.000 N 
ENDROOT
BRANCH   1  11
ATOM      6  N   UNL     1       0.853   8.787  19.896  0.00  0.00    +0.000 N 
ATOM      7  C   UNL     1       0.667  10.015  19.153  0.00  0.00    +0.000 C 
ATOM      8  C   UNL     1       1.507   9.842  17.862  0.00  0.00    +0.000 C 
ATOM      9  C   UNL     1       2.329   8.636  18.164  0.00  0.00    +0.000 A 
ATOM     10  C   UNL     1       3.367   8.088  17.416  0.00  0.00    +0.000 A 
ATOM     11  C   UNL     1       4.028   6.940  17.902  0.00  0.00    +0.000 A 
ATOM     12  C   UNL     1       3.572   6.340  19.102  0.00  0.00    +0.000 A 
ATOM     13  C   UNL     1       2.511   6.902  19.825  0.00  0.00    +0.000 A 
ATOM     14  C   UNL     1       1.911   8.061  19.329  0.00  0.00    +0.000 A 
BRANCH   6  16
ATOM     15  C   UNL     1       1.006   9.181  22.322  0.00  0.00    +0.000 C 
ATOM     16  C   UNL     1       0.248   8.508  21.183  0.00  0.00    +0.000 C 
ENDBRANCH   6  16
ENDBRANCH   1  11
BRANCH   5  17
ATOM     17  C   UNL     1       4.231   4.226  16.183  0.00  0.00    +0.000 C 
BRANCH  17  18
ATOM     18  C   UNL     1       3.827   3.361  17.398  0.00  0.00    +0.000 C 
BRANCH  18  19
ATOM     19  N   UNL     1       2.365   3.234  17.544  0.00  0.00    +0.000 NA
ATOM     20  H   UNL     1       2.003   2.935  16.606  0.00  0.00    +0.000 HD
BRANCH  19  21
ATOM     21  C   UNL     1       2.012   2.160  18.504  0.00  0.00    +0.000 C 
ATOM     22  C   UNL     1       0.555   2.379  19.014  0.00  0.00    +0.000 C 
ATOM     23  C   UNL     1       0.564   3.540  20.020  0.00  0.00    +0.000 C 
ATOM     24  S   UNL     1       1.993   3.085  20.973  0.00  0.00    +0.000 S 
ATOM     25  O   UNL     1       1.577   2.193  22.154  0.00  0.00    +0.000 OA
ATOM     26  O   UNL     1       2.746   4.261  21.612  0.00  0.00    +0.000 OA
ATOM     27  C   UNL     1       2.928   2.133  19.771  0.00  0.00    +0.000 C 
ENDBRANCH  19  21
ENDBRANCH  18  19
ENDBRANCH  17  18
ENDBRANCH   5  17
TORSDOF 6
ENDMDL
MODEL 6
REMARK VINA RESULT:      -7.7      1.471      1.926
REMARK  Name = 
REMARK  7 active torsions:
REMARK  status: ('A' for Active; 'I' for Inactive)
REMARK    1  A    between atoms: C_1  and  C_2
REMARK    2  A    between atoms: C_2  and  N_3
REMARK    3  A    between atoms: C_8  and  C_9
REMARK    4  A    between atoms: N_13  and  C_14
REMARK    5  A    between atoms: C_14  and  C_15
REMARK    6  A    between atoms: C_15  and  N_16
REMARK    7  A    between atoms: N_16  and  C_17
REMARK                            x       y       z     vdW  Elec       q    Type
REMARK                         _______ _______ _______ _____ _____    ______ ____
ROOT
ATOM      1  C   UNL     1       2.460   4.515  20.440  0.00  0.00    +0.000 A 
ATOM      2  C   UNL     1       1.957   3.773  21.494  0.00  0.00    +0.000 A 
ATOM      3  N   UNL     1       2.539   2.556  21.510  0.00  0.00    +0.000 NA
ATOM      4  C   UNL     1       3.407   2.584  20.481  0.00  0.00    +0.000 A 
ATOM      5  N   UNL     1       3.393   3.758  19.813  0.00  0.00    +0.000 N 
ENDROOT
BRANCH   1  11
ATOM      6  N   UNL     1       1.313   9.945  19.317  0.00  0.00    +0.000 N 
ATOM      7  C   UNL     1       2.009  10.168  18.067  0.00  0.00    +0.000 C 
ATOM      8  C   UNL     1       2.389   8.756  17.556  0.00  0.00    +0.000 C 
ATOM      9  C   UNL     1       2.125   7.893  18.743  0.00  0.00    +0.000 A 
ATOM     10  C   UNL     1       2.412   6.542  18.910  0.00  0.00    +0.000 A 
ATOM     11  C   UNL     1       2.087   5.920  20.136  0.00  0.00    +0.000 A 
ATOM     12  C   UNL     1       1.420   6.674  21.133  0.00  0.00    +0.000 A 
ATOM     13  C   UNL     1       1.125   8.029  20.929  0.00  0.00    +0.000 A 
ATOM     14  C   UNL     1       1.499   8.614  19.718  0.00  0.00    +0.000 A 
BRANCH   6  16
ATOM     15  C   UNL     1       1.202  12.380  19.670  0.00  0.00    +0.000 C 
ATOM     16  C   UNL     1       0.776  10.999  20.154  0.00  0.00    +0.000 C 
ENDBRANCH   6  16
ENDBRANCH   1  11
BRANCH   5  17
ATOM     17  C   UNL     1       4.293   4.074  18.691  0.00  0.00    +0.000 C 
BRANCH  17  18
ATOM     18  C   UNL     1       5.777   4.136  19.118  0.00  0.00    +0.000 C 
BRANCH  18  19
ATOM     19  N   UNL     1       6.273   5.519  19.250  0.00  0.00    +0.000 NA
ATOM     20  H   UNL     1       6.688   5.590  20.210  0.00  0.00    +0.000 HD
BRANCH  19  21
ATOM     21  C   UNL     1       7.366   5.791  18.286  0.00  0.00    +0.000 C 
ATOM     22  C   UNL     1       6.990   7.028  17.413  0.00  0.00    +0.000 C 
ATOM     23  C   UNL     1       5.934   6.593  16.387  0.00  0.00    +0.000 C 
ATOM     24  S   UNL     1       6.666   5.064  15.850  0.00  0.00    +0.000 S 
ATOM     25  O   UNL     1       7.590   5.316  14.647  0.00  0.00    +0.000 OA
ATOM     26  O   UNL     1       5.666   4.004  15.365  0.00  0.00    +0.000 OA
ATOM     27  C   UNL     1       7.631   4.612  17.295  0.00  0.00    +0.000 C 
ENDBRANCH  19  21
ENDBRANCH  18  19
ENDBRANCH  17  18
ENDBRANCH   5  17
TORSDOF 6
ENDMDL
MODEL 7
REMARK VINA RESULT:      -7.4      0.903      2.072
REMARK  Name = 
REMARK  7 active torsions:
REMARK  status: ('A' for Active; 'I' for Inactive)
REMARK    1  A    between atoms: C_1  and  C_2
REMARK    2  A    between atoms: C_2  and  N_3
REMARK    3  A    between atoms: C_8  and  C_9
REMARK    4  A    between atoms: N_13  and  C_14
REMARK    5  A    between atoms: C_14  and  C_15
REMARK    6  A    between atoms: C_15  and  N_16
REMARK    7  A    between atoms: N_16  and  C_17
REMARK                            x       y       z     vdW  Elec       q    Type
REMARK                         _______ _______ _______ _____ _____    ______ ____
ROOT
ATOM      1  C   UNL     1       1.914   4.651  20.645  0.00  0.00    +0.000 A 
ATOM      2  C   UNL     1       2.427   4.108  21.811  0.00  0.00    +0.000 A 
ATOM      3  N   UNL     1       2.414   2.762  21.727  0.00  0.00    +0.000 NA
ATOM      4  C   UNL     1       1.919   2.504  20.501  0.00  0.00    +0.000 A 
ATOM      5  N   UNL     1       1.611   3.625  19.813  0.00  0.00    +0.000 N 
ENDROOT
BRANCH   1  11
ATOM      6  N   UNL     1       1.261  10.153  19.478  0.00  0.00    +0.000 N 
ATOM      7  C   UNL     1       0.345  10.593  20.510  0.00  0.00    +0.000 C 
ATOM      8  C   UNL     1       0.314   9.440  21.545  0.00  0.00    +0.000 C 
ATOM      9  C   UNL     1       0.996   8.329  20.821  0.00  0.00    +0.000 A 
ATOM     10  C   UNL     1       1.140   7.001  21.213  0.00  0.00    +0.000 A 
ATOM     11  C   UNL     1       1.815   6.105  20.357  0.00  0.00    +0.000 A 
ATOM     12  C   UNL     1       2.383   6.597  19.156  0.00  0.00    +0.000 A 
ATOM     13  C   UNL     1       2.240   7.943  18.796  0.00  0.00    +0.000 A 
ATOM     14  C   UNL     1       1.531   8.787  19.652  0.00  0.00    +0.000 A 
BRANCH   6  16
ATOM     15  C   UNL     1       2.080  12.324  18.653  0.00  0.00    +0.000 C 
ATOM     16  C   UNL     1       1.595  10.923  18.297  0.00  0.00    +0.000 C 
ENDBRANCH   6  16
ENDBRANCH   1  11
BRANCH   5  17
ATOM     17  C   UNL     1       1.117   3.626  18.426  0.00  0.00    +0.000 C 
BRANCH  17  18
ATOM     18  C   UNL     1       2.140   3.034  17.430  0.00  0.00    +0.000 C 
BRANCH  18  19
ATOM     19  N   UNL     1       3.230   3.975  17.109  0.00  0.00    +0.000 NA
ATOM     20  H   UNL     1       3.143   4.765  17.792  0.00  0.00    +0.000 HD
BRANCH  19  21
ATOM     21  C   UNL     1       4.558   3.355  17.332  0.00  0.00    +0.000 C 
ATOM     22  C   UNL     1       5.111   3.799  18.720  0.00  0.00    +0.000 C 
ATOM     23  C   UNL     1       5.596   5.251  18.606  0.00  0.00    +0.000 C 
ATOM     24  S   UNL     1       6.479   5.141  17.067  0.00  0.00    +0.000 S 
ATOM     25  O   UNL     1       7.949   4.774  17.329  0.00  0.00    +0.000 OA
ATOM     26  O   UNL     1       6.536   6.445  16.258  0.00  0.00    +0.000 OA
ATOM     27  C   UNL     1       5.627   3.776  16.271  0.00  0.00    +0.000 C 
ENDBRANCH  19  21
ENDBRANCH  18  19
ENDBRANCH  17  18
ENDBRANCH   5  17
TORSDOF 6
ENDMDL
MODEL 8
REMARK VINA RESULT:      -7.3      1.724      2.557
REMARK  Name = 
REMARK  7 active torsions:
REMARK  status: ('A' for Active; 'I' for Inactive)
REMARK    1  A    between atoms: C_1  and  C_2
REMARK    2  A    between atoms: C_2  and  N_3
REMARK    3  A    between atoms: C_8  and  C_9
REMARK    4  A    between atoms: N_13  and  C_14
REMARK    5  A    between atoms: C_14  and  C_15
REMARK    6  A    between atoms: C_15  and  N_16
REMARK    7  A    between atoms: N_16  and  C_17
REMARK                            x       y       z     vdW  Elec       q    Type
REMARK                         _______ _______ _______ _____ _____    ______ ____
ROOT
ATOM      1  C   UNL     1       2.536   3.744  18.786  0.00  0.00    +0.000 A 
ATOM      2  C   UNL     1       1.699   2.806  18.205  0.00  0.00    +0.000 A 
ATOM      3  N   UNL     1       2.349   1.631  18.088  0.00  0.00    +0.000 NA
ATOM      4  C   UNL     1       3.564   1.861  18.622  0.00  0.00    +0.000 A 
ATOM      5  N   UNL     1       3.712   3.129  19.063  0.00  0.00    +0.000 N 
ENDROOT
BRANCH   1  11
ATOM      6  N   UNL     1       1.338   9.136  20.033  0.00  0.00    +0.000 N 
ATOM      7  C   UNL     1       1.716   9.836  18.824  0.00  0.00    +0.000 C 
ATOM      8  C   UNL     1       1.910   8.729  17.756  0.00  0.00    +0.000 C 
ATOM      9  C   UNL     1       1.914   7.482  18.573  0.00  0.00    +0.000 A 
ATOM     10  C   UNL     1       2.186   6.180  18.162  0.00  0.00    +0.000 A 
ATOM     11  C   UNL     1       2.149   5.140  19.115  0.00  0.00    +0.000 A 
ATOM     12  C   UNL     1       1.771   5.441  20.447  0.00  0.00    +0.000 A 
ATOM     13  C   UNL     1       1.483   6.758  20.829  0.00  0.00    +0.000 A 
ATOM     14  C   UNL     1       1.570   7.763  19.863  0.00  0.00    +0.000 A 
BRANCH   6  16
ATOM     15  C   UNL     1       0.133  10.982  21.131  0.00  0.00    +0.000 C 
ATOM     16  C   UNL     1       1.058   9.782  21.300  0.00  0.00    +0.000 C 
ENDBRANCH   6  16
ENDBRANCH   1  11
BRANCH   5  17
ATOM     17  C   UNL     1       4.917   3.624  19.749  0.00  0.00    +0.000 C 
BRANCH  17  18
ATOM     18  C   UNL     1       5.435   4.953  19.158  0.00  0.00    +0.000 C 
BRANCH  18  19
ATOM     19  N   UNL     1       6.701   5.394  19.774  0.00  0.00    +0.000 NA
ATOM     20  H   UNL     1       6.960   4.654  20.470  0.00  0.00    +0.000 HD
BRANCH  19  21
ATOM     21  C   UNL     1       7.795   5.449  18.775  0.00  0.00    +0.000 C 
ATOM     22  C   UNL     1       7.917   6.901  18.220  0.00  0.00    +0.000 C 
ATOM     23  C   UNL     1       6.756   7.146  17.246  0.00  0.00    +0.000 C 
ATOM     24  S   UNL     1       6.819   5.623  16.331  0.00  0.00    +0.000 S 
ATOM     25  O   UNL     1       7.745   5.778  15.114  0.00  0.00    +0.000 OA
ATOM     26  O   UNL     1       5.475   5.161  15.750  0.00  0.00    +0.000 OA
ATOM     27  C   UNL     1       7.557   4.520  17.540  0.00  0.00    +0.000 C 
ENDBRANCH  19  21
ENDBRANCH  18  19
ENDBRANCH  17  18
ENDBRANCH   5  17
TORSDOF 6
ENDMDL
MODEL 9
REMARK VINA RESULT:      -7.3      0.768      1.419
REMARK  Name = 
REMARK  7 active torsions:
REMARK  status: ('A' for Active; 'I' for Inactive)
REMARK    1  A    between atoms: C_1  and  C_2
REMARK    2  A    between atoms: C_2  and  N_3
REMARK    3  A    between atoms: C_8  and  C_9
REMARK    4  A    between atoms: N_13  and  C_14
REMARK    5  A    between atoms: C_14  and  C_15
REMARK    6  A    between atoms: C_15  and  N_16
REMARK    7  A    between atoms: N_16  and  C_17
REMARK                            x       y       z     vdW  Elec       q    Type
REMARK                         _______ _______ _______ _____ _____    ______ ____
ROOT
ATOM      1  C   UNL     1       1.911   4.621  20.654  0.00  0.00    +0.000 A 
ATOM      2  C   UNL     1       2.521   4.181  21.816  0.00  0.00    +0.000 A 
ATOM      3  N   UNL     1       2.605   2.835  21.801  0.00  0.00    +0.000 NA
ATOM      4  C   UNL     1       2.067   2.475  20.620  0.00  0.00    +0.000 A 
ATOM      5  N   UNL     1       1.642   3.531  19.893  0.00  0.00    +0.000 N 
ENDROOT
BRANCH   1  11
ATOM      6  N   UNL     1       1.345  10.100  19.342  0.00  0.00    +0.000 N 
ATOM      7  C   UNL     1       2.103  10.215  18.114  0.00  0.00    +0.000 C 
ATOM      8  C   UNL     1       2.360   8.757  17.655  0.00  0.00    +0.000 C 
ATOM      9  C   UNL     1       1.970   7.962  18.855  0.00  0.00    +0.000 A 
ATOM     10  C   UNL     1       2.116   6.594  19.070  0.00  0.00    +0.000 A 
ATOM     11  C   UNL     1       1.689   6.046  20.298  0.00  0.00    +0.000 A 
ATOM     12  C   UNL     1       1.065   6.891  21.248  0.00  0.00    +0.000 A 
ATOM     13  C   UNL     1       0.913   8.261  20.997  0.00  0.00    +0.000 A 
ATOM     14  C   UNL     1       1.385   8.770  19.786  0.00  0.00    +0.000 A 
BRANCH   6  16
ATOM     15  C   UNL     1       1.604  12.515  19.747  0.00  0.00    +0.000 C 
ATOM     16  C   UNL     1       0.886  11.226  20.130  0.00  0.00    +0.000 C 
ENDBRANCH   6  16
ENDBRANCH   1  11
BRANCH   5  17
ATOM     17  C   UNL     1       1.080   3.421  18.537  0.00  0.00    +0.000 C 
BRANCH  17  18
ATOM     18  C   UNL     1       2.128   2.977  17.492  0.00  0.00    +0.000 C 
BRANCH  18  19
ATOM     19  N   UNL     1       3.163   4.001  17.255  0.00  0.00    +0.000 NA
ATOM     20  H   UNL     1       3.027   4.730  17.996  0.00  0.00    +0.000 HD
BRANCH  19  21
ATOM     21  C   UNL     1       4.524   3.444  17.441  0.00  0.00    +0.000 C 
ATOM     22  C   UNL     1       5.115   3.958  18.789  0.00  0.00    +0.000 C 
ATOM     23  C   UNL     1       5.533   5.424  18.606  0.00  0.00    +0.000 C 
ATOM     24  S   UNL     1       6.356   5.296  17.036  0.00  0.00    +0.000 S 
ATOM     25  O   UNL     1       7.849   4.998  17.247  0.00  0.00    +0.000 OA
ATOM     26  O   UNL     1       6.324   6.573  16.183  0.00  0.00    +0.000 OA
ATOM     27  C   UNL     1       5.530   3.870  16.323  0.00  0.00    +0.000 C 
ENDBRANCH  19  21
ENDBRANCH  18  19
ENDBRANCH  17  18
ENDBRANCH   5  17
TORSDOF 6
ENDMDL
