MODEL 1
REMARK VINA RESULT:      -8.4      0.000      0.000
REMARK  Name = 
REMARK  4 active torsions:
REMARK  status: ('A' for Active; 'I' for Inactive)
REMARK    1  A    between atoms: C_2  and  C_18
REMARK    2  A    between atoms: N_3  and  C_4
REMARK    3  A    between atoms: N_7  and  C_8
REMARK    4  A    between atoms: C_8  and  C_9
REMARK                            x       y       z     vdW  Elec       q    Type
REMARK                         _______ _______ _______ _____ _____    ______ ____
ROOT
ATOM      1  C   UNL     1       7.139   6.066  16.872  0.00  0.00    +0.000 C 
ATOM      2  C   UNL     1       6.097   5.916  15.767  0.00  0.00    +0.000 C 
ATOM      3  C   UNL     1       4.704   6.369  16.196  0.00  0.00    +0.000 C 
ATOM      4  N   UNL     1       4.257   5.717  17.440  0.00  0.00    +0.000 NA
ATOM      5  C   UNL     1       5.216   5.947  18.531  0.00  0.00    +0.000 C 
ATOM      6  C   UNL     1       6.619   5.450  18.173  0.00  0.00    +0.000 C 
ENDROOT
BRANCH   1   9
ATOM      7  O   UNL     1       8.570   7.023  19.067  0.00  0.00    +0.000 OA
ATOM      8  C   UNL     1       8.247   7.830  18.199  0.00  0.00    +0.000 C 
ATOM      9  N   UNL     1       7.572   7.455  17.049  0.00  0.00    +0.000 N 
ATOM     10  H   UNL     1       7.159   8.171  16.469  0.00  0.00    +0.000 HD
BRANCH   8  11
ATOM     11  C   UNL     1       8.549   9.277  18.395  0.00  0.00    +0.000 A 
ATOM     12  C   UNL     1       7.953  10.181  17.488  0.00  0.00    +0.000 A 
ATOM     13  C   UNL     1       8.168  11.557  17.585  0.00  0.00    +0.000 A 
ATOM     14  C   UNL     1       8.973  12.020  18.609  0.00  0.00    +0.000 A 
ATOM     15  C   UNL     1       9.563  11.137  19.522  0.00  0.00    +0.000 A 
ATOM     16  C   UNL     1       9.361   9.762  19.431  0.00  0.00    +0.000 A 
ATOM     17  C   UNL     1      10.422  11.891  20.493  0.00  0.00    +0.000 C 
ATOM     18  C   UNL     1       9.884  13.321  20.328  0.00  0.00    +0.000 C 
ATOM     19  C   UNL     1       9.377  13.435  18.885  0.00  0.00    +0.000 C 
ENDBRANCH   8  11
ENDBRANCH   1   9
BRANCH   4  20
ATOM     20  C   UNL     1       2.909   6.189  17.845  0.00  0.00    +0.000 C 
BRANCH  20  21
ATOM     21  C   UNL     1       2.233   5.258  18.837  0.00  0.00    +0.000 A 
ATOM     22  C   UNL     1       2.257   5.548  20.212  0.00  0.00    +0.000 A 
ATOM     23  C   UNL     1       1.759   4.627  21.136  0.00  0.00    +0.000 A 
ATOM     24  C   UNL     1       1.215   3.430  20.686  0.00  0.00    +0.000 A 
ATOM     25  F   UNL     1       0.778   2.528  21.574  0.00  0.00    +0.000 F 
ATOM     26  C   UNL     1       1.132   3.150  19.327  0.00  0.00    +0.000 A 
ATOM     27  C   UNL     1       1.636   4.063  18.402  0.00  0.00    +0.000 A 
ENDBRANCH  20  21
ENDBRANCH   4  20
TORSDOF 4
ENDMDL
MODEL 2
REMARK VINA RESULT:      -8.4      0.415      1.399
REMARK  Name = 
REMARK  4 active torsions:
REMARK  status: ('A' for Active; 'I' for Inactive)
REMARK    1  A    between atoms: C_2  and  C_18
REMARK    2  A    between atoms: N_3  and  C_4
REMARK    3  A    between atoms: N_7  and  C_8
REMARK    4  A    between atoms: C_8  and  C_9
REMARK                            x       y       z     vdW  Elec       q    Type
REMARK                         _______ _______ _______ _____ _____    ______ ____
ROOT
ATOM      1  C   UNL     1       7.136   6.094  16.866  0.00  0.00    +0.000 C 
ATOM      2  C   UNL     1       6.107   5.931  15.751  0.00  0.00    +0.000 C 
ATOM      3  C   UNL     1       4.702   6.356  16.170  0.00  0.00    +0.000 C 
ATOM      4  N   UNL     1       4.257   5.689  17.406  0.00  0.00    +0.000 NA
ATOM      5  C   UNL     1       5.202   5.931  18.507  0.00  0.00    +0.000 C 
ATOM      6  C   UNL     1       6.617   5.462  18.159  0.00  0.00    +0.000 C 
ENDROOT
BRANCH   1   9
ATOM      7  O   UNL     1       8.595   7.052  19.042  0.00  0.00    +0.000 OA
ATOM      8  C   UNL     1       8.234   7.864  18.193  0.00  0.00    +0.000 C 
ATOM      9  N   UNL     1       7.542   7.490  17.053  0.00  0.00    +0.000 N 
ATOM     10  H   UNL     1       7.100   8.205  16.493  0.00  0.00    +0.000 HD
BRANCH   8  11
ATOM     11  C   UNL     1       8.508   9.315  18.404  0.00  0.00    +0.000 A 
ATOM     12  C   UNL     1       9.331   9.656  19.500  0.00  0.00    +0.000 A 
ATOM     13  C   UNL     1       9.650  10.985  19.784  0.00  0.00    +0.000 A 
ATOM     14  C   UNL     1       9.151  11.967  18.950  0.00  0.00    +0.000 A 
ATOM     15  C   UNL     1       8.341  11.644  17.853  0.00  0.00    +0.000 A 
ATOM     16  C   UNL     1       8.010  10.323  17.565  0.00  0.00    +0.000 A 
ATOM     17  C   UNL     1       7.897  12.892  17.150  0.00  0.00    +0.000 C 
ATOM     18  C   UNL     1       8.915  13.917  17.676  0.00  0.00    +0.000 C 
ATOM     19  C   UNL     1       9.323  13.449  19.079  0.00  0.00    +0.000 C 
ENDBRANCH   8  11
ENDBRANCH   1   9
BRANCH   4  20
ATOM     20  C   UNL     1       2.897   6.134  17.802  0.00  0.00    +0.000 C 
BRANCH  20  21
ATOM     21  C   UNL     1       2.251   5.214  18.826  0.00  0.00    +0.000 A 
ATOM     22  C   UNL     1       2.348   5.500  20.198  0.00  0.00    +0.000 A 
ATOM     23  C   UNL     1       1.878   4.588  21.144  0.00  0.00    +0.000 A 
ATOM     24  C   UNL     1       1.289   3.403  20.720  0.00  0.00    +0.000 A 
ATOM     25  F   UNL     1       0.877   2.508  21.627  0.00  0.00    +0.000 F 
ATOM     26  C   UNL     1       1.133   3.128  19.366  0.00  0.00    +0.000 A 
ATOM     27  C   UNL     1       1.610   4.032  18.419  0.00  0.00    +0.000 A 
ENDBRANCH  20  21
ENDBRANCH   4  20
TORSDOF 4
ENDMDL
MODEL 3
REMARK VINA RESULT:      -8.2      5.334      7.568
REMARK  Name = 
REMARK  4 active torsions:
REMARK  status: ('A' for Active; 'I' for Inactive)
REMARK    1  A    between atoms: C_2  and  C_18
REMARK    2  A    between atoms: N_3  and  C_4
REMARK    3  A    between atoms: N_7  and  C_8
REMARK    4  A    between atoms: C_8  and  C_9
REMARK                            x       y       z     vdW  Elec       q    Type
REMARK                         _______ _______ _______ _____ _____    ______ ____
ROOT
ATOM      1  C   UNL     1       5.295   4.536  18.137  0.00  0.00    +0.000 C 
ATOM      2  C   UNL     1       6.761   4.799  17.804  0.00  0.00    +0.000 C 
ATOM      3  C   UNL     1       6.965   5.329  16.387  0.00  0.00    +0.000 C 
ATOM      4  N   UNL     1       6.335   4.471  15.368  0.00  0.00    +0.000 NA
ATOM      5  C   UNL     1       4.899   4.299  15.637  0.00  0.00    +0.000 C 
ATOM      6  C   UNL     1       4.643   3.709  17.026  0.00  0.00    +0.000 C 
ENDROOT
BRANCH   1   9
ATOM      7  O   UNL     1       2.922   4.671  19.596  0.00  0.00    +0.000 OA
ATOM      8  C   UNL     1       3.363   5.716  19.124  0.00  0.00    +0.000 C 
ATOM      9  N   UNL     1       4.554   5.769  18.419  0.00  0.00    +0.000 N 
ATOM     10  H   UNL     1       4.771   6.600  17.888  0.00  0.00    +0.000 HD
BRANCH   8  11
ATOM     11  C   UNL     1       2.578   6.976  19.271  0.00  0.00    +0.000 A 
ATOM     12  C   UNL     1       2.469   7.796  18.126  0.00  0.00    +0.000 A 
ATOM     13  C   UNL     1       1.755   8.995  18.155  0.00  0.00    +0.000 A 
ATOM     14  C   UNL     1       1.136   9.356  19.338  0.00  0.00    +0.000 A 
ATOM     15  C   UNL     1       1.227   8.548  20.479  0.00  0.00    +0.000 A 
ATOM     16  C   UNL     1       1.943   7.354  20.463  0.00  0.00    +0.000 A 
ATOM     17  C   UNL     1       0.513   9.193  21.629  0.00  0.00    +0.000 C 
ATOM     18  C   UNL     1      -0.382  10.209  20.902  0.00  0.00    +0.000 C 
ATOM     19  C   UNL     1       0.358  10.604  19.617  0.00  0.00    +0.000 C 
ENDBRANCH   8  11
ENDBRANCH   1   9
BRANCH   4  20
ATOM     20  C   UNL     1       6.531   5.017  14.002  0.00  0.00    +0.000 C 
BRANCH  20  21
ATOM     21  C   UNL     1       6.413   3.956  12.921  0.00  0.00    +0.000 A 
ATOM     22  C   UNL     1       5.153   3.453  12.555  0.00  0.00    +0.000 A 
ATOM     23  C   UNL     1       5.052   2.383  11.664  0.00  0.00    +0.000 A 
ATOM     24  C   UNL     1       6.206   1.833  11.120  0.00  0.00    +0.000 A 
ATOM     25  F   UNL     1       6.112   0.778  10.300  0.00  0.00    +0.000 F 
ATOM     26  C   UNL     1       7.458   2.353  11.427  0.00  0.00    +0.000 A 
ATOM     27  C   UNL     1       7.563   3.415  12.323  0.00  0.00    +0.000 A 
ENDBRANCH  20  21
ENDBRANCH   4  20
TORSDOF 4
ENDMDL
MODEL 4
REMARK VINA RESULT:      -8.2      4.899      6.078
REMARK  Name = 
REMARK  4 active torsions:
REMARK  status: ('A' for Active; 'I' for Inactive)
REMARK    1  A    between atoms: C_2  and  C_18
REMARK    2  A    between atoms: N_3  and  C_4
REMARK    3  A    between atoms: N_7  and  C_8
REMARK    4  A    between atoms: C_8  and  C_9
REMARK                            x       y       z     vdW  Elec       q    Type
REMARK                         _______ _______ _______ _____ _____    ______ ____
ROOT
ATOM      1  C   UNL     1       0.375  10.711  18.970  0.00  0.00    +0.000 C 
ATOM      2  C   UNL     1       0.154   9.939  20.269  0.00  0.00    +0.000 C 
ATOM      3  C   UNL     1       1.250   8.914  20.546  0.00  0.00    +0.000 C 
ATOM      4  N   UNL     1       1.464   7.997  19.413  0.00  0.00    +0.000 NA
ATOM      5  C   UNL     1       1.775   8.741  18.182  0.00  0.00    +0.000 C 
ATOM      6  C   UNL     1       0.672   9.740  17.825  0.00  0.00    +0.000 C 
ENDROOT
BRANCH   1   9
ATOM      7  O   UNL     1       0.011  13.406  18.351  0.00  0.00    +0.000 OA
ATOM      8  C   UNL     1       1.125  13.052  18.730  0.00  0.00    +0.000 C 
ATOM      9  N   UNL     1       1.403  11.747  19.103  0.00  0.00    +0.000 N 
ATOM     10  H   UNL     1       2.366  11.465  19.214  0.00  0.00    +0.000 HD
BRANCH   8  11
ATOM     11  C   UNL     1       2.240  14.041  18.755  0.00  0.00    +0.000 A 
ATOM     12  C   UNL     1       1.964  15.298  19.338  0.00  0.00    +0.000 A 
ATOM     13  C   UNL     1       2.939  16.294  19.414  0.00  0.00    +0.000 A 
ATOM     14  C   UNL     1       4.197  16.014  18.916  0.00  0.00    +0.000 A 
ATOM     15  C   UNL     1       4.489  14.769  18.343  0.00  0.00    +0.000 A 
ATOM     16  C   UNL     1       3.523  13.770  18.255  0.00  0.00    +0.000 A 
ATOM     17  C   UNL     1       5.902  14.747  17.840  0.00  0.00    +0.000 C 
ATOM     18  C   UNL     1       6.516  15.931  18.604  0.00  0.00    +0.000 C 
ATOM     19  C   UNL     1       5.379  16.931  18.850  0.00  0.00    +0.000 C 
ENDBRANCH   8  11
ENDBRANCH   1   9
BRANCH   4  20
ATOM     20  C   UNL     1       2.547   7.023  19.701  0.00  0.00    +0.000 C 
BRANCH  20  21
ATOM     21  C   UNL     1       2.127   5.584  19.448  0.00  0.00    +0.000 A 
ATOM     22  C   UNL     1       2.243   5.027  18.163  0.00  0.00    +0.000 A 
ATOM     23  C   UNL     1       1.731   3.755  17.898  0.00  0.00    +0.000 A 
ATOM     24  C   UNL     1       1.128   3.032  18.919  0.00  0.00    +0.000 A 
ATOM     25  F   UNL     1       0.598   1.831  18.655  0.00  0.00    +0.000 F 
ATOM     26  C   UNL     1       1.055   3.544  20.209  0.00  0.00    +0.000 A 
ATOM     27  C   UNL     1       1.556   4.817  20.477  0.00  0.00    +0.000 A 
ENDBRANCH  20  21
ENDBRANCH   4  20
TORSDOF 4
ENDMDL
MODEL 5
REMARK VINA RESULT:      -8.0      3.870      7.289
REMARK  Name = 
REMARK  4 active torsions:
REMARK  status: ('A' for Active; 'I' for Inactive)
REMARK    1  A    between atoms: C_2  and  C_18
REMARK    2  A    between atoms: N_3  and  C_4
REMARK    3  A    between atoms: N_7  and  C_8
REMARK    4  A    between atoms: C_8  and  C_9
REMARK                            x       y       z     vdW  Elec       q    Type
REMARK                         _______ _______ _______ _____ _____    ______ ____
ROOT
ATOM      1  C   UNL     1       2.453   3.994  18.769  0.00  0.00    +0.000 C 
ATOM      2  C   UNL     1       3.727   3.541  19.477  0.00  0.00    +0.000 C 
ATOM      3  C   UNL     1       4.998   4.005  18.771  0.00  0.00    +0.000 C 
ATOM      4  N   UNL     1       5.020   3.630  17.346  0.00  0.00    +0.000 NA
ATOM      5  C   UNL     1       3.838   4.153  16.644  0.00  0.00    +0.000 C 
ATOM      6  C   UNL     1       2.534   3.663  17.277  0.00  0.00    +0.000 C 
ENDROOT
BRANCH   1   9
ATOM      7  O   UNL     1       2.073   5.138  21.285  0.00  0.00    +0.000 OA
ATOM      8  C   UNL     1       1.944   5.863  20.302  0.00  0.00    +0.000 C 
ATOM      9  N   UNL     1       2.151   5.408  19.010  0.00  0.00    +0.000 N 
ATOM     10  H   UNL     1       1.843   5.979  18.236  0.00  0.00    +0.000 HD
BRANCH   8  11
ATOM     11  C   UNL     1       1.508   7.277  20.487  0.00  0.00    +0.000 A 
ATOM     12  C   UNL     1       1.743   8.162  19.412  0.00  0.00    +0.000 A 
ATOM     13  C   UNL     1       1.371   9.506  19.482  0.00  0.00    +0.000 A 
ATOM     14  C   UNL     1       0.746   9.950  20.631  0.00  0.00    +0.000 A 
ATOM     15  C   UNL     1       0.496   9.082  21.702  0.00  0.00    +0.000 A 
ATOM     16  C   UNL     1       0.870   7.741  21.647  0.00  0.00    +0.000 A 
ATOM     17  C   UNL     1      -0.142   9.826  22.836  0.00  0.00    +0.000 C 
ATOM     18  C   UNL     1      -0.654  11.089  22.123  0.00  0.00    +0.000 C 
ATOM     19  C   UNL     1       0.298  11.343  20.948  0.00  0.00    +0.000 C 
ENDBRANCH   8  11
ENDBRANCH   1   9
BRANCH   4  20
ATOM     20  C   UNL     1       6.257   4.109  16.679  0.00  0.00    +0.000 C 
BRANCH  20  21
ATOM     21  C   UNL     1       6.852   5.335  17.351  0.00  0.00    +0.000 A 
ATOM     22  C   UNL     1       6.676   6.610  16.785  0.00  0.00    +0.000 A 
ATOM     23  C   UNL     1       7.335   7.717  17.323  0.00  0.00    +0.000 A 
ATOM     24  C   UNL     1       8.149   7.556  18.437  0.00  0.00    +0.000 A 
ATOM     25  F   UNL     1       8.816   8.609  18.926  0.00  0.00    +0.000 F 
ATOM     26  C   UNL     1       8.290   6.314  19.044  0.00  0.00    +0.000 A 
ATOM     27  C   UNL     1       7.641   5.204  18.505  0.00  0.00    +0.000 A 
ENDBRANCH  20  21
ENDBRANCH   4  20
TORSDOF 4
ENDMDL
MODEL 6
REMARK VINA RESULT:      -8.0      6.871      9.892
REMARK  Name = 
REMARK  4 active torsions:
REMARK  status: ('A' for Active; 'I' for Inactive)
REMARK    1  A    between atoms: C_2  and  C_18
REMARK    2  A    between atoms: N_3  and  C_4
REMARK    3  A    between atoms: N_7  and  C_8
REMARK    4  A    between atoms: C_8  and  C_9
REMARK                            x       y       z     vdW  Elec       q    Type
REMARK                         _______ _______ _______ _____ _____    ______ ____
ROOT
ATOM      1  C   UNL     1       0.921  10.721  19.465  0.00  0.00    +0.000 C 
ATOM      2  C   UNL     1       1.793  10.489  18.233  0.00  0.00    +0.000 C 
ATOM      3  C   UNL     1       1.857   9.022  17.816  0.00  0.00    +0.000 C 
ATOM      4  N   UNL     1       2.257   8.138  18.925  0.00  0.00    +0.000 NA
ATOM      5  C   UNL     1       1.355   8.292  20.076  0.00  0.00    +0.000 C 
ATOM      6  C   UNL     1       1.304   9.738  20.574  0.00  0.00    +0.000 C 
ENDROOT
BRANCH   1   9
ATOM      7  O   UNL     1      -0.572  12.879  18.520  0.00  0.00    +0.000 OA
ATOM      8  C   UNL     1      -1.163  11.822  18.725  0.00  0.00    +0.000 C 
ATOM      9  N   UNL     1      -0.511  10.677  19.154  0.00  0.00    +0.000 N 
ATOM     10  H   UNL     1      -1.060   9.901  19.494  0.00  0.00    +0.000 HD
BRANCH   8  11
ATOM     11  C   UNL     1      -2.642  11.763  18.550  0.00  0.00    +0.000 A 
ATOM     12  C   UNL     1      -3.120  11.235  17.331  0.00  0.00    +0.000 A 
ATOM     13  C   UNL     1      -4.487  11.133  17.067  0.00  0.00    +0.000 A 
ATOM     14  C   UNL     1      -5.371  11.550  18.044  0.00  0.00    +0.000 A 
ATOM     15  C   UNL     1      -4.913  12.068  19.263  0.00  0.00    +0.000 A 
ATOM     16  C   UNL     1      -3.552  12.180  19.533  0.00  0.00    +0.000 A 
ATOM     17  C   UNL     1      -6.072  12.489  20.117  0.00  0.00    +0.000 C 
ATOM     18  C   UNL     1      -7.231  11.727  19.455  0.00  0.00    +0.000 C 
ATOM     19  C   UNL     1      -6.867  11.576  17.973  0.00  0.00    +0.000 C 
ENDBRANCH   8  11
ENDBRANCH   1   9
BRANCH   4  20
ATOM     20  C   UNL     1       2.294   6.716  18.498  0.00  0.00    +0.000 C 
BRANCH  20  21
ATOM     21  C   UNL     1       3.708   6.183  18.346  0.00  0.00    +0.000 A 
ATOM     22  C   UNL     1       4.443   6.445  17.177  0.00  0.00    +0.000 A 
ATOM     23  C   UNL     1       5.686   5.843  16.975  0.00  0.00    +0.000 A 
ATOM     24  C   UNL     1       6.207   5.002  17.951  0.00  0.00    +0.000 A 
ATOM     25  F   UNL     1       7.379   4.389  17.740  0.00  0.00    +0.000 F 
ATOM     26  C   UNL     1       5.521   4.776  19.139  0.00  0.00    +0.000 A 
ATOM     27  C   UNL     1       4.274   5.367  19.339  0.00  0.00    +0.000 A 
ENDBRANCH  20  21
ENDBRANCH   4  20
TORSDOF 4
ENDMDL
MODEL 7
REMARK VINA RESULT:      -8.0      5.363      7.696
REMARK  Name = 
REMARK  4 active torsions:
REMARK  status: ('A' for Active; 'I' for Inactive)
REMARK    1  A    between atoms: C_2  and  C_18
REMARK    2  A    between atoms: N_3  and  C_4
REMARK    3  A    between atoms: N_7  and  C_8
REMARK    4  A    between atoms: C_8  and  C_9
REMARK                            x       y       z     vdW  Elec       q    Type
REMARK                         _______ _______ _______ _____ _____    ______ ____
ROOT
ATOM      1  C   UNL     1       3.439   4.577  18.843  0.00  0.00    +0.000 C 
ATOM      2  C   UNL     1       4.827   4.283  19.403  0.00  0.00    +0.000 C 
ATOM      3  C   UNL     1       5.948   4.919  18.585  0.00  0.00    +0.000 C 
ATOM      4  N   UNL     1       5.867   4.572  17.155  0.00  0.00    +0.000 NA
ATOM      5  C   UNL     1       4.561   4.947  16.592  0.00  0.00    +0.000 C 
ATOM      6  C   UNL     1       3.404   4.283  17.341  0.00  0.00    +0.000 C 
ENDROOT
BRANCH   1   9
ATOM      7  O   UNL     1       1.721   5.245  20.936  0.00  0.00    +0.000 OA
ATOM      8  C   UNL     1       2.100   6.150  20.197  0.00  0.00    +0.000 C 
ATOM      9  N   UNL     1       2.985   5.936  19.153  0.00  0.00    +0.000 N 
ATOM     10  H   UNL     1       3.109   6.661  18.461  0.00  0.00    +0.000 HD
BRANCH   8  11
ATOM     11  C   UNL     1       1.563   7.528  20.390  0.00  0.00    +0.000 A 
ATOM     12  C   UNL     1       1.678   8.416  19.298  0.00  0.00    +0.000 A 
ATOM     13  C   UNL     1       1.205   9.728  19.374  0.00  0.00    +0.000 A 
ATOM     14  C   UNL     1       0.602  10.135  20.548  0.00  0.00    +0.000 A 
ATOM     15  C   UNL     1       0.471   9.263  21.637  0.00  0.00    +0.000 A 
ATOM     16  C   UNL     1       0.945   7.955  21.575  0.00  0.00    +0.000 A 
ATOM     17  C   UNL     1      -0.171   9.969  22.794  0.00  0.00    +0.000 C 
ATOM     18  C   UNL     1      -0.812  11.179  22.095  0.00  0.00    +0.000 C 
ATOM     19  C   UNL     1       0.061  11.493  20.874  0.00  0.00    +0.000 C 
ENDBRANCH   8  11
ENDBRANCH   1   9
BRANCH   4  20
ATOM     20  C   UNL     1       6.956   5.217  16.378  0.00  0.00    +0.000 C 
BRANCH  20  21
ATOM     21  C   UNL     1       6.914   4.865  14.901  0.00  0.00    +0.000 A 
ATOM     22  C   UNL     1       6.106   3.809  14.446  0.00  0.00    +0.000 A 
ATOM     23  C   UNL     1       6.171   3.394  13.115  0.00  0.00    +0.000 A 
ATOM     24  C   UNL     1       7.022   4.049  12.233  0.00  0.00    +0.000 A 
ATOM     25  F   UNL     1       7.117   3.623  10.967  0.00  0.00    +0.000 F 
ATOM     26  C   UNL     1       7.787   5.131  12.651  0.00  0.00    +0.000 A 
ATOM     27  C   UNL     1       7.732   5.543  13.982  0.00  0.00    +0.000 A 
ENDBRANCH  20  21
ENDBRANCH   4  20
TORSDOF 4
ENDMDL
MODEL 8
REMARK VINA RESULT:      -8.0      6.508      9.547
REMARK  Name = 
REMARK  4 active torsions:
REMARK  status: ('A' for Active; 'I' for Inactive)
REMARK    1  A    between atoms: C_2  and  C_18
REMARK    2  A    between atoms: N_3  and  C_4
REMARK    3  A    between atoms: N_7  and  C_8
REMARK    4  A    between atoms: C_8  and  C_9
REMARK                            x       y       z     vdW  Elec       q    Type
REMARK                         _______ _______ _______ _____ _____    ______ ____
ROOT
ATOM      1  C   UNL     1       1.272  10.047  19.404  0.00  0.00    +0.000 C 
ATOM      2  C   UNL     1       2.122   9.671  18.193  0.00  0.00    +0.000 C 
ATOM      3  C   UNL     1       2.101   8.174  17.893  0.00  0.00    +0.000 C 
ATOM      4  N   UNL     1       2.458   7.358  19.067  0.00  0.00    +0.000 NA
ATOM      5  C   UNL     1       1.572   7.653  20.204  0.00  0.00    +0.000 C 
ATOM      6  C   UNL     1       1.607   9.135  20.587  0.00  0.00    +0.000 C 
ENDROOT
BRANCH   1   9
ATOM      7  O   UNL     1      -0.193  12.323  18.729  0.00  0.00    +0.000 OA
ATOM      8  C   UNL     1      -0.798  11.257  18.812  0.00  0.00    +0.000 C 
ATOM      9  N   UNL     1      -0.161  10.061  19.100  0.00  0.00    +0.000 N 
ATOM     10  H   UNL     1      -0.720   9.258  19.351  0.00  0.00    +0.000 HD
BRANCH   8  11
ATOM     11  C   UNL     1      -2.280  11.240  18.642  0.00  0.00    +0.000 A 
ATOM     12  C   UNL     1      -2.812  10.251  17.785  0.00  0.00    +0.000 A 
ATOM     13  C   UNL     1      -4.185  10.147  17.559  0.00  0.00    +0.000 A 
ATOM     14  C   UNL     1      -5.022  11.032  18.212  0.00  0.00    +0.000 A 
ATOM     15  C   UNL     1      -4.510  12.012  19.073  0.00  0.00    +0.000 A 
ATOM     16  C   UNL     1      -3.141  12.130  19.300  0.00  0.00    +0.000 A 
ATOM     17  C   UNL     1      -5.622  12.865  19.607  0.00  0.00    +0.000 C 
ATOM     18  C   UNL     1      -6.846  11.978  19.333  0.00  0.00    +0.000 C 
ATOM     19  C   UNL     1      -6.511  11.138  18.095  0.00  0.00    +0.000 C 
ENDBRANCH   8  11
ENDBRANCH   1   9
BRANCH   4  20
ATOM     20  C   UNL     1       2.411   5.908  18.754  0.00  0.00    +0.000 C 
BRANCH  20  21
ATOM     21  C   UNL     1       3.774   5.340  18.393  0.00  0.00    +0.000 A 
ATOM     22  C   UNL     1       4.863   5.502  19.265  0.00  0.00    +0.000 A 
ATOM     23  C   UNL     1       6.144   5.104  18.875  0.00  0.00    +0.000 A 
ATOM     24  C   UNL     1       6.331   4.521  17.628  0.00  0.00    +0.000 A 
ATOM     25  F   UNL     1       7.565   4.180  17.236  0.00  0.00    +0.000 F 
ATOM     26  C   UNL     1       5.256   4.301  16.775  0.00  0.00    +0.000 A 
ATOM     27  C   UNL     1       3.977   4.706  17.156  0.00  0.00    +0.000 A 
ENDBRANCH  20  21
ENDBRANCH   4  20
TORSDOF 4
ENDMDL
MODEL 9
REMARK VINA RESULT:      -8.0      5.066      7.700
REMARK  Name = 
REMARK  4 active torsions:
REMARK  status: ('A' for Active; 'I' for Inactive)
REMARK    1  A    between atoms: C_2  and  C_18
REMARK    2  A    between atoms: N_3  and  C_4
REMARK    3  A    between atoms: N_7  and  C_8
REMARK    4  A    between atoms: C_8  and  C_9
REMARK                            x       y       z     vdW  Elec       q    Type
REMARK                         _______ _______ _______ _____ _____    ______ ____
ROOT
ATOM      1  C   UNL     1       3.843   5.078  19.380  0.00  0.00    +0.000 C 
ATOM      2  C   UNL     1       5.368   5.075  19.426  0.00  0.00    +0.000 C 
ATOM      3  C   UNL     1       6.002   5.802  18.243  0.00  0.00    +0.000 C 
ATOM      4  N   UNL     1       5.509   5.304  16.946  0.00  0.00    +0.000 NA
ATOM      5  C   UNL     1       4.043   5.400  16.866  0.00  0.00    +0.000 C 
ATOM      6  C   UNL     1       3.357   4.632  17.999  0.00  0.00    +0.000 C 
ENDROOT
BRANCH   1   9
ATOM      7  O   UNL     1       1.423   5.402  20.730  0.00  0.00    +0.000 OA
ATOM      8  C   UNL     1       2.042   6.415  20.415  0.00  0.00    +0.000 C 
ATOM      9  N   UNL     1       3.273   6.368  19.780  0.00  0.00    +0.000 N 
ATOM     10  H   UNL     1       3.643   7.213  19.369  0.00  0.00    +0.000 HD
BRANCH   8  11
ATOM     11  C   UNL     1       1.441   7.754  20.682  0.00  0.00    +0.000 A 
ATOM     12  C   UNL     1       1.528   8.709  19.646  0.00  0.00    +0.000 A 
ATOM     13  C   UNL     1       0.996   9.992  19.792  0.00  0.00    +0.000 A 
ATOM     14  C   UNL     1       0.361  10.301  20.980  0.00  0.00    +0.000 A 
ATOM     15  C   UNL     1       0.258   9.361  22.014  0.00  0.00    +0.000 A 
ATOM     16  C   UNL     1       0.792   8.082  21.881  0.00  0.00    +0.000 A 
ATOM     17  C   UNL     1      -0.428   9.968  23.201  0.00  0.00    +0.000 C 
ATOM     18  C   UNL     1      -1.116  11.187  22.566  0.00  0.00    +0.000 C 
ATOM     19  C   UNL     1      -0.245  11.612  21.378  0.00  0.00    +0.000 C 
ENDBRANCH   8  11
ENDBRANCH   1   9
BRANCH   4  20
ATOM     20  C   UNL     1       6.125   6.038  15.813  0.00  0.00    +0.000 C 
BRANCH  20  21
ATOM     21  C   UNL     1       6.409   5.145  14.617  0.00  0.00    +0.000 A 
ATOM     22  C   UNL     1       7.564   5.342  13.842  0.00  0.00    +0.000 A 
ATOM     23  C   UNL     1       7.757   4.616  12.666  0.00  0.00    +0.000 A 
ATOM     24  C   UNL     1       6.810   3.677  12.277  0.00  0.00    +0.000 A 
ATOM     25  F   UNL     1       6.972   3.012  11.126  0.00  0.00    +0.000 F 
ATOM     26  C   UNL     1       5.688   3.428  13.059  0.00  0.00    +0.000 A 
ATOM     27  C   UNL     1       5.487   4.158  14.230  0.00  0.00    +0.000 A 
ENDBRANCH  20  21
ENDBRANCH   4  20
TORSDOF 4
ENDMDL
