MODEL 1
REMARK VINA RESULT:      -8.2      0.000      0.000
REMARK  Name = 
REMARK  8 active torsions:
REMARK  status: ('A' for Active; 'I' for Inactive)
REMARK    1  A    between atoms: C_1  and  C_2
REMARK    2  A    between atoms: C_2  and  C_3
REMARK    3  A    between atoms: N_5  and  C_6
REMARK    4  A    between atoms: C_9  and  N_10
REMARK    5  A    between atoms: C_12  and  C_13
REMARK    6  A    between atoms: N_17  and  C_18
REMARK    7  A    between atoms: C_21  and  C_22
REMARK    8  A    between atoms: C_29  and  C_30
REMARK                            x       y       z     vdW  Elec       q    Type
REMARK                         _______ _______ _______ _____ _____    ______ ____
ROOT
ATOM      1  N   UNL     1       0.167  11.125  19.442  0.00  0.00    +0.000 N 
ATOM      2  C   UNL     1       0.934  12.173  19.043  0.00  0.00    +0.000 A 
ATOM      3  C   UNL     1       0.151  13.307  19.178  0.00  0.00    +0.000 A 
ATOM      4  C   UNL     1      -1.092  12.816  19.671  0.00  0.00    +0.000 A 
ATOM      5  N   UNL     1      -2.190  13.586  19.888  0.00  0.00    +0.000 N 
ATOM      6  N   UNL     1      -1.049  11.490  19.861  0.00  0.00    +0.000 NA
ATOM      7  H   UNL     1      -2.316  14.425  19.330  0.00  0.00    +0.000 HD
ENDROOT
BRANCH   1  11
ATOM      8  C   UNL     1       2.424   7.388  19.491  0.00  0.00    +0.000 C 
ATOM      9  C   UNL     1       1.821   7.908  18.175  0.00  0.00    +0.000 C 
ATOM     10  C   UNL     1       1.490   9.402  18.253  0.00  0.00    +0.000 C 
ATOM     11  C   UNL     1       0.535   9.710  19.421  0.00  0.00    +0.000 C 
ATOM     12  C   UNL     1       1.147   9.254  20.761  0.00  0.00    +0.000 C 
ATOM     13  C   UNL     1       1.543   7.771  20.698  0.00  0.00    +0.000 C 
BRANCH   8  18
ATOM     14  C   UNL     1       0.833   3.047  19.650  0.00  0.00    +0.000 C 
ATOM     15  C   UNL     1       2.044   3.969  19.721  0.00  0.00    +0.000 C 
ATOM     16  C   UNL     1       3.320   3.175  20.034  0.00  0.00    +0.000 C 
ATOM     17  C   UNL     1       2.171   5.053  18.584  0.00  0.00    +0.000 C 
ATOM     18  N   UNL     1       2.682   5.955  19.638  0.00  0.00    +0.000 NA
ATOM     19  C   UNL     1       1.857   5.225  20.629  0.00  0.00    +0.000 C 
ENDBRANCH   8  18
BRANCH  12  20
ATOM     20  C   UNL     1       0.185   9.438  21.867  0.00  0.00    +0.000 C 
ATOM     21  N   UNL     1      -0.565   9.540  22.742  0.00  0.00    +0.000 NA
ENDBRANCH  12  20
ENDBRANCH   1  11
BRANCH   5  22
ATOM     22  C   UNL     1      -3.214  13.387  20.840  0.00  0.00    +0.000 A 
ATOM     23  C   UNL     1      -4.492  12.954  20.463  0.00  0.00    +0.000 A 
ATOM     24  C   UNL     1      -5.497  12.745  21.410  0.00  0.00    +0.000 A 
ATOM     25  C   UNL     1      -5.258  12.991  22.766  0.00  0.00    +0.000 A 
ATOM     26  C   UNL     1      -3.998  13.486  23.145  0.00  0.00    +0.000 A 
ATOM     27  C   UNL     1      -2.989  13.679  22.191  0.00  0.00    +0.000 A 
BRANCH  25  28
ATOM     28  C   UNL     1      -6.320  12.725  23.802  0.00  0.00    +0.000 C 
ATOM     29  F   UNL     1      -6.895  13.859  24.295  0.00  0.00    +0.000 F 
ATOM     30  F   UNL     1      -7.345  11.975  23.311  0.00  0.00    +0.000 F 
ATOM     31  F   UNL     1      -5.844  12.048  24.883  0.00  0.00    +0.000 F 
ENDBRANCH  25  28
ENDBRANCH   5  22
BRANCH   3  32
ATOM     32  C   UNL     1       0.621  14.642  18.872  0.00  0.00    +0.000 C 
ATOM     33  N   UNL     1       1.973  14.795  18.737  0.00  0.00    +0.000 N 
ATOM     34  O   UNL     1      -0.125  15.591  18.660  0.00  0.00    +0.000 OA
ATOM     35  H   UNL     1       2.552  13.989  18.541  0.00  0.00    +0.000 HD
ATOM     36  H   UNL     1       2.254  15.677  18.326  0.00  0.00    +0.000 HD
ENDBRANCH   3  32
TORSDOF 6
ENDMDL
MODEL 2
REMARK VINA RESULT:      -8.2      0.297      1.099
REMARK  Name = 
REMARK  8 active torsions:
REMARK  status: ('A' for Active; 'I' for Inactive)
REMARK    1  A    between atoms: C_1  and  C_2
REMARK    2  A    between atoms: C_2  and  C_3
REMARK    3  A    between atoms: N_5  and  C_6
REMARK    4  A    between atoms: C_9  and  N_10
REMARK    5  A    between atoms: C_12  and  C_13
REMARK    6  A    between atoms: N_17  and  C_18
REMARK    7  A    between atoms: C_21  and  C_22
REMARK    8  A    between atoms: C_29  and  C_30
REMARK                            x       y       z     vdW  Elec       q    Type
REMARK                         _______ _______ _______ _____ _____    ______ ____
ROOT
ATOM      1  N   UNL     1       0.388  10.946  19.404  0.00  0.00    +0.000 N 
ATOM      2  C   UNL     1       1.187  11.974  19.013  0.00  0.00    +0.000 A 
ATOM      3  C   UNL     1       0.437  13.129  19.150  0.00  0.00    +0.000 A 
ATOM      4  C   UNL     1      -0.823  12.671  19.636  0.00  0.00    +0.000 A 
ATOM      5  N   UNL     1      -1.899  13.472  19.852  0.00  0.00    +0.000 N 
ATOM      6  N   UNL     1      -0.819  11.344  19.819  0.00  0.00    +0.000 NA
ATOM      7  H   UNL     1      -1.998  14.317  19.298  0.00  0.00    +0.000 HD
ENDROOT
BRANCH   1  11
ATOM      8  C   UNL     1       2.534   7.144  19.485  0.00  0.00    +0.000 C 
ATOM      9  C   UNL     1       1.993   7.697  18.155  0.00  0.00    +0.000 C 
ATOM     10  C   UNL     1       1.704   9.199  18.241  0.00  0.00    +0.000 C 
ATOM     11  C   UNL     1       0.716   9.521  19.377  0.00  0.00    +0.000 C 
ATOM     12  C   UNL     1       1.266   9.031  20.733  0.00  0.00    +0.000 C 
ATOM     13  C   UNL     1       1.621   7.538  20.664  0.00  0.00    +0.000 C 
BRANCH   8  18
ATOM     14  C   UNL     1       0.797   2.860  19.654  0.00  0.00    +0.000 C 
ATOM     15  C   UNL     1       2.040   3.739  19.708  0.00  0.00    +0.000 C 
ATOM     16  C   UNL     1       3.293   2.901  19.997  0.00  0.00    +0.000 C 
ATOM     17  C   UNL     1       2.185   4.823  18.573  0.00  0.00    +0.000 C 
ATOM     18  N   UNL     1       2.744   5.702  19.622  0.00  0.00    +0.000 NA
ATOM     19  C   UNL     1       1.910   4.997  20.624  0.00  0.00    +0.000 C 
ENDBRANCH   8  18
BRANCH  12  20
ATOM     20  C   UNL     1       0.271   9.230  21.806  0.00  0.00    +0.000 C 
ATOM     21  N   UNL     1      -0.518   9.344  22.645  0.00  0.00    +0.000 NA
ENDBRANCH  12  20
ENDBRANCH   1  11
BRANCH   5  22
ATOM     22  C   UNL     1      -2.933  13.297  20.798  0.00  0.00    +0.000 A 
ATOM     23  C   UNL     1      -2.698  13.423  22.173  0.00  0.00    +0.000 A 
ATOM     24  C   UNL     1      -3.726  13.264  23.104  0.00  0.00    +0.000 A 
ATOM     25  C   UNL     1      -5.021  12.944  22.684  0.00  0.00    +0.000 A 
ATOM     26  C   UNL     1      -5.252  12.753  21.310  0.00  0.00    +0.000 A 
ATOM     27  C   UNL     1      -4.218  12.930  20.380  0.00  0.00    +0.000 A 
BRANCH  25  28
ATOM     28  C   UNL     1      -6.149  12.816  23.674  0.00  0.00    +0.000 C 
ATOM     29  F   UNL     1      -7.230  12.142  23.184  0.00  0.00    +0.000 F 
ATOM     30  F   UNL     1      -5.777  12.145  24.799  0.00  0.00    +0.000 F 
ATOM     31  F   UNL     1      -6.622  14.021  24.096  0.00  0.00    +0.000 F 
ENDBRANCH  25  28
ENDBRANCH   5  22
BRANCH   3  32
ATOM     32  C   UNL     1       0.946  14.452  18.853  0.00  0.00    +0.000 C 
ATOM     33  N   UNL     1       2.242  14.521  18.423  0.00  0.00    +0.000 N 
ATOM     34  O   UNL     1       0.261  15.467  18.896  0.00  0.00    +0.000 OA
ATOM     35  H   UNL     1       2.687  13.701  18.034  0.00  0.00    +0.000 HD
ATOM     36  H   UNL     1       2.503  15.418  18.030  0.00  0.00    +0.000 HD
ENDBRANCH   3  32
TORSDOF 6
ENDMDL
MODEL 3
REMARK VINA RESULT:      -8.2      1.975      2.518
REMARK  Name = 
REMARK  8 active torsions:
REMARK  status: ('A' for Active; 'I' for Inactive)
REMARK    1  A    between atoms: C_1  and  C_2
REMARK    2  A    between atoms: C_2  and  C_3
REMARK    3  A    between atoms: N_5  and  C_6
REMARK    4  A    between atoms: C_9  and  N_10
REMARK    5  A    between atoms: C_12  and  C_13
REMARK    6  A    between atoms: N_17  and  C_18
REMARK    7  A    between atoms: C_21  and  C_22
REMARK    8  A    between atoms: C_29  and  C_30
REMARK                            x       y       z     vdW  Elec       q    Type
REMARK                         _______ _______ _______ _____ _____    ______ ____
ROOT
ATOM      1  N   UNL     1       0.899  10.152  18.810  0.00  0.00    +0.000 N 
ATOM      2  C   UNL     1       1.691  11.250  18.926  0.00  0.00    +0.000 A 
ATOM      3  C   UNL     1       0.865  12.349  18.763  0.00  0.00    +0.000 A 
ATOM      4  C   UNL     1      -0.427  11.786  18.547  0.00  0.00    +0.000 A 
ATOM      5  N   UNL     1      -1.543  12.509  18.272  0.00  0.00    +0.000 N 
ATOM      6  N   UNL     1      -0.390  10.448  18.616  0.00  0.00    +0.000 NA
ATOM      7  H   UNL     1      -1.442  13.402  17.799  0.00  0.00    +0.000 HD
ENDROOT
BRANCH   1  11
ATOM      8  C   UNL     1       3.275   6.513  19.236  0.00  0.00    +0.000 C 
ATOM      9  C   UNL     1       2.891   7.025  17.836  0.00  0.00    +0.000 C 
ATOM     10  C   UNL     1       2.487   8.503  17.863  0.00  0.00    +0.000 C 
ATOM     11  C   UNL     1       1.327   8.754  18.845  0.00  0.00    +0.000 C 
ATOM     12  C   UNL     1       1.712   8.305  20.270  0.00  0.00    +0.000 C 
ATOM     13  C   UNL     1       2.178   6.841  20.269  0.00  0.00    +0.000 C 
BRANCH   8  18
ATOM     14  C   UNL     1       2.778   2.132  17.833  0.00  0.00    +0.000 C 
ATOM     15  C   UNL     1       3.391   3.089  18.849  0.00  0.00    +0.000 C 
ATOM     16  C   UNL     1       4.139   2.319  19.946  0.00  0.00    +0.000 C 
ATOM     17  C   UNL     1       4.133   4.352  18.268  0.00  0.00    +0.000 C 
ATOM     18  N   UNL     1       3.565   5.090  19.416  0.00  0.00    +0.000 NA
ATOM     19  C   UNL     1       2.407   4.165  19.408  0.00  0.00    +0.000 C 
ENDBRANCH   8  18
BRANCH  12  20
ATOM     20  C   UNL     1       0.562   8.433  21.188  0.00  0.00    +0.000 C 
ATOM     21  N   UNL     1      -0.363   8.515  21.879  0.00  0.00    +0.000 NA
ENDBRANCH  12  20
ENDBRANCH   1  11
BRANCH   5  22
ATOM     22  C   UNL     1      -2.882  12.190  18.587  0.00  0.00    +0.000 A 
ATOM     23  C   UNL     1      -3.700  11.492  17.689  0.00  0.00    +0.000 A 
ATOM     24  C   UNL     1      -5.019  11.167  18.011  0.00  0.00    +0.000 A 
ATOM     25  C   UNL     1      -5.569  11.556  19.236  0.00  0.00    +0.000 A 
ATOM     26  C   UNL     1      -4.775  12.312  20.117  0.00  0.00    +0.000 A 
ATOM     27  C   UNL     1      -3.446  12.621  19.794  0.00  0.00    +0.000 A 
BRANCH  25  28
ATOM     28  C   UNL     1      -6.976  11.170  19.614  0.00  0.00    +0.000 C 
ATOM     29  F   UNL     1      -7.917  12.063  19.191  0.00  0.00    +0.000 F 
ATOM     30  F   UNL     1      -7.343   9.970  19.085  0.00  0.00    +0.000 F 
ATOM     31  F   UNL     1      -7.149  11.056  20.960  0.00  0.00    +0.000 F 
ENDBRANCH  25  28
ENDBRANCH   5  22
BRANCH   3  32
ATOM     32  C   UNL     1       1.332  13.717  18.842  0.00  0.00    +0.000 C 
ATOM     33  N   UNL     1       2.677  13.891  19.023  0.00  0.00    +0.000 N 
ATOM     34  O   UNL     1       0.607  14.691  18.681  0.00  0.00    +0.000 OA
ATOM     35  H   UNL     1       3.315  13.143  18.788  0.00  0.00    +0.000 HD
ATOM     36  H   UNL     1       2.999  14.839  18.869  0.00  0.00    +0.000 HD
ENDBRANCH   3  32
TORSDOF 6
ENDMDL
MODEL 4
REMARK VINA RESULT:      -8.1      1.697      2.444
REMARK  Name = 
REMARK  8 active torsions:
REMARK  status: ('A' for Active; 'I' for Inactive)
REMARK    1  A    between atoms: C_1  and  C_2
REMARK    2  A    between atoms: C_2  and  C_3
REMARK    3  A    between atoms: N_5  and  C_6
REMARK    4  A    between atoms: C_9  and  N_10
REMARK    5  A    between atoms: C_12  and  C_13
REMARK    6  A    between atoms: N_17  and  C_18
REMARK    7  A    between atoms: C_21  and  C_22
REMARK    8  A    between atoms: C_29  and  C_30
REMARK                            x       y       z     vdW  Elec       q    Type
REMARK                         _______ _______ _______ _____ _____    ______ ____
ROOT
ATOM      1  N   UNL     1       0.763  10.154  18.863  0.00  0.00    +0.000 N 
ATOM      2  C   UNL     1       1.598  11.224  18.805  0.00  0.00    +0.000 A 
ATOM      3  C   UNL     1       0.796  12.340  18.645  0.00  0.00    +0.000 A 
ATOM      4  C   UNL     1      -0.529  11.816  18.615  0.00  0.00    +0.000 A 
ATOM      5  N   UNL     1      -1.645  12.562  18.404  0.00  0.00    +0.000 N 
ATOM      6  N   UNL     1      -0.529  10.487  18.787  0.00  0.00    +0.000 NA
ATOM      7  H   UNL     1      -1.568  13.411  17.853  0.00  0.00    +0.000 HD
ENDROOT
BRANCH   1  11
ATOM      8  C   UNL     1       3.038   6.465  19.397  0.00  0.00    +0.000 C 
ATOM      9  C   UNL     1       2.600   6.905  17.989  0.00  0.00    +0.000 C 
ATOM     10  C   UNL     1       2.245   8.394  17.944  0.00  0.00    +0.000 C 
ATOM     11  C   UNL     1       1.147   8.746  18.965  0.00  0.00    +0.000 C 
ATOM     12  C   UNL     1       1.590   8.371  20.394  0.00  0.00    +0.000 C 
ATOM     13  C   UNL     1       2.007   6.894  20.461  0.00  0.00    +0.000 C 
BRANCH   8  18
ATOM     14  C   UNL     1       3.261   2.113  17.845  0.00  0.00    +0.000 C 
ATOM     15  C   UNL     1       3.414   3.057  19.031  0.00  0.00    +0.000 C 
ATOM     16  C   UNL     1       3.725   2.278  20.316  0.00  0.00    +0.000 C 
ATOM     17  C   UNL     1       4.273   4.356  18.790  0.00  0.00    +0.000 C 
ATOM     18  N   UNL     1       3.290   5.046  19.652  0.00  0.00    +0.000 NA
ATOM     19  C   UNL     1       2.254   4.090  19.197  0.00  0.00    +0.000 C 
ENDBRANCH   8  18
BRANCH  12  20
ATOM     20  C   UNL     1       0.494   8.596  21.359  0.00  0.00    +0.000 C 
ATOM     21  N   UNL     1      -0.392   8.760  22.085  0.00  0.00    +0.000 NA
ENDBRANCH  12  20
ENDBRANCH   1  11
BRANCH   5  22
ATOM     22  C   UNL     1      -2.951  12.322  18.885  0.00  0.00    +0.000 A 
ATOM     23  C   UNL     1      -3.366  12.784  20.141  0.00  0.00    +0.000 A 
ATOM     24  C   UNL     1      -4.663  12.556  20.606  0.00  0.00    +0.000 A 
ATOM     25  C   UNL     1      -5.578  11.833  19.835  0.00  0.00    +0.000 A 
ATOM     26  C   UNL     1      -5.150  11.312  18.601  0.00  0.00    +0.000 A 
ATOM     27  C   UNL     1      -3.851  11.557  18.133  0.00  0.00    +0.000 A 
BRANCH  25  28
ATOM     28  C   UNL     1      -6.994  11.622  20.305  0.00  0.00    +0.000 C 
ATOM     29  F   UNL     1      -7.338  10.306  20.421  0.00  0.00    +0.000 F 
ATOM     30  F   UNL     1      -7.220  12.171  21.530  0.00  0.00    +0.000 F 
ATOM     31  F   UNL     1      -7.916  12.175  19.470  0.00  0.00    +0.000 F 
ENDBRANCH  25  28
ENDBRANCH   5  22
BRANCH   3  32
ATOM     32  C   UNL     1       1.313  13.690  18.563  0.00  0.00    +0.000 C 
ATOM     33  N   UNL     1       2.517  13.842  17.932  0.00  0.00    +0.000 N 
ATOM     34  O   UNL     1       0.700  14.676  18.954  0.00  0.00    +0.000 OA
ATOM     35  H   UNL     1       2.844  13.127  17.296  0.00  0.00    +0.000 HD
ATOM     36  H   UNL     1       2.752  14.802  17.709  0.00  0.00    +0.000 HD
ENDBRANCH   3  32
TORSDOF 6
ENDMDL
MODEL 5
REMARK VINA RESULT:      -8.0      0.688      1.428
REMARK  Name = 
REMARK  8 active torsions:
REMARK  status: ('A' for Active; 'I' for Inactive)
REMARK    1  A    between atoms: C_1  and  C_2
REMARK    2  A    between atoms: C_2  and  C_3
REMARK    3  A    between atoms: N_5  and  C_6
REMARK    4  A    between atoms: C_9  and  N_10
REMARK    5  A    between atoms: C_12  and  C_13
REMARK    6  A    between atoms: N_17  and  C_18
REMARK    7  A    between atoms: C_21  and  C_22
REMARK    8  A    between atoms: C_29  and  C_30
REMARK                            x       y       z     vdW  Elec       q    Type
REMARK                         _______ _______ _______ _____ _____    ______ ____
ROOT
ATOM      1  N   UNL     1       0.209  11.147  19.338  0.00  0.00    +0.000 N 
ATOM      2  C   UNL     1       0.971  12.207  18.960  0.00  0.00    +0.000 A 
ATOM      3  C   UNL     1       0.190  13.336  19.140  0.00  0.00    +0.000 A 
ATOM      4  C   UNL     1      -1.047  12.830  19.636  0.00  0.00    +0.000 A 
ATOM      5  N   UNL     1      -2.141  13.593  19.891  0.00  0.00    +0.000 N 
ATOM      6  N   UNL     1      -1.001  11.499  19.783  0.00  0.00    +0.000 NA
ATOM      7  H   UNL     1      -2.274  14.448  19.361  0.00  0.00    +0.000 HD
ENDROOT
BRANCH   1  11
ATOM      8  C   UNL     1       2.463   7.408  19.280  0.00  0.00    +0.000 C 
ATOM      9  C   UNL     1       1.882   7.979  17.974  0.00  0.00    +0.000 C 
ATOM     10  C   UNL     1       1.551   9.469  18.104  0.00  0.00    +0.000 C 
ATOM     11  C   UNL     1       0.577   9.733  19.267  0.00  0.00    +0.000 C 
ATOM     12  C   UNL     1       1.166   9.225  20.599  0.00  0.00    +0.000 C 
ATOM     13  C   UNL     1       1.563   7.745  20.485  0.00  0.00    +0.000 C 
BRANCH   8  18
ATOM     14  C   UNL     1       4.142   3.523  17.411  0.00  0.00    +0.000 C 
ATOM     15  C   UNL     1       3.451   4.175  18.603  0.00  0.00    +0.000 C 
ATOM     16  C   UNL     1       3.070   3.126  19.657  0.00  0.00    +0.000 C 
ATOM     17  C   UNL     1       4.102   5.500  19.155  0.00  0.00    +0.000 C 
ATOM     18  N   UNL     1       2.717   5.970  19.375  0.00  0.00    +0.000 NA
ATOM     19  C   UNL     1       2.278   5.136  18.232  0.00  0.00    +0.000 C 
ENDBRANCH   8  18
BRANCH  12  20
ATOM     20  C   UNL     1       0.187   9.367  21.695  0.00  0.00    +0.000 C 
ATOM     21  N   UNL     1      -0.548   9.483  22.582  0.00  0.00    +0.000 NA
ENDBRANCH  12  20
ENDBRANCH   1  11
BRANCH   5  22
ATOM     22  C   UNL     1      -3.152  13.364  20.850  0.00  0.00    +0.000 A 
ATOM     23  C   UNL     1      -2.854  13.226  22.212  0.00  0.00    +0.000 A 
ATOM     24  C   UNL     1      -3.860  13.014  23.157  0.00  0.00    +0.000 A 
ATOM     25  C   UNL     1      -5.197  12.905  22.762  0.00  0.00    +0.000 A 
ATOM     26  C   UNL     1      -5.497  12.978  21.390  0.00  0.00    +0.000 A 
ATOM     27  C   UNL     1      -4.485  13.208  20.447  0.00  0.00    +0.000 A 
BRANCH  25  28
ATOM     28  C   UNL     1      -6.295  12.723  23.777  0.00  0.00    +0.000 C 
ATOM     29  F   UNL     1      -7.347  11.989  23.314  0.00  0.00    +0.000 F 
ATOM     30  F   UNL     1      -5.862  12.082  24.898  0.00  0.00    +0.000 F 
ATOM     31  F   UNL     1      -6.823  13.904  24.201  0.00  0.00    +0.000 F 
ENDBRANCH  25  28
ENDBRANCH   5  22
BRANCH   3  32
ATOM     32  C   UNL     1       0.656  14.680  18.869  0.00  0.00    +0.000 C 
ATOM     33  N   UNL     1       2.009  14.844  18.759  0.00  0.00    +0.000 N 
ATOM     34  O   UNL     1      -0.093  15.628  18.666  0.00  0.00    +0.000 OA
ATOM     35  H   UNL     1       2.596  14.046  18.555  0.00  0.00    +0.000 HD
ATOM     36  H   UNL     1       2.290  15.737  18.371  0.00  0.00    +0.000 HD
ENDBRANCH   3  32
TORSDOF 6
ENDMDL
MODEL 6
REMARK VINA RESULT:      -7.8      1.061      1.152
REMARK  Name = 
REMARK  8 active torsions:
REMARK  status: ('A' for Active; 'I' for Inactive)
REMARK    1  A    between atoms: C_1  and  C_2
REMARK    2  A    between atoms: C_2  and  C_3
REMARK    3  A    between atoms: N_5  and  C_6
REMARK    4  A    between atoms: C_9  and  N_10
REMARK    5  A    between atoms: C_12  and  C_13
REMARK    6  A    between atoms: N_17  and  C_18
REMARK    7  A    between atoms: C_21  and  C_22
REMARK    8  A    between atoms: C_29  and  C_30
REMARK                            x       y       z     vdW  Elec       q    Type
REMARK                         _______ _______ _______ _____ _____    ______ ____
ROOT
ATOM      1  N   UNL     1       0.945  10.576  19.104  0.00  0.00    +0.000 N 
ATOM      2  C   UNL     1       1.823  11.526  18.687  0.00  0.00    +0.000 A 
ATOM      3  C   UNL     1       1.194  12.746  18.861  0.00  0.00    +0.000 A 
ATOM      4  C   UNL     1      -0.084  12.407  19.396  0.00  0.00    +0.000 A 
ATOM      5  N   UNL     1      -1.068  13.305  19.660  0.00  0.00    +0.000 N 
ATOM      6  N   UNL     1      -0.200  11.083  19.570  0.00  0.00    +0.000 NA
ATOM      7  H   UNL     1      -1.107  14.161  19.116  0.00  0.00    +0.000 HD
ENDROOT
BRANCH   1  11
ATOM      8  C   UNL     1       2.698   6.577  19.201  0.00  0.00    +0.000 C 
ATOM      9  C   UNL     1       2.298   7.213  17.858  0.00  0.00    +0.000 C 
ATOM     10  C   UNL     1       2.152   8.734  17.970  0.00  0.00    +0.000 C 
ATOM     11  C   UNL     1       1.132   9.126  19.055  0.00  0.00    +0.000 C 
ATOM     12  C   UNL     1       1.546   8.552  20.425  0.00  0.00    +0.000 C 
ATOM     13  C   UNL     1       1.756   7.033  20.335  0.00  0.00    +0.000 C 
BRANCH   8  18
ATOM     14  C   UNL     1       1.332   2.673  21.274  0.00  0.00    +0.000 C 
ATOM     15  C   UNL     1       2.190   3.314  20.189  0.00  0.00    +0.000 C 
ATOM     16  C   UNL     1       3.039   2.258  19.467  0.00  0.00    +0.000 C 
ATOM     17  C   UNL     1       1.480   4.374  19.265  0.00  0.00    +0.000 C 
ATOM     18  N   UNL     1       2.756   5.119  19.308  0.00  0.00    +0.000 NA
ATOM     19  C   UNL     1       3.011   4.557  20.655  0.00  0.00    +0.000 C 
ENDBRANCH   8  18
BRANCH  12  20
ATOM     20  C   UNL     1       0.511   8.825  21.443  0.00  0.00    +0.000 C 
ATOM     21  N   UNL     1      -0.321   9.002  22.229  0.00  0.00    +0.000 NA
ENDBRANCH  12  20
ENDBRANCH   1  11
BRANCH   5  22
ATOM     22  C   UNL     1      -2.075  13.221  20.647  0.00  0.00    +0.000 A 
ATOM     23  C   UNL     1      -3.400  12.907  20.318  0.00  0.00    +0.000 A 
ATOM     24  C   UNL     1      -4.388  12.812  21.299  0.00  0.00    +0.000 A 
ATOM     25  C   UNL     1      -4.083  13.057  22.642  0.00  0.00    +0.000 A 
ATOM     26  C   UNL     1      -2.770  13.435  22.973  0.00  0.00    +0.000 A 
ATOM     27  C   UNL     1      -1.778  13.513  21.984  0.00  0.00    +0.000 A 
BRANCH  25  28
ATOM     28  C   UNL     1      -5.131  12.912  23.715  0.00  0.00    +0.000 C 
ATOM     29  F   UNL     1      -5.509  14.099  24.271  0.00  0.00    +0.000 F 
ATOM     30  F   UNL     1      -6.276  12.343  23.247  0.00  0.00    +0.000 F 
ATOM     31  F   UNL     1      -4.721  12.130  24.752  0.00  0.00    +0.000 F 
ENDBRANCH  25  28
ENDBRANCH   5  22
BRANCH   3  32
ATOM     32  C   UNL     1       1.816  14.017  18.551  0.00  0.00    +0.000 C 
ATOM     33  N   UNL     1       2.941  13.969  17.776  0.00  0.00    +0.000 N 
ATOM     34  O   UNL     1       1.346  15.099  18.880  0.00  0.00    +0.000 OA
ATOM     35  H   UNL     1       3.122  13.155  17.204  0.00  0.00    +0.000 HD
ATOM     36  H   UNL     1       3.232  14.867  17.408  0.00  0.00    +0.000 HD
ENDBRANCH   3  32
TORSDOF 6
ENDMDL
MODEL 7
REMARK VINA RESULT:      -7.8      0.937      1.178
REMARK  Name = 
REMARK  8 active torsions:
REMARK  status: ('A' for Active; 'I' for Inactive)
REMARK    1  A    between atoms: C_1  and  C_2
REMARK    2  A    between atoms: C_2  and  C_3
REMARK    3  A    between atoms: N_5  and  C_6
REMARK    4  A    between atoms: C_9  and  N_10
REMARK    5  A    between atoms: C_12  and  C_13
REMARK    6  A    between atoms: N_17  and  C_18
REMARK    7  A    between atoms: C_21  and  C_22
REMARK    8  A    between atoms: C_29  and  C_30
REMARK                            x       y       z     vdW  Elec       q    Type
REMARK                         _______ _______ _______ _____ _____    ______ ____
ROOT
ATOM      1  N   UNL     1       0.694  10.672  19.255  0.00  0.00    +0.000 N 
ATOM      2  C   UNL     1       1.532  11.645  18.810  0.00  0.00    +0.000 A 
ATOM      3  C   UNL     1       0.846  12.841  18.934  0.00  0.00    +0.000 A 
ATOM      4  C   UNL     1      -0.420  12.464  19.469  0.00  0.00    +0.000 A 
ATOM      5  N   UNL     1      -1.446  13.325  19.691  0.00  0.00    +0.000 N 
ATOM      6  N   UNL     1      -0.478  11.144  19.691  0.00  0.00    +0.000 NA
ATOM      7  H   UNL     1      -1.519  14.158  19.115  0.00  0.00    +0.000 HD
ENDROOT
BRANCH   1  11
ATOM      8  C   UNL     1       2.633   6.766  19.466  0.00  0.00    +0.000 C 
ATOM      9  C   UNL     1       2.164   7.323  18.110  0.00  0.00    +0.000 C 
ATOM     10  C   UNL     1       1.951   8.839  18.162  0.00  0.00    +0.000 C 
ATOM     11  C   UNL     1       0.947   9.232  19.261  0.00  0.00    +0.000 C 
ATOM     12  C   UNL     1       1.428   8.738  20.641  0.00  0.00    +0.000 C 
ATOM     13  C   UNL     1       1.706   7.228  20.609  0.00  0.00    +0.000 C 
BRANCH   8  18
ATOM     14  C   UNL     1       2.456   2.512  17.657  0.00  0.00    +0.000 C 
ATOM     15  C   UNL     1       2.704   3.367  18.893  0.00  0.00    +0.000 C 
ATOM     16  C   UNL     1       2.961   2.488  20.125  0.00  0.00    +0.000 C 
ATOM     17  C   UNL     1       3.672   4.598  18.715  0.00  0.00    +0.000 C 
ATOM     18  N   UNL     1       2.763   5.318  19.633  0.00  0.00    +0.000 NA
ATOM     19  C   UNL     1       1.642   4.484  19.139  0.00  0.00    +0.000 C 
ENDBRANCH   8  18
BRANCH  12  20
ATOM     20  C   UNL     1       0.411   9.008  21.679  0.00  0.00    +0.000 C 
ATOM     21  N   UNL     1      -0.376   9.181  22.509  0.00  0.00    +0.000 NA
ENDBRANCH  12  20
ENDBRANCH   1  11
BRANCH   5  22
ATOM     22  C   UNL     1      -2.459  13.232  20.671  0.00  0.00    +0.000 A 
ATOM     23  C   UNL     1      -3.800  13.028  20.324  0.00  0.00    +0.000 A 
ATOM     24  C   UNL     1      -4.795  12.922  21.298  0.00  0.00    +0.000 A 
ATOM     25  C   UNL     1      -4.478  13.047  22.654  0.00  0.00    +0.000 A 
ATOM     26  C   UNL     1      -3.144  13.316  23.009  0.00  0.00    +0.000 A 
ATOM     27  C   UNL     1      -2.148  13.405  22.026  0.00  0.00    +0.000 A 
BRANCH  25  28
ATOM     28  C   UNL     1      -5.535  12.889  23.716  0.00  0.00    +0.000 C 
ATOM     29  F   UNL     1      -6.618  12.168  23.302  0.00  0.00    +0.000 F 
ATOM     30  F   UNL     1      -5.066  12.247  24.822  0.00  0.00    +0.000 F 
ATOM     31  F   UNL     1      -6.027  14.080  24.155  0.00  0.00    +0.000 F 
ENDBRANCH  25  28
ENDBRANCH   5  22
BRANCH   3  32
ATOM     32  C   UNL     1       1.413  14.127  18.582  0.00  0.00    +0.000 C 
ATOM     33  N   UNL     1       2.609  14.102  17.918  0.00  0.00    +0.000 N 
ATOM     34  O   UNL     1       0.846  15.194  18.780  0.00  0.00    +0.000 OA
ATOM     35  H   UNL     1       2.895  13.264  17.431  0.00  0.00    +0.000 HD
ATOM     36  H   UNL     1       2.876  14.990  17.509  0.00  0.00    +0.000 HD
ENDBRANCH   3  32
TORSDOF 6
ENDMDL
MODEL 8
REMARK VINA RESULT:      -7.7      5.126      6.840
REMARK  Name = 
REMARK  8 active torsions:
REMARK  status: ('A' for Active; 'I' for Inactive)
REMARK    1  A    between atoms: C_1  and  C_2
REMARK    2  A    between atoms: C_2  and  C_3
REMARK    3  A    between atoms: N_5  and  C_6
REMARK    4  A    between atoms: C_9  and  N_10
REMARK    5  A    between atoms: C_12  and  C_13
REMARK    6  A    between atoms: N_17  and  C_18
REMARK    7  A    between atoms: C_21  and  C_22
REMARK    8  A    between atoms: C_29  and  C_30
REMARK                            x       y       z     vdW  Elec       q    Type
REMARK                         _______ _______ _______ _____ _____    ______ ____
ROOT
ATOM      1  N   UNL     1       0.568  10.831  19.543  0.00  0.00    +0.000 N 
ATOM      2  C   UNL     1      -0.661  11.410  19.597  0.00  0.00    +0.000 A 
ATOM      3  C   UNL     1      -0.450  12.758  19.831  0.00  0.00    +0.000 A 
ATOM      4  C   UNL     1       0.969  12.881  19.905  0.00  0.00    +0.000 A 
ATOM      5  N   UNL     1       1.624  14.036  20.191  0.00  0.00    +0.000 N 
ATOM      6  N   UNL     1       1.570  11.703  19.690  0.00  0.00    +0.000 NA
ATOM      7  H   UNL     1       1.159  14.732  20.766  0.00  0.00    +0.000 HD
ENDROOT
BRANCH   1  11
ATOM      8  C   UNL     1       2.610   6.978  19.302  0.00  0.00    +0.000 C 
ATOM      9  C   UNL     1       2.136   7.683  18.018  0.00  0.00    +0.000 C 
ATOM     10  C   UNL     1       1.882   9.176  18.250  0.00  0.00    +0.000 C 
ATOM     11  C   UNL     1       0.860   9.407  19.378  0.00  0.00    +0.000 C 
ATOM     12  C   UNL     1       1.343   8.763  20.693  0.00  0.00    +0.000 C 
ATOM     13  C   UNL     1       1.662   7.275  20.482  0.00  0.00    +0.000 C 
BRANCH   8  18
ATOM     14  C   UNL     1       0.752   2.752  19.007  0.00  0.00    +0.000 C 
ATOM     15  C   UNL     1       2.018   3.585  19.169  0.00  0.00    +0.000 C 
ATOM     16  C   UNL     1       3.242   2.685  19.390  0.00  0.00    +0.000 C 
ATOM     17  C   UNL     1       2.213   4.773  18.153  0.00  0.00    +0.000 C 
ATOM     18  N   UNL     1       2.777   5.525  19.294  0.00  0.00    +0.000 NA
ATOM     19  C   UNL     1       1.907   4.747  20.207  0.00  0.00    +0.000 C 
ENDBRANCH   8  18
BRANCH  12  20
ATOM     20  C   UNL     1       0.312   8.878  21.745  0.00  0.00    +0.000 C 
ATOM     21  N   UNL     1      -0.511   9.004  22.549  0.00  0.00    +0.000 NA
ENDBRANCH  12  20
ENDBRANCH   1  11
BRANCH   5  22
ATOM     22  C   UNL     1       2.911  14.431  19.763  0.00  0.00    +0.000 A 
ATOM     23  C   UNL     1       3.946  14.672  20.676  0.00  0.00    +0.000 A 
ATOM     24  C   UNL     1       5.220  15.048  20.246  0.00  0.00    +0.000 A 
ATOM     25  C   UNL     1       5.489  15.223  18.884  0.00  0.00    +0.000 A 
ATOM     26  C   UNL     1       4.439  15.044  17.966  0.00  0.00    +0.000 A 
ATOM     27  C   UNL     1       3.166  14.651  18.404  0.00  0.00    +0.000 A 
BRANCH  25  28
ATOM     28  C   UNL     1       6.871  15.583  18.406  0.00  0.00    +0.000 C 
ATOM     29  F   UNL     1       7.053  16.923  18.229  0.00  0.00    +0.000 F 
ATOM     30  F   UNL     1       7.840  15.192  19.279  0.00  0.00    +0.000 F 
ATOM     31  F   UNL     1       7.185  15.004  17.214  0.00  0.00    +0.000 F 
ENDBRANCH  25  28
ENDBRANCH   5  22
BRANCH   3  32
ATOM     32  C   UNL     1      -1.520  13.727  19.933  0.00  0.00    +0.000 C 
ATOM     33  N   UNL     1      -2.793  13.243  19.810  0.00  0.00    +0.000 N 
ATOM     34  O   UNL     1      -1.340  14.911  20.195  0.00  0.00    +0.000 OA
ATOM     35  H   UNL     1      -2.973  12.260  19.967  0.00  0.00    +0.000 HD
ATOM     36  H   UNL     1      -3.516  13.896  20.087  0.00  0.00    +0.000 HD
ENDBRANCH   3  32
TORSDOF 6
ENDMDL
MODEL 9
REMARK VINA RESULT:      -7.7      5.117      6.806
REMARK  Name = 
REMARK  8 active torsions:
REMARK  status: ('A' for Active; 'I' for Inactive)
REMARK    1  A    between atoms: C_1  and  C_2
REMARK    2  A    between atoms: C_2  and  C_3
REMARK    3  A    between atoms: N_5  and  C_6
REMARK    4  A    between atoms: C_9  and  N_10
REMARK    5  A    between atoms: C_12  and  C_13
REMARK    6  A    between atoms: N_17  and  C_18
REMARK    7  A    between atoms: C_21  and  C_22
REMARK    8  A    between atoms: C_29  and  C_30
REMARK                            x       y       z     vdW  Elec       q    Type
REMARK                         _______ _______ _______ _____ _____    ______ ____
ROOT
ATOM      1  N   UNL     1       0.552  10.910  19.586  0.00  0.00    +0.000 N 
ATOM      2  C   UNL     1      -0.671  11.501  19.631  0.00  0.00    +0.000 A 
ATOM      3  C   UNL     1      -0.448  12.851  19.843  0.00  0.00    +0.000 A 
ATOM      4  C   UNL     1       0.971  12.963  19.914  0.00  0.00    +0.000 A 
ATOM      5  N   UNL     1       1.638  14.115  20.181  0.00  0.00    +0.000 N 
ATOM      6  N   UNL     1       1.562  11.776  19.718  0.00  0.00    +0.000 NA
ATOM      7  H   UNL     1       1.180  14.825  20.744  0.00  0.00    +0.000 HD
ENDROOT
BRANCH   1  11
ATOM      8  C   UNL     1       2.558   7.036  19.408  0.00  0.00    +0.000 C 
ATOM      9  C   UNL     1       2.091   7.724  18.113  0.00  0.00    +0.000 C 
ATOM     10  C   UNL     1       1.851   9.222  18.320  0.00  0.00    +0.000 C 
ATOM     11  C   UNL     1       0.830   9.481  19.444  0.00  0.00    +0.000 C 
ATOM     12  C   UNL     1       1.308   8.854  20.770  0.00  0.00    +0.000 C 
ATOM     13  C   UNL     1       1.613   7.360  20.583  0.00  0.00    +0.000 C 
BRANCH   8  18
ATOM     14  C   UNL     1       0.662   2.823  19.176  0.00  0.00    +0.000 C 
ATOM     15  C   UNL     1       1.935   3.646  19.328  0.00  0.00    +0.000 C 
ATOM     16  C   UNL     1       3.150   2.738  19.566  0.00  0.00    +0.000 C 
ATOM     17  C   UNL     1       2.144   4.816  18.293  0.00  0.00    +0.000 C 
ATOM     18  N   UNL     1       2.712   5.581  19.424  0.00  0.00    +0.000 NA
ATOM     19  C   UNL     1       1.832   4.825  20.346  0.00  0.00    +0.000 C 
ENDBRANCH   8  18
BRANCH  12  20
ATOM     20  C   UNL     1       0.278   8.997  21.819  0.00  0.00    +0.000 C 
ATOM     21  N   UNL     1      -0.531   9.066  22.644  0.00  0.00    +0.000 NA
ENDBRANCH  12  20
ENDBRANCH   1  11
BRANCH   5  22
ATOM     22  C   UNL     1       2.928  14.491  19.745  0.00  0.00    +0.000 A 
ATOM     23  C   UNL     1       3.232  14.629  18.385  0.00  0.00    +0.000 A 
ATOM     24  C   UNL     1       4.505  15.015  17.961  0.00  0.00    +0.000 A 
ATOM     25  C   UNL     1       5.524  15.248  18.890  0.00  0.00    +0.000 A 
ATOM     26  C   UNL     1       5.245  15.050  20.254  0.00  0.00    +0.000 A 
ATOM     27  C   UNL     1       3.960  14.678  20.674  0.00  0.00    +0.000 A 
BRANCH  25  28
ATOM     28  C   UNL     1       6.888  15.710  18.447  0.00  0.00    +0.000 C 
ATOM     29  F   UNL     1       7.885  15.369  19.313  0.00  0.00    +0.000 F 
ATOM     30  F   UNL     1       7.248  15.182  17.245  0.00  0.00    +0.000 F 
ATOM     31  F   UNL     1       6.967  17.062  18.302  0.00  0.00    +0.000 F 
ENDBRANCH  25  28
ENDBRANCH   5  22
BRANCH   3  32
ATOM     32  C   UNL     1      -1.510  13.832  19.930  0.00  0.00    +0.000 C 
ATOM     33  N   UNL     1      -2.788  13.353  19.850  0.00  0.00    +0.000 N 
ATOM     34  O   UNL     1      -1.316  15.023  20.142  0.00  0.00    +0.000 OA
ATOM     35  H   UNL     1      -2.972  12.378  20.048  0.00  0.00    +0.000 HD
ATOM     36  H   UNL     1      -3.501  14.021  20.117  0.00  0.00    +0.000 HD
ENDBRANCH   3  32
TORSDOF 6
ENDMDL
