MODEL 1
REMARK VINA RESULT:      -7.3      0.000      0.000
REMARK  Name = 
REMARK  6 active torsions:
REMARK  status: ('A' for Active; 'I' for Inactive)
REMARK    1  A    between atoms: C_1  and  C_2
REMARK    2  A    between atoms: C_2  and  C_3
REMARK    3  A    between atoms: N_5  and  C_6
REMARK    4  A    between atoms: C_6  and  C_7
REMARK    5  A    between atoms: C_13  and  O_14
REMARK    6  A    between atoms: O_14  and  C_15
REMARK                            x       y       z     vdW  Elec       q    Type
REMARK                         _______ _______ _______ _____ _____    ______ ____
ROOT
ATOM      1  C   UNL     1       6.166   4.774  16.010  0.00  0.00    +0.000 C 
ATOM      2  C   UNL     1       5.615   6.202  16.130  0.00  0.00    +0.000 C 
ATOM      3  C   UNL     1       4.421   5.988  17.013  0.00  0.00    +0.000 A 
ATOM      4  C   UNL     1       3.726   6.971  17.701  0.00  0.00    +0.000 A 
ATOM      5  C   UNL     1       2.608   6.590  18.437  0.00  0.00    +0.000 A 
ATOM      6  C   UNL     1       2.201   5.249  18.458  0.00  0.00    +0.000 A 
ATOM      7  C   UNL     1       2.894   4.253  17.749  0.00  0.00    +0.000 A 
ATOM      8  C   UNL     1       4.022   4.635  17.033  0.00  0.00    +0.000 A 
ATOM      9  C   UNL     1       4.943   3.848  16.146  0.00  0.00    +0.000 C 
ENDROOT
BRANCH   7  10
ATOM     10  O   UNL     1       2.317   3.023  17.870  0.00  0.00    +0.000 OA
ATOM     11  C   UNL     1       1.461   2.764  18.967  0.00  0.00    +0.000 C 
ENDBRANCH   7  10
BRANCH   1  12
ATOM     12  C   UNL     1       6.926   4.507  14.714  0.00  0.00    +0.000 C 
BRANCH  12  15
ATOM     13  C   UNL     1       6.443   3.603  12.462  0.00  0.00    +0.000 C 
ATOM     14  O   UNL     1       7.269   4.322  11.916  0.00  0.00    +0.000 OA
ATOM     15  N   UNL     1       6.209   3.617  13.822  0.00  0.00    +0.000 N 
ATOM     16  H   UNL     1       5.484   3.024  14.203  0.00  0.00    +0.000 HD
BRANCH  13  18
ATOM     17  C   UNL     1       4.234   3.189  11.326  0.00  0.00    +0.000 C 
ATOM     18  C   UNL     1       5.575   2.602  11.725  0.00  0.00    +0.000 C 
ENDBRANCH  13  18
ENDBRANCH  12  15
ENDBRANCH   1  12
TORSDOF 4
ENDMDL
MODEL 2
REMARK VINA RESULT:      -6.8      1.949      2.600
REMARK  Name = 
REMARK  6 active torsions:
REMARK  status: ('A' for Active; 'I' for Inactive)
REMARK    1  A    between atoms: C_1  and  C_2
REMARK    2  A    between atoms: C_2  and  C_3
REMARK    3  A    between atoms: N_5  and  C_6
REMARK    4  A    between atoms: C_6  and  C_7
REMARK    5  A    between atoms: C_13  and  O_14
REMARK    6  A    between atoms: O_14  and  C_15
REMARK                            x       y       z     vdW  Elec       q    Type
REMARK                         _______ _______ _______ _____ _____    ______ ____
ROOT
ATOM      1  C   UNL     1       6.113   3.816  14.912  0.00  0.00    +0.000 C 
ATOM      2  C   UNL     1       7.202   4.754  15.454  0.00  0.00    +0.000 C 
ATOM      3  C   UNL     1       6.772   4.917  16.883  0.00  0.00    +0.000 A 
ATOM      4  C   UNL     1       7.550   5.408  17.919  0.00  0.00    +0.000 A 
ATOM      5  C   UNL     1       6.965   5.533  19.176  0.00  0.00    +0.000 A 
ATOM      6  C   UNL     1       5.620   5.184  19.365  0.00  0.00    +0.000 A 
ATOM      7  C   UNL     1       4.825   4.701  18.312  0.00  0.00    +0.000 A 
ATOM      8  C   UNL     1       5.420   4.557  17.065  0.00  0.00    +0.000 A 
ATOM      9  C   UNL     1       4.853   4.126  15.743  0.00  0.00    +0.000 C 
ENDROOT
BRANCH   7  10
ATOM     10  O   UNL     1       3.539   4.453  18.695  0.00  0.00    +0.000 OA
ATOM     11  C   UNL     1       3.078   3.116  18.750  0.00  0.00    +0.000 C 
ENDBRANCH   7  10
BRANCH   1  12
ATOM     12  C   UNL     1       5.846   3.972  13.417  0.00  0.00    +0.000 C 
BRANCH  12  15
ATOM     13  C   UNL     1       5.757   2.267  11.626  0.00  0.00    +0.000 C 
ATOM     14  O   UNL     1       4.605   2.545  11.320  0.00  0.00    +0.000 OA
ATOM     15  N   UNL     1       6.448   2.912  12.632  0.00  0.00    +0.000 N 
ATOM     16  H   UNL     1       7.385   2.607  12.861  0.00  0.00    +0.000 HD
BRANCH  13  18
ATOM     17  C   UNL     1       6.116  -0.207  11.320  0.00  0.00    +0.000 C 
ATOM     18  C   UNL     1       6.578   1.190  10.946  0.00  0.00    +0.000 C 
ENDBRANCH  13  18
ENDBRANCH  12  15
ENDBRANCH   1  12
TORSDOF 4
ENDMDL
MODEL 3
REMARK VINA RESULT:      -6.8      1.887      2.116
REMARK  Name = 
REMARK  6 active torsions:
REMARK  status: ('A' for Active; 'I' for Inactive)
REMARK    1  A    between atoms: C_1  and  C_2
REMARK    2  A    between atoms: C_2  and  C_3
REMARK    3  A    between atoms: N_5  and  C_6
REMARK    4  A    between atoms: C_6  and  C_7
REMARK    5  A    between atoms: C_13  and  O_14
REMARK    6  A    between atoms: O_14  and  C_15
REMARK                            x       y       z     vdW  Elec       q    Type
REMARK                         _______ _______ _______ _____ _____    ______ ____
ROOT
ATOM      1  C   UNL     1       6.376   5.426  17.823  0.00  0.00    +0.000 C 
ATOM      2  C   UNL     1       5.540   6.418  17.000  0.00  0.00    +0.000 C 
ATOM      3  C   UNL     1       4.338   6.598  17.882  0.00  0.00    +0.000 A 
ATOM      4  C   UNL     1       3.401   7.614  17.787  0.00  0.00    +0.000 A 
ATOM      5  C   UNL     1       2.321   7.594  18.665  0.00  0.00    +0.000 A 
ATOM      6  C   UNL     1       2.193   6.558  19.600  0.00  0.00    +0.000 A 
ATOM      7  C   UNL     1       3.133   5.517  19.688  0.00  0.00    +0.000 A 
ATOM      8  C   UNL     1       4.221   5.554  18.824  0.00  0.00    +0.000 A 
ATOM      9  C   UNL     1       5.357   4.594  18.623  0.00  0.00    +0.000 C 
ENDROOT
BRANCH   7  10
ATOM     10  O   UNL     1       2.808   4.592  20.636  0.00  0.00    +0.000 OA
ATOM     11  C   UNL     1       1.455   4.210  20.796  0.00  0.00    +0.000 C 
ENDBRANCH   7  10
BRANCH   1  12
ATOM     12  C   UNL     1       7.287   4.535  16.984  0.00  0.00    +0.000 C 
BRANCH  12  15
ATOM     13  C   UNL     1       6.831   4.459  14.553  0.00  0.00    +0.000 C 
ATOM     14  O   UNL     1       7.610   5.370  14.305  0.00  0.00    +0.000 OA
ATOM     15  N   UNL     1       6.611   3.980  15.828  0.00  0.00    +0.000 N 
ATOM     16  H   UNL     1       5.924   3.251  15.968  0.00  0.00    +0.000 HD
BRANCH  13  18
ATOM     17  C   UNL     1       6.733   3.653  12.169  0.00  0.00    +0.000 C 
ATOM     18  C   UNL     1       6.012   3.737  13.502  0.00  0.00    +0.000 C 
ENDBRANCH  13  18
ENDBRANCH  12  15
ENDBRANCH   1  12
TORSDOF 4
ENDMDL
MODEL 4
REMARK VINA RESULT:      -6.8      3.183      4.741
REMARK  Name = 
REMARK  6 active torsions:
REMARK  status: ('A' for Active; 'I' for Inactive)
REMARK    1  A    between atoms: C_1  and  C_2
REMARK    2  A    between atoms: C_2  and  C_3
REMARK    3  A    between atoms: N_5  and  C_6
REMARK    4  A    between atoms: C_6  and  C_7
REMARK    5  A    between atoms: C_13  and  O_14
REMARK    6  A    between atoms: O_14  and  C_15
REMARK                            x       y       z     vdW  Elec       q    Type
REMARK                         _______ _______ _______ _____ _____    ______ ____
ROOT
ATOM      1  C   UNL     1       4.318   4.602  16.965  0.00  0.00    +0.000 C 
ATOM      2  C   UNL     1       3.852   3.182  17.320  0.00  0.00    +0.000 C 
ATOM      3  C   UNL     1       2.786   3.464  18.338  0.00  0.00    +0.000 A 
ATOM      4  C   UNL     1       1.816   2.575  18.773  0.00  0.00    +0.000 A 
ATOM      5  C   UNL     1       0.935   2.999  19.764  0.00  0.00    +0.000 A 
ATOM      6  C   UNL     1       1.052   4.286  20.306  0.00  0.00    +0.000 A 
ATOM      7  C   UNL     1       2.044   5.184  19.879  0.00  0.00    +0.000 A 
ATOM      8  C   UNL     1       2.907   4.764  18.874  0.00  0.00    +0.000 A 
ATOM      9  C   UNL     1       4.085   5.441  18.235  0.00  0.00    +0.000 C 
ENDROOT
BRANCH   7  10
ATOM     10  O   UNL     1       2.009   6.369  20.555  0.00  0.00    +0.000 OA
ATOM     11  C   UNL     1       1.945   7.580  19.827  0.00  0.00    +0.000 C 
ENDBRANCH   7  10
BRANCH   1  12
ATOM     12  C   UNL     1       5.771   4.682  16.503  0.00  0.00    +0.000 C 
BRANCH  12  15
ATOM     13  C   UNL     1       7.481   5.634  18.016  0.00  0.00    +0.000 C 
ATOM     14  O   UNL     1       7.851   4.535  18.408  0.00  0.00    +0.000 OA
ATOM     15  N   UNL     1       6.478   5.806  17.085  0.00  0.00    +0.000 N 
ATOM     16  H   UNL     1       6.194   6.744  16.834  0.00  0.00    +0.000 HD
BRANCH  13  18
ATOM     17  C   UNL     1       7.681   8.110  17.603  0.00  0.00    +0.000 C 
ATOM     18  C   UNL     1       8.074   6.945  18.494  0.00  0.00    +0.000 C 
ENDBRANCH  13  18
ENDBRANCH  12  15
ENDBRANCH   1  12
TORSDOF 4
ENDMDL
MODEL 5
REMARK VINA RESULT:      -6.8      1.784      2.939
REMARK  Name = 
REMARK  6 active torsions:
REMARK  status: ('A' for Active; 'I' for Inactive)
REMARK    1  A    between atoms: C_1  and  C_2
REMARK    2  A    between atoms: C_2  and  C_3
REMARK    3  A    between atoms: N_5  and  C_6
REMARK    4  A    between atoms: C_6  and  C_7
REMARK    5  A    between atoms: C_13  and  O_14
REMARK    6  A    between atoms: O_14  and  C_15
REMARK                            x       y       z     vdW  Elec       q    Type
REMARK                         _______ _______ _______ _____ _____    ______ ____
ROOT
ATOM      1  C   UNL     1       4.402   5.937  17.710  0.00  0.00    +0.000 C 
ATOM      2  C   UNL     1       3.278   6.643  18.483  0.00  0.00    +0.000 C 
ATOM      3  C   UNL     1       2.575   5.478  19.116  0.00  0.00    +0.000 A 
ATOM      4  C   UNL     1       1.675   5.541  20.169  0.00  0.00    +0.000 A 
ATOM      5  C   UNL     1       1.082   4.357  20.596  0.00  0.00    +0.000 A 
ATOM      6  C   UNL     1       1.385   3.146  19.957  0.00  0.00    +0.000 A 
ATOM      7  C   UNL     1       2.285   3.082  18.880  0.00  0.00    +0.000 A 
ATOM      8  C   UNL     1       2.891   4.264  18.471  0.00  0.00    +0.000 A 
ATOM      9  C   UNL     1       3.841   4.549  17.345  0.00  0.00    +0.000 C 
ENDROOT
BRANCH   7  10
ATOM     10  O   UNL     1       2.415   1.820  18.377  0.00  0.00    +0.000 OA
ATOM     11  C   UNL     1       3.667   1.166  18.461  0.00  0.00    +0.000 C 
ENDBRANCH   7  10
BRANCH   1  12
ATOM     12  C   UNL     1       4.872   6.691  16.469  0.00  0.00    +0.000 C 
BRANCH  12  15
ATOM     13  C   UNL     1       6.653   5.461  15.271  0.00  0.00    +0.000 C 
ATOM     14  O   UNL     1       7.535   5.866  16.017  0.00  0.00    +0.000 OA
ATOM     15  N   UNL     1       5.324   5.804  15.416  0.00  0.00    +0.000 N 
ATOM     16  H   UNL     1       4.651   5.465  14.741  0.00  0.00    +0.000 HD
BRANCH  13  18
ATOM     17  C   UNL     1       5.615   3.888  13.600  0.00  0.00    +0.000 C 
ATOM     18  C   UNL     1       6.897   4.530  14.100  0.00  0.00    +0.000 C 
ENDBRANCH  13  18
ENDBRANCH  12  15
ENDBRANCH   1  12
TORSDOF 4
ENDMDL
MODEL 6
REMARK VINA RESULT:      -6.8      1.701      3.027
REMARK  Name = 
REMARK  6 active torsions:
REMARK  status: ('A' for Active; 'I' for Inactive)
REMARK    1  A    between atoms: C_1  and  C_2
REMARK    2  A    between atoms: C_2  and  C_3
REMARK    3  A    between atoms: N_5  and  C_6
REMARK    4  A    between atoms: C_6  and  C_7
REMARK    5  A    between atoms: C_13  and  O_14
REMARK    6  A    between atoms: O_14  and  C_15
REMARK                            x       y       z     vdW  Elec       q    Type
REMARK                         _______ _______ _______ _____ _____    ______ ____
ROOT
ATOM      1  C   UNL     1       4.465   4.211  16.824  0.00  0.00    +0.000 C 
ATOM      2  C   UNL     1       3.915   2.976  17.553  0.00  0.00    +0.000 C 
ATOM      3  C   UNL     1       2.920   3.600  18.488  0.00  0.00    +0.000 A 
ATOM      4  C   UNL     1       1.909   2.938  19.167  0.00  0.00    +0.000 A 
ATOM      5  C   UNL     1       1.107   3.676  20.033  0.00  0.00    +0.000 A 
ATOM      6  C   UNL     1       1.340   5.046  20.213  0.00  0.00    +0.000 A 
ATOM      7  C   UNL     1       2.374   5.718  19.538  0.00  0.00    +0.000 A 
ATOM      8  C   UNL     1       3.158   4.980  18.658  0.00  0.00    +0.000 A 
ATOM      9  C   UNL     1       4.351   5.370  17.834  0.00  0.00    +0.000 C 
ENDROOT
BRANCH   7  10
ATOM     10  O   UNL     1       2.455   7.036  19.878  0.00  0.00    +0.000 OA
ATOM     11  C   UNL     1       2.133   8.021  18.915  0.00  0.00    +0.000 C 
ENDBRANCH   7  10
BRANCH   1  12
ATOM     12  C   UNL     1       5.897   4.050  16.322  0.00  0.00    +0.000 C 
BRANCH  12  15
ATOM     13  C   UNL     1       6.838   4.571  14.094  0.00  0.00    +0.000 C 
ATOM     14  O   UNL     1       7.618   5.403  14.538  0.00  0.00    +0.000 OA
ATOM     15  N   UNL     1       5.964   3.855  14.887  0.00  0.00    +0.000 N 
ATOM     16  H   UNL     1       5.319   3.210  14.451  0.00  0.00    +0.000 HD
BRANCH  13  18
ATOM     17  C   UNL     1       5.597   3.238  12.354  0.00  0.00    +0.000 C 
ATOM     18  C   UNL     1       6.731   4.211  12.626  0.00  0.00    +0.000 C 
ENDBRANCH  13  18
ENDBRANCH  12  15
ENDBRANCH   1  12
TORSDOF 4
ENDMDL
MODEL 7
REMARK VINA RESULT:      -6.7      2.214      3.217
REMARK  Name = 
REMARK  6 active torsions:
REMARK  status: ('A' for Active; 'I' for Inactive)
REMARK    1  A    between atoms: C_1  and  C_2
REMARK    2  A    between atoms: C_2  and  C_3
REMARK    3  A    between atoms: N_5  and  C_6
REMARK    4  A    between atoms: C_6  and  C_7
REMARK    5  A    between atoms: C_13  and  O_14
REMARK    6  A    between atoms: O_14  and  C_15
REMARK                            x       y       z     vdW  Elec       q    Type
REMARK                         _______ _______ _______ _____ _____    ______ ____
ROOT
ATOM      1  C   UNL     1       4.951   6.150  18.192  0.00  0.00    +0.000 C 
ATOM      2  C   UNL     1       3.821   5.834  17.200  0.00  0.00    +0.000 C 
ATOM      3  C   UNL     1       3.028   4.816  17.967  0.00  0.00    +0.000 A 
ATOM      4  C   UNL     1       1.733   4.409  17.686  0.00  0.00    +0.000 A 
ATOM      5  C   UNL     1       1.171   3.414  18.481  0.00  0.00    +0.000 A 
ATOM      6  C   UNL     1       1.915   2.840  19.521  0.00  0.00    +0.000 A 
ATOM      7  C   UNL     1       3.234   3.239  19.798  0.00  0.00    +0.000 A 
ATOM      8  C   UNL     1       3.782   4.247  19.015  0.00  0.00    +0.000 A 
ATOM      9  C   UNL     1       5.152   4.861  19.011  0.00  0.00    +0.000 C 
ENDROOT
BRANCH   7  10
ATOM     10  O   UNL     1       3.793   2.534  20.823  0.00  0.00    +0.000 OA
ATOM     11  C   UNL     1       4.820   1.601  20.543  0.00  0.00    +0.000 C 
ENDBRANCH   7  10
BRANCH   1  12
ATOM     12  C   UNL     1       6.251   6.600  17.531  0.00  0.00    +0.000 C 
BRANCH  12  15
ATOM     13  C   UNL     1       7.146   5.097  15.782  0.00  0.00    +0.000 C 
ATOM     14  O   UNL     1       7.805   4.442  16.579  0.00  0.00    +0.000 OA
ATOM     15  N   UNL     1       6.353   6.164  16.153  0.00  0.00    +0.000 N 
ATOM     16  H   UNL     1       5.866   6.687  15.438  0.00  0.00    +0.000 HD
BRANCH  13  18
ATOM     17  C   UNL     1       5.917   3.973  13.893  0.00  0.00    +0.000 C 
ATOM     18  C   UNL     1       7.109   4.825  14.291  0.00  0.00    +0.000 C 
ENDBRANCH  13  18
ENDBRANCH  12  15
ENDBRANCH   1  12
TORSDOF 4
ENDMDL
MODEL 8
REMARK VINA RESULT:      -6.7      2.620      6.325
REMARK  Name = 
REMARK  6 active torsions:
REMARK  status: ('A' for Active; 'I' for Inactive)
REMARK    1  A    between atoms: C_1  and  C_2
REMARK    2  A    between atoms: C_2  and  C_3
REMARK    3  A    between atoms: N_5  and  C_6
REMARK    4  A    between atoms: C_6  and  C_7
REMARK    5  A    between atoms: C_13  and  O_14
REMARK    6  A    between atoms: O_14  and  C_15
REMARK                            x       y       z     vdW  Elec       q    Type
REMARK                         _______ _______ _______ _____ _____    ______ ____
ROOT
ATOM      1  C   UNL     1       3.117   5.464  17.830  0.00  0.00    +0.000 C 
ATOM      2  C   UNL     1       4.028   5.590  19.060  0.00  0.00    +0.000 C 
ATOM      3  C   UNL     1       5.377   5.318  18.462  0.00  0.00    +0.000 A 
ATOM      4  C   UNL     1       6.602   5.602  19.045  0.00  0.00    +0.000 A 
ATOM      5  C   UNL     1       7.756   5.233  18.360  0.00  0.00    +0.000 A 
ATOM      6  C   UNL     1       7.663   4.579  17.123  0.00  0.00    +0.000 A 
ATOM      7  C   UNL     1       6.422   4.277  16.537  0.00  0.00    +0.000 A 
ATOM      8  C   UNL     1       5.274   4.666  17.215  0.00  0.00    +0.000 A 
ATOM      9  C   UNL     1       3.821   4.458  16.899  0.00  0.00    +0.000 C 
ENDROOT
BRANCH   7  10
ATOM     10  O   UNL     1       6.548   3.609  15.354  0.00  0.00    +0.000 OA
ATOM     11  C   UNL     1       6.382   4.315  14.139  0.00  0.00    +0.000 C 
ENDBRANCH   7  10
BRANCH   1  12
ATOM     12  C   UNL     1       1.693   5.022  18.153  0.00  0.00    +0.000 C 
BRANCH  12  15
ATOM     13  C   UNL     1       1.098   3.108  19.604  0.00  0.00    +0.000 C 
ATOM     14  O   UNL     1       0.731   2.416  18.664  0.00  0.00    +0.000 OA
ATOM     15  N   UNL     1       1.588   4.390  19.453  0.00  0.00    +0.000 N 
ATOM     16  H   UNL     1       1.839   4.922  20.276  0.00  0.00    +0.000 HD
BRANCH  13  18
ATOM     17  C   UNL     1       2.179   3.289  21.872  0.00  0.00    +0.000 C 
ATOM     18  C   UNL     1       1.071   2.655  21.050  0.00  0.00    +0.000 C 
ENDBRANCH  13  18
ENDBRANCH  12  15
ENDBRANCH   1  12
TORSDOF 4
ENDMDL
MODEL 9
REMARK VINA RESULT:      -6.7      1.330      2.005
REMARK  Name = 
REMARK  6 active torsions:
REMARK  status: ('A' for Active; 'I' for Inactive)
REMARK    1  A    between atoms: C_1  and  C_2
REMARK    2  A    between atoms: C_2  and  C_3
REMARK    3  A    between atoms: N_5  and  C_6
REMARK    4  A    between atoms: C_6  and  C_7
REMARK    5  A    between atoms: C_13  and  O_14
REMARK    6  A    between atoms: O_14  and  C_15
REMARK                            x       y       z     vdW  Elec       q    Type
REMARK                         _______ _______ _______ _____ _____    ______ ____
ROOT
ATOM      1  C   UNL     1       4.812   5.854  17.094  0.00  0.00    +0.000 C 
ATOM      2  C   UNL     1       4.005   6.958  17.795  0.00  0.00    +0.000 C 
ATOM      3  C   UNL     1       3.138   6.154  18.719  0.00  0.00    +0.000 A 
ATOM      4  C   UNL     1       2.433   6.641  19.808  0.00  0.00    +0.000 A 
ATOM      5  C   UNL     1       1.639   5.752  20.526  0.00  0.00    +0.000 A 
ATOM      6  C   UNL     1       1.556   4.408  20.135  0.00  0.00    +0.000 A 
ATOM      7  C   UNL     1       2.258   3.914  19.023  0.00  0.00    +0.000 A 
ATOM      8  C   UNL     1       3.065   4.802  18.322  0.00  0.00    +0.000 A 
ATOM      9  C   UNL     1       3.893   4.618  17.082  0.00  0.00    +0.000 C 
ENDROOT
BRANCH   7  10
ATOM     10  O   UNL     1       2.014   2.593  18.790  0.00  0.00    +0.000 OA
ATOM     11  C   UNL     1       0.683   2.115  18.838  0.00  0.00    +0.000 C 
ENDBRANCH   7  10
BRANCH   1  12
ATOM     12  C   UNL     1       5.273   6.220  15.686  0.00  0.00    +0.000 C 
BRANCH  12  15
ATOM     13  C   UNL     1       6.553   4.716  14.196  0.00  0.00    +0.000 C 
ATOM     14  O   UNL     1       7.595   5.340  14.341  0.00  0.00    +0.000 OA
ATOM     15  N   UNL     1       5.370   5.065  14.816  0.00  0.00    +0.000 N 
ATOM     16  H   UNL     1       4.535   4.528  14.621  0.00  0.00    +0.000 HD
BRANCH  13  18
ATOM     17  C   UNL     1       5.248   3.577  12.367  0.00  0.00    +0.000 C 
ATOM     18  C   UNL     1       6.420   3.481  13.327  0.00  0.00    +0.000 C 
ENDBRANCH  13  18
ENDBRANCH  12  15
ENDBRANCH   1  12
TORSDOF 4
ENDMDL
