MODEL 1
REMARK VINA RESULT:      -8.3      0.000      0.000
REMARK  Name = 
REMARK  7 active torsions:
REMARK  status: ('A' for Active; 'I' for Inactive)
REMARK    1  A    between atoms: C_1  and  O_2
REMARK    2  A    between atoms: O_2  and  C_3
REMARK    3  A    between atoms: C_7  and  C_8
REMARK    4  A    between atoms: C_8  and  N_9
REMARK    5  A    between atoms: C_11  and  C_12
REMARK    6  A    between atoms: N_17  and  S_18
REMARK    7  A    between atoms: S_18  and  C_21
REMARK                            x       y       z     vdW  Elec       q    Type
REMARK                         _______ _______ _______ _____ _____    ______ ____
ROOT
ATOM      1  C   UNL     1       1.935   8.785  18.481  0.00  0.00    +0.000 C 
ATOM      2  O   UNL     1       2.228   9.313  17.407  0.00  0.00    +0.000 OA
ATOM      3  N   UNL     1       1.187   9.474  19.439  0.00  0.00    +0.000 N 
ATOM      4  C   UNL     1       0.787  10.858  19.154  0.00  0.00    +0.000 C 
ATOM      5  C   UNL     1      -0.677  11.138  19.543  0.00  0.00    +0.000 C 
ATOM      6  N   UNL     1      -1.004  10.670  20.930  0.00  0.00    +0.000 NA
ATOM      7  C   UNL     1      -0.642   9.230  21.087  0.00  0.00    +0.000 C 
ATOM      8  C   UNL     1       0.841   8.993  20.786  0.00  0.00    +0.000 C 
ENDROOT
BRANCH   1  11
ATOM      9  N   UNL     1       2.931   5.336  18.427  0.00  0.00    +0.000 N 
ATOM     10  C   UNL     1       2.613   6.465  17.737  0.00  0.00    +0.000 A 
ATOM     11  C   UNL     1       2.302   7.390  18.717  0.00  0.00    +0.000 A 
ATOM     12  N   UNL     1       2.461   6.790  19.942  0.00  0.00    +0.000 NA
ATOM     13  N   UNL     1       2.818   5.526  19.753  0.00  0.00    +0.000 NA
BRANCH   9  14
ATOM     14  C   UNL     1       3.520   4.112  17.908  0.00  0.00    +0.000 C 
BRANCH  14  19
ATOM     15  C   UNL     1       6.421   4.576  15.472  0.00  0.00    +0.000 A 
ATOM     16  C   UNL     1       7.488   4.744  16.356  0.00  0.00    +0.000 A 
ATOM     17  C   UNL     1       7.281   4.709  17.734  0.00  0.00    +0.000 A 
ATOM     18  C   UNL     1       6.000   4.494  18.241  0.00  0.00    +0.000 A 
ATOM     19  C   UNL     1       4.914   4.316  17.371  0.00  0.00    +0.000 A 
ATOM     20  C   UNL     1       5.137   4.373  15.982  0.00  0.00    +0.000 A 
BRANCH  15  22
ATOM     21  C   UNL     1       6.107   3.716  13.275  0.00  0.00    +0.000 C 
ATOM     22  O   UNL     1       6.763   4.626  14.149  0.00  0.00    +0.000 OA
ENDBRANCH  15  22
ENDBRANCH  14  19
ENDBRANCH   9  14
ENDBRANCH   1  11
BRANCH   6  23
ATOM     23  S   UNL     1      -0.508  11.667  22.222  0.00  0.00    +0.000 S 
ATOM     24  O   UNL     1      -0.253  10.823  23.370  0.00  0.00    +0.000 OA
ATOM     25  O   UNL     1       0.494  12.583  21.732  0.00  0.00    +0.000 OA
BRANCH  23  26
ATOM     26  C   UNL     1      -1.983  12.588  22.572  0.00  0.00    +0.000 A 
ATOM     27  C   UNL     1      -2.921  12.048  23.458  0.00  0.00    +0.000 A 
ATOM     28  C   UNL     1      -4.082  12.763  23.742  0.00  0.00    +0.000 A 
ATOM     29  C   UNL     1      -4.293  14.009  23.149  0.00  0.00    +0.000 A 
ATOM     30 CL   UNL     1      -5.733  14.887  23.499  0.00  0.00    +0.000 Cl
ATOM     31  C   UNL     1      -3.350  14.551  22.275  0.00  0.00    +0.000 A 
ATOM     32  C   UNL     1      -2.182  13.843  21.985  0.00  0.00    +0.000 A 
ENDBRANCH  23  26
ENDBRANCH   6  23
TORSDOF 6
ENDMDL
MODEL 2
REMARK VINA RESULT:      -8.3      0.776      1.214
REMARK  Name = 
REMARK  7 active torsions:
REMARK  status: ('A' for Active; 'I' for Inactive)
REMARK    1  A    between atoms: C_1  and  O_2
REMARK    2  A    between atoms: O_2  and  C_3
REMARK    3  A    between atoms: C_7  and  C_8
REMARK    4  A    between atoms: C_8  and  N_9
REMARK    5  A    between atoms: C_11  and  C_12
REMARK    6  A    between atoms: N_17  and  S_18
REMARK    7  A    between atoms: S_18  and  C_21
REMARK                            x       y       z     vdW  Elec       q    Type
REMARK                         _______ _______ _______ _____ _____    ______ ____
ROOT
ATOM      1  C   UNL     1       2.170   8.261  18.475  0.00  0.00    +0.000 C 
ATOM      2  O   UNL     1       2.339   8.729  17.347  0.00  0.00    +0.000 OA
ATOM      3  N   UNL     1       1.422   8.950  19.433  0.00  0.00    +0.000 N 
ATOM      4  C   UNL     1       0.870  10.265  19.080  0.00  0.00    +0.000 C 
ATOM      5  C   UNL     1      -0.586  10.436  19.553  0.00  0.00    +0.000 C 
ATOM      6  N   UNL     1      -0.775  10.049  20.989  0.00  0.00    +0.000 NA
ATOM      7  C   UNL     1      -0.263   8.665  21.221  0.00  0.00    +0.000 C 
ATOM      8  C   UNL     1       1.213   8.545  20.832  0.00  0.00    +0.000 C 
ENDROOT
BRANCH   1  11
ATOM      9  N   UNL     1       3.692   5.013  18.641  0.00  0.00    +0.000 N 
ATOM     10  C   UNL     1       3.379   6.115  17.905  0.00  0.00    +0.000 A 
ATOM     11  C   UNL     1       2.687   6.929  18.782  0.00  0.00    +0.000 A 
ATOM     12  N   UNL     1       2.628   6.298  20.000  0.00  0.00    +0.000 NA
ATOM     13  N   UNL     1       3.220   5.116  19.896  0.00  0.00    +0.000 NA
BRANCH   9  14
ATOM     14  C   UNL     1       4.582   3.923  18.278  0.00  0.00    +0.000 C 
BRANCH  14  19
ATOM     15  C   UNL     1       5.751   4.159  14.652  0.00  0.00    +0.000 A 
ATOM     16  C   UNL     1       6.954   4.852  14.804  0.00  0.00    +0.000 A 
ATOM     17  C   UNL     1       7.393   5.245  16.067  0.00  0.00    +0.000 A 
ATOM     18  C   UNL     1       6.634   4.937  17.195  0.00  0.00    +0.000 A 
ATOM     19  C   UNL     1       5.425   4.236  17.067  0.00  0.00    +0.000 A 
ATOM     20  C   UNL     1       4.987   3.863  15.782  0.00  0.00    +0.000 A 
BRANCH  15  22
ATOM     21  C   UNL     1       6.520   3.741  12.438  0.00  0.00    +0.000 C 
ATOM     22  O   UNL     1       5.442   3.829  13.361  0.00  0.00    +0.000 OA
ENDBRANCH  15  22
ENDBRANCH  14  19
ENDBRANCH   9  14
ENDBRANCH   1  11
BRANCH   6  23
ATOM     23  S   UNL     1      -0.295  11.185  22.168  0.00  0.00    +0.000 S 
ATOM     24  O   UNL     1      -0.117  10.486  23.423  0.00  0.00    +0.000 OA
ATOM     25  O   UNL     1       0.758  12.001  21.612  0.00  0.00    +0.000 OA
BRANCH  23  26
ATOM     26  C   UNL     1      -1.749  12.188  22.334  0.00  0.00    +0.000 A 
ATOM     27  C   UNL     1      -1.958  13.228  21.423  0.00  0.00    +0.000 A 
ATOM     28  C   UNL     1      -3.097  14.021  21.542  0.00  0.00    +0.000 A 
ATOM     29  C   UNL     1      -4.018  13.767  22.560  0.00  0.00    +0.000 A 
ATOM     30 CL   UNL     1      -5.422  14.753  22.707  0.00  0.00    +0.000 Cl
ATOM     31  C   UNL     1      -3.813  12.720  23.461  0.00  0.00    +0.000 A 
ATOM     32  C   UNL     1      -2.675  11.919  23.348  0.00  0.00    +0.000 A 
ENDBRANCH  23  26
ENDBRANCH   6  23
TORSDOF 6
ENDMDL
MODEL 3
REMARK VINA RESULT:      -8.3      0.906      1.741
REMARK  Name = 
REMARK  7 active torsions:
REMARK  status: ('A' for Active; 'I' for Inactive)
REMARK    1  A    between atoms: C_1  and  O_2
REMARK    2  A    between atoms: O_2  and  C_3
REMARK    3  A    between atoms: C_7  and  C_8
REMARK    4  A    between atoms: C_8  and  N_9
REMARK    5  A    between atoms: C_11  and  C_12
REMARK    6  A    between atoms: N_17  and  S_18
REMARK    7  A    between atoms: S_18  and  C_21
REMARK                            x       y       z     vdW  Elec       q    Type
REMARK                         _______ _______ _______ _____ _____    ______ ____
ROOT
ATOM      1  C   UNL     1       1.934   8.731  18.506  0.00  0.00    +0.000 C 
ATOM      2  O   UNL     1       2.190   9.225  17.406  0.00  0.00    +0.000 OA
ATOM      3  N   UNL     1       1.191   9.438  19.455  0.00  0.00    +0.000 N 
ATOM      4  C   UNL     1       0.752  10.801  19.127  0.00  0.00    +0.000 C 
ATOM      5  C   UNL     1      -0.710  11.061  19.539  0.00  0.00    +0.000 C 
ATOM      6  N   UNL     1      -0.995  10.639  20.950  0.00  0.00    +0.000 NA
ATOM      7  C   UNL     1      -0.594   9.215  21.152  0.00  0.00    +0.000 C 
ATOM      8  C   UNL     1       0.887   9.001  20.826  0.00  0.00    +0.000 C 
ENDROOT
BRANCH   1  11
ATOM      9  N   UNL     1       3.132   5.347  18.584  0.00  0.00    +0.000 N 
ATOM     10  C   UNL     1       2.867   6.471  17.863  0.00  0.00    +0.000 A 
ATOM     11  C   UNL     1       2.340   7.355  18.785  0.00  0.00    +0.000 A 
ATOM     12  N   UNL     1       2.324   6.739  20.013  0.00  0.00    +0.000 NA
ATOM     13  N   UNL     1       2.783   5.502  19.874  0.00  0.00    +0.000 NA
BRANCH   9  14
ATOM     14  C   UNL     1       3.873   4.171  18.160  0.00  0.00    +0.000 C 
BRANCH  14  19
ATOM     15  C   UNL     1       6.861   5.794  16.427  0.00  0.00    +0.000 A 
ATOM     16  C   UNL     1       6.923   5.050  15.247  0.00  0.00    +0.000 A 
ATOM     17  C   UNL     1       6.009   4.026  15.004  0.00  0.00    +0.000 A 
ATOM     18  C   UNL     1       5.013   3.745  15.940  0.00  0.00    +0.000 A 
ATOM     19  C   UNL     1       4.928   4.485  17.129  0.00  0.00    +0.000 A 
ATOM     20  C   UNL     1       5.871   5.503  17.367  0.00  0.00    +0.000 A 
BRANCH  15  22
ATOM     21  C   UNL     1       7.644   7.727  17.575  0.00  0.00    +0.000 C 
ATOM     22  O   UNL     1       7.812   6.771  16.536  0.00  0.00    +0.000 OA
ENDBRANCH  15  22
ENDBRANCH  14  19
ENDBRANCH   9  14
ENDBRANCH   1  11
BRANCH   6  23
ATOM     23  S   UNL     1      -0.493  11.696  22.192  0.00  0.00    +0.000 S 
ATOM     24  O   UNL     1      -0.216  10.905  23.372  0.00  0.00    +0.000 OA
ATOM     25  O   UNL     1       0.493  12.600  21.651  0.00  0.00    +0.000 OA
BRANCH  23  26
ATOM     26  C   UNL     1      -1.974  12.617  22.520  0.00  0.00    +0.000 A 
ATOM     27  C   UNL     1      -2.146  13.860  21.902  0.00  0.00    +0.000 A 
ATOM     28  C   UNL     1      -3.305  14.591  22.150  0.00  0.00    +0.000 A 
ATOM     29  C   UNL     1      -4.282  14.076  23.004  0.00  0.00    +0.000 A 
ATOM     30 CL   UNL     1      -5.711  14.986  23.312  0.00  0.00    +0.000 Cl
ATOM     31  C   UNL     1      -4.114  12.830  23.610  0.00  0.00    +0.000 A 
ATOM     32  C   UNL     1      -2.956  12.088  23.366  0.00  0.00    +0.000 A 
ENDBRANCH  23  26
ENDBRANCH   6  23
TORSDOF 6
ENDMDL
MODEL 4
REMARK VINA RESULT:      -8.2      0.977      1.630
REMARK  Name = 
REMARK  7 active torsions:
REMARK  status: ('A' for Active; 'I' for Inactive)
REMARK    1  A    between atoms: C_1  and  O_2
REMARK    2  A    between atoms: O_2  and  C_3
REMARK    3  A    between atoms: C_7  and  C_8
REMARK    4  A    between atoms: C_8  and  N_9
REMARK    5  A    between atoms: C_11  and  C_12
REMARK    6  A    between atoms: N_17  and  S_18
REMARK    7  A    between atoms: S_18  and  C_21
REMARK                            x       y       z     vdW  Elec       q    Type
REMARK                         _______ _______ _______ _____ _____    ______ ____
ROOT
ATOM      1  C   UNL     1       2.085   8.635  18.241  0.00  0.00    +0.000 C 
ATOM      2  O   UNL     1       2.081   9.122  17.108  0.00  0.00    +0.000 OA
ATOM      3  N   UNL     1       1.350   9.219  19.275  0.00  0.00    +0.000 N 
ATOM      4  C   UNL     1       0.599  10.449  18.994  0.00  0.00    +0.000 C 
ATOM      5  C   UNL     1      -0.815  10.427  19.608  0.00  0.00    +0.000 C 
ATOM      6  N   UNL     1      -0.810  10.017  21.051  0.00  0.00    +0.000 NA
ATOM      7  C   UNL     1      -0.101   8.713  21.214  0.00  0.00    +0.000 C 
ATOM      8  C   UNL     1       1.333   8.789  20.682  0.00  0.00    +0.000 C 
ENDROOT
BRANCH   1  11
ATOM      9  N   UNL     1       4.252   5.775  18.384  0.00  0.00    +0.000 N 
ATOM     10  C   UNL     1       3.918   6.953  17.789  0.00  0.00    +0.000 A 
ATOM     11  C   UNL     1       2.800   7.382  18.479  0.00  0.00    +0.000 A 
ATOM     12  N   UNL     1       2.520   6.464  19.461  0.00  0.00    +0.000 NA
ATOM     13  N   UNL     1       3.396   5.471  19.376  0.00  0.00    +0.000 NA
BRANCH   9  14
ATOM     14  C   UNL     1       5.458   4.988  18.188  0.00  0.00    +0.000 C 
BRANCH  14  19
ATOM     15  C   UNL     1       7.185   5.088  14.785  0.00  0.00    +0.000 A 
ATOM     16  C   UNL     1       6.363   4.237  14.044  0.00  0.00    +0.000 A 
ATOM     17  C   UNL     1       5.254   3.630  14.631  0.00  0.00    +0.000 A 
ATOM     18  C   UNL     1       4.952   3.878  15.970  0.00  0.00    +0.000 A 
ATOM     19  C   UNL     1       5.760   4.735  16.732  0.00  0.00    +0.000 A 
ATOM     20  C   UNL     1       6.886   5.326  16.129  0.00  0.00    +0.000 A 
BRANCH  15  22
ATOM     21  C   UNL     1       8.125   5.639  12.669  0.00  0.00    +0.000 C 
ATOM     22  O   UNL     1       8.232   5.621  14.087  0.00  0.00    +0.000 OA
ENDBRANCH  15  22
ENDBRANCH  14  19
ENDBRANCH   9  14
ENDBRANCH   1  11
BRANCH   6  23
ATOM     23  S   UNL     1      -0.371  11.206  22.192  0.00  0.00    +0.000 S 
ATOM     24  O   UNL     1      -0.159  10.553  23.466  0.00  0.00    +0.000 OA
ATOM     25  O   UNL     1       0.645  12.048  21.607  0.00  0.00    +0.000 OA
BRANCH  23  26
ATOM     26  C   UNL     1      -1.864  12.154  22.338  0.00  0.00    +0.000 A 
ATOM     27  C   UNL     1      -2.157  13.106  21.356  0.00  0.00    +0.000 A 
ATOM     28  C   UNL     1      -3.327  13.855  21.458  0.00  0.00    +0.000 A 
ATOM     29  C   UNL     1      -4.195  13.644  22.531  0.00  0.00    +0.000 A 
ATOM     30 CL   UNL     1      -5.638  14.576  22.656  0.00  0.00    +0.000 Cl
ATOM     31  C   UNL     1      -3.907  12.684  23.503  0.00  0.00    +0.000 A 
ATOM     32  C   UNL     1      -2.737  11.928  23.408  0.00  0.00    +0.000 A 
ENDBRANCH  23  26
ENDBRANCH   6  23
TORSDOF 6
ENDMDL
MODEL 5
REMARK VINA RESULT:      -8.2      0.959      1.693
REMARK  Name = 
REMARK  7 active torsions:
REMARK  status: ('A' for Active; 'I' for Inactive)
REMARK    1  A    between atoms: C_1  and  O_2
REMARK    2  A    between atoms: O_2  and  C_3
REMARK    3  A    between atoms: C_7  and  C_8
REMARK    4  A    between atoms: C_8  and  N_9
REMARK    5  A    between atoms: C_11  and  C_12
REMARK    6  A    between atoms: N_17  and  S_18
REMARK    7  A    between atoms: S_18  and  C_21
REMARK                            x       y       z     vdW  Elec       q    Type
REMARK                         _______ _______ _______ _____ _____    ______ ____
ROOT
ATOM      1  C   UNL     1       1.910   8.867  18.529  0.00  0.00    +0.000 C 
ATOM      2  O   UNL     1       2.316   9.403  17.496  0.00  0.00    +0.000 OA
ATOM      3  N   UNL     1       1.158   9.584  19.462  0.00  0.00    +0.000 N 
ATOM      4  C   UNL     1       0.891  11.005  19.205  0.00  0.00    +0.000 C 
ATOM      5  C   UNL     1      -0.569  11.393  19.510  0.00  0.00    +0.000 C 
ATOM      6  N   UNL     1      -1.025  10.909  20.854  0.00  0.00    +0.000 NA
ATOM      7  C   UNL     1      -0.791   9.439  20.979  0.00  0.00    +0.000 C 
ATOM      8  C   UNL     1       0.684   9.090  20.765  0.00  0.00    +0.000 C 
ENDROOT
BRANCH   1  11
ATOM      9  N   UNL     1       2.642   5.353  18.411  0.00  0.00    +0.000 N 
ATOM     10  C   UNL     1       2.475   6.529  17.747  0.00  0.00    +0.000 A 
ATOM     11  C   UNL     1       2.146   7.439  18.734  0.00  0.00    +0.000 A 
ATOM     12  N   UNL     1       2.145   6.784  19.941  0.00  0.00    +0.000 NA
ATOM     13  N   UNL     1       2.420   5.503  19.730  0.00  0.00    +0.000 NA
BRANCH   9  14
ATOM     14  C   UNL     1       3.181   4.106  17.894  0.00  0.00    +0.000 C 
BRANCH  14  19
ATOM     15  C   UNL     1       6.959   4.651  17.855  0.00  0.00    +0.000 A 
ATOM     16  C   UNL     1       7.243   4.456  16.502  0.00  0.00    +0.000 A 
ATOM     17  C   UNL     1       6.226   4.150  15.599  0.00  0.00    +0.000 A 
ATOM     18  C   UNL     1       4.908   4.046  16.044  0.00  0.00    +0.000 A 
ATOM     19  C   UNL     1       4.598   4.245  17.397  0.00  0.00    +0.000 A 
ATOM     20  C   UNL     1       5.640   4.534  18.299  0.00  0.00    +0.000 A 
BRANCH  15  22
ATOM     21  C   UNL     1       8.161   6.291  19.092  0.00  0.00    +0.000 C 
ATOM     22  O   UNL     1       8.045   4.951  18.628  0.00  0.00    +0.000 OA
ENDBRANCH  15  22
ENDBRANCH  14  19
ENDBRANCH   9  14
ENDBRANCH   1  11
BRANCH   6  23
ATOM     23  S   UNL     1      -0.536  11.818  22.212  0.00  0.00    +0.000 S 
ATOM     24  O   UNL     1      -0.303  10.903  23.308  0.00  0.00    +0.000 OA
ATOM     25  O   UNL     1       0.479  12.755  21.792  0.00  0.00    +0.000 OA
BRANCH  23  26
ATOM     26  C   UNL     1      -2.008  12.729  22.601  0.00  0.00    +0.000 A 
ATOM     27  C   UNL     1      -2.945  12.159  23.470  0.00  0.00    +0.000 A 
ATOM     28  C   UNL     1      -4.103  12.866  23.784  0.00  0.00    +0.000 A 
ATOM     29  C   UNL     1      -4.314  14.133  23.237  0.00  0.00    +0.000 A 
ATOM     30 CL   UNL     1      -5.750  15.000  23.625  0.00  0.00    +0.000 Cl
ATOM     31  C   UNL     1      -3.372  14.705  22.380  0.00  0.00    +0.000 A 
ATOM     32  C   UNL     1      -2.207  14.005  22.061  0.00  0.00    +0.000 A 
ENDBRANCH  23  26
ENDBRANCH   6  23
TORSDOF 6
ENDMDL
MODEL 6
REMARK VINA RESULT:      -8.1      4.677     10.344
REMARK  Name = 
REMARK  7 active torsions:
REMARK  status: ('A' for Active; 'I' for Inactive)
REMARK    1  A    between atoms: C_1  and  O_2
REMARK    2  A    between atoms: O_2  and  C_3
REMARK    3  A    between atoms: C_7  and  C_8
REMARK    4  A    between atoms: C_8  and  N_9
REMARK    5  A    between atoms: C_11  and  C_12
REMARK    6  A    between atoms: N_17  and  S_18
REMARK    7  A    between atoms: S_18  and  C_21
REMARK                            x       y       z     vdW  Elec       q    Type
REMARK                         _______ _______ _______ _____ _____    ______ ____
ROOT
ATOM      1  C   UNL     1       0.841   8.016  20.989  0.00  0.00    +0.000 C 
ATOM      2  O   UNL     1       0.050   7.626  21.850  0.00  0.00    +0.000 OA
ATOM      3  N   UNL     1       1.708   7.124  20.354  0.00  0.00    +0.000 N 
ATOM      4  C   UNL     1       1.683   5.712  20.760  0.00  0.00    +0.000 C 
ATOM      5  C   UNL     1       1.729   4.754  19.554  0.00  0.00    +0.000 C 
ATOM      6  N   UNL     1       2.818   5.102  18.583  0.00  0.00    +0.000 NA
ATOM      7  C   UNL     1       2.699   6.531  18.166  0.00  0.00    +0.000 C 
ATOM      8  C   UNL     1       2.751   7.469  19.375  0.00  0.00    +0.000 C 
ENDROOT
BRANCH   1  11
ATOM      9  N   UNL     1       0.353  11.250  19.507  0.00  0.00    +0.000 N 
ATOM     10  C   UNL     1       0.137   9.907  19.465  0.00  0.00    +0.000 A 
ATOM     11  C   UNL     1       0.808   9.416  20.569  0.00  0.00    +0.000 A 
ATOM     12  N   UNL     1       1.381  10.473  21.231  0.00  0.00    +0.000 NA
ATOM     13  N   UNL     1       1.121  11.587  20.559  0.00  0.00    +0.000 NA
BRANCH   9  14
ATOM     14  C   UNL     1      -0.279  12.280  18.700  0.00  0.00    +0.000 C 
BRANCH  14  19
ATOM     15  C   UNL     1      -3.506  11.139  17.009  0.00  0.00    +0.000 A 
ATOM     16  C   UNL     1      -4.448  11.457  17.990  0.00  0.00    +0.000 A 
ATOM     17  C   UNL     1      -4.052  12.037  19.194  0.00  0.00    +0.000 A 
ATOM     18  C   UNL     1      -2.705  12.315  19.423  0.00  0.00    +0.000 A 
ATOM     19  C   UNL     1      -1.742  12.010  18.450  0.00  0.00    +0.000 A 
ATOM     20  C   UNL     1      -2.156  11.407  17.247  0.00  0.00    +0.000 A 
BRANCH  15  22
ATOM     21  C   UNL     1      -3.162  10.458  14.754  0.00  0.00    +0.000 C 
ATOM     22  O   UNL     1      -4.028  10.582  15.875  0.00  0.00    +0.000 OA
ENDBRANCH  15  22
ENDBRANCH  14  19
ENDBRANCH   9  14
ENDBRANCH   1  11
BRANCH   6  23
ATOM     23  S   UNL     1       4.402   4.614  18.986  0.00  0.00    +0.000 S 
ATOM     24  O   UNL     1       4.983   5.628  19.840  0.00  0.00    +0.000 OA
ATOM     25  O   UNL     1       4.363   3.229  19.392  0.00  0.00    +0.000 OA
BRANCH  23  26
ATOM     26  C   UNL     1       5.233   4.714  17.422  0.00  0.00    +0.000 A 
ATOM     27  C   UNL     1       6.411   5.463  17.331  0.00  0.00    +0.000 A 
ATOM     28  C   UNL     1       7.074   5.548  16.109  0.00  0.00    +0.000 A 
ATOM     29  C   UNL     1       6.563   4.881  14.994  0.00  0.00    +0.000 A 
ATOM     30 CL   UNL     1       7.383   4.992  13.484  0.00  0.00    +0.000 Cl
ATOM     31  C   UNL     1       5.394   4.123  15.090  0.00  0.00    +0.000 A 
ATOM     32  C   UNL     1       4.724   4.032  16.311  0.00  0.00    +0.000 A 
ENDBRANCH  23  26
ENDBRANCH   6  23
TORSDOF 6
ENDMDL
MODEL 7
REMARK VINA RESULT:      -8.1      0.974      1.213
REMARK  Name = 
REMARK  7 active torsions:
REMARK  status: ('A' for Active; 'I' for Inactive)
REMARK    1  A    between atoms: C_1  and  O_2
REMARK    2  A    between atoms: O_2  and  C_3
REMARK    3  A    between atoms: C_7  and  C_8
REMARK    4  A    between atoms: C_8  and  N_9
REMARK    5  A    between atoms: C_11  and  C_12
REMARK    6  A    between atoms: N_17  and  S_18
REMARK    7  A    between atoms: S_18  and  C_21
REMARK                            x       y       z     vdW  Elec       q    Type
REMARK                         _______ _______ _______ _____ _____    ______ ____
ROOT
ATOM      1  C   UNL     1       1.957   9.057  18.384  0.00  0.00    +0.000 C 
ATOM      2  O   UNL     1       2.460   9.455  17.331  0.00  0.00    +0.000 OA
ATOM      3  N   UNL     1       1.102   9.875  19.126  0.00  0.00    +0.000 N 
ATOM      4  C   UNL     1       0.842  11.238  18.643  0.00  0.00    +0.000 C 
ATOM      5  C   UNL     1      -0.647  11.621  18.741  0.00  0.00    +0.000 C 
ATOM      6  N   UNL     1      -1.232  11.317  20.089  0.00  0.00    +0.000 NA
ATOM      7  C   UNL     1      -0.990   9.888  20.445  0.00  0.00    +0.000 C 
ATOM      8  C   UNL     1       0.504   9.556  20.431  0.00  0.00    +0.000 C 
ENDROOT
BRANCH   1  11
ATOM      9  N   UNL     1       2.708   5.574  18.831  0.00  0.00    +0.000 N 
ATOM     10  C   UNL     1       2.559   6.633  17.989  0.00  0.00    +0.000 A 
ATOM     11  C   UNL     1       2.193   7.679  18.814  0.00  0.00    +0.000 A 
ATOM     12  N   UNL     1       2.153   7.217  20.106  0.00  0.00    +0.000 NA
ATOM     13  N   UNL     1       2.441   5.922  20.103  0.00  0.00    +0.000 NA
BRANCH   9  14
ATOM     14  C   UNL     1       3.269   4.267  18.530  0.00  0.00    +0.000 C 
BRANCH  14  19
ATOM     15  C   UNL     1       6.143   4.087  16.024  0.00  0.00    +0.000 A 
ATOM     16  C   UNL     1       7.207   4.544  16.804  0.00  0.00    +0.000 A 
ATOM     17  C   UNL     1       7.007   4.911  18.134  0.00  0.00    +0.000 A 
ATOM     18  C   UNL     1       5.736   4.813  18.699  0.00  0.00    +0.000 A 
ATOM     19  C   UNL     1       4.654   4.350  17.936  0.00  0.00    +0.000 A 
ATOM     20  C   UNL     1       4.869   4.001  16.589  0.00  0.00    +0.000 A 
BRANCH  15  22
ATOM     21  C   UNL     1       6.907   4.809  13.888  0.00  0.00    +0.000 C 
ATOM     22  O   UNL     1       6.478   3.754  14.740  0.00  0.00    +0.000 OA
ENDBRANCH  15  22
ENDBRANCH  14  19
ENDBRANCH   9  14
ENDBRANCH   1  11
BRANCH   6  23
ATOM     23  S   UNL     1      -0.900  12.423  21.345  0.00  0.00    +0.000 S 
ATOM     24  O   UNL     1      -0.037  11.769  22.305  0.00  0.00    +0.000 OA
ATOM     25  O   UNL     1      -0.536  13.688  20.754  0.00  0.00    +0.000 OA
BRANCH  23  26
ATOM     26  C   UNL     1      -2.489  12.603  22.114  0.00  0.00    +0.000 A 
ATOM     27  C   UNL     1      -3.597  12.899  21.312  0.00  0.00    +0.000 A 
ATOM     28  C   UNL     1      -4.849  13.041  21.904  0.00  0.00    +0.000 A 
ATOM     29  C   UNL     1      -4.988  12.880  23.284  0.00  0.00    +0.000 A 
ATOM     30 CL   UNL     1      -6.538  13.061  24.012  0.00  0.00    +0.000 Cl
ATOM     31  C   UNL     1      -3.884  12.572  24.080  0.00  0.00    +0.000 A 
ATOM     32  C   UNL     1      -2.624  12.426  23.496  0.00  0.00    +0.000 A 
ENDBRANCH  23  26
ENDBRANCH   6  23
TORSDOF 6
ENDMDL
MODEL 8
REMARK VINA RESULT:      -7.9      4.604     10.704
REMARK  Name = 
REMARK  7 active torsions:
REMARK  status: ('A' for Active; 'I' for Inactive)
REMARK    1  A    between atoms: C_1  and  O_2
REMARK    2  A    between atoms: O_2  and  C_3
REMARK    3  A    between atoms: C_7  and  C_8
REMARK    4  A    between atoms: C_8  and  N_9
REMARK    5  A    between atoms: C_11  and  C_12
REMARK    6  A    between atoms: N_17  and  S_18
REMARK    7  A    between atoms: S_18  and  C_21
REMARK                            x       y       z     vdW  Elec       q    Type
REMARK                         _______ _______ _______ _____ _____    ______ ____
ROOT
ATOM      1  C   UNL     1       0.856   7.993  20.969  0.00  0.00    +0.000 C 
ATOM      2  O   UNL     1       0.079   7.612  21.847  0.00  0.00    +0.000 OA
ATOM      3  N   UNL     1       1.722   7.097  20.340  0.00  0.00    +0.000 N 
ATOM      4  C   UNL     1       1.715   5.693  20.772  0.00  0.00    +0.000 C 
ATOM      5  C   UNL     1       1.753   4.713  19.583  0.00  0.00    +0.000 C 
ATOM      6  N   UNL     1       2.827   5.052  18.592  0.00  0.00    +0.000 NA
ATOM      7  C   UNL     1       2.691   6.472  18.151  0.00  0.00    +0.000 C 
ATOM      8  C   UNL     1       2.750   7.433  19.342  0.00  0.00    +0.000 C 
ENDROOT
BRANCH   1  11
ATOM      9  N   UNL     1       0.349  11.190  19.413  0.00  0.00    +0.000 N 
ATOM     10  C   UNL     1       0.168   9.841  19.386  0.00  0.00    +0.000 A 
ATOM     11  C   UNL     1       0.806   9.385  20.524  0.00  0.00    +0.000 A 
ATOM     12  N   UNL     1       1.325  10.467  21.191  0.00  0.00    +0.000 NA
ATOM     13  N   UNL     1       1.066  11.563  20.490  0.00  0.00    +0.000 NA
BRANCH   9  14
ATOM     14  C   UNL     1      -0.274  12.190  18.564  0.00  0.00    +0.000 C 
BRANCH  14  19
ATOM     15  C   UNL     1      -4.012  12.099  19.333  0.00  0.00    +0.000 A 
ATOM     16  C   UNL     1      -4.524  11.640  18.117  0.00  0.00    +0.000 A 
ATOM     17  C   UNL     1      -3.674  11.359  17.049  0.00  0.00    +0.000 A 
ATOM     18  C   UNL     1      -2.297  11.525  17.193  0.00  0.00    +0.000 A 
ATOM     19  C   UNL     1      -1.760  11.979  18.407  0.00  0.00    +0.000 A 
ATOM     20  C   UNL     1      -2.634  12.277  19.470  0.00  0.00    +0.000 A 
BRANCH  15  22
ATOM     21  C   UNL     1      -6.268  11.847  20.050  0.00  0.00    +0.000 C 
ATOM     22  O   UNL     1      -4.953  12.330  20.297  0.00  0.00    +0.000 OA
ENDBRANCH  15  22
ENDBRANCH  14  19
ENDBRANCH   9  14
ENDBRANCH   1  11
BRANCH   6  23
ATOM     23  S   UNL     1       4.420   4.585  18.984  0.00  0.00    +0.000 S 
ATOM     24  O   UNL     1       4.990   5.601  19.842  0.00  0.00    +0.000 OA
ATOM     25  O   UNL     1       4.403   3.197  19.380  0.00  0.00    +0.000 OA
BRANCH  23  26
ATOM     26  C   UNL     1       5.242   4.708  17.416  0.00  0.00    +0.000 A 
ATOM     27  C   UNL     1       6.324   5.585  17.290  0.00  0.00    +0.000 A 
ATOM     28  C   UNL     1       6.979   5.689  16.065  0.00  0.00    +0.000 A 
ATOM     29  C   UNL     1       6.555   4.915  14.983  0.00  0.00    +0.000 A 
ATOM     30 CL   UNL     1       7.364   5.051  13.468  0.00  0.00    +0.000 Cl
ATOM     31  C   UNL     1       5.483   4.031  15.115  0.00  0.00    +0.000 A 
ATOM     32  C   UNL     1       4.821   3.919  16.339  0.00  0.00    +0.000 A 
ENDBRANCH  23  26
ENDBRANCH   6  23
TORSDOF 6
ENDMDL
MODEL 9
REMARK VINA RESULT:      -7.8      4.830     10.709
REMARK  Name = 
REMARK  7 active torsions:
REMARK  status: ('A' for Active; 'I' for Inactive)
REMARK    1  A    between atoms: C_1  and  O_2
REMARK    2  A    between atoms: O_2  and  C_3
REMARK    3  A    between atoms: C_7  and  C_8
REMARK    4  A    between atoms: C_8  and  N_9
REMARK    5  A    between atoms: C_11  and  C_12
REMARK    6  A    between atoms: N_17  and  S_18
REMARK    7  A    between atoms: S_18  and  C_21
REMARK                            x       y       z     vdW  Elec       q    Type
REMARK                         _______ _______ _______ _____ _____    ______ ____
ROOT
ATOM      1  C   UNL     1       1.135   7.925  20.523  0.00  0.00    +0.000 C 
ATOM      2  O   UNL     1       0.494   7.710  21.554  0.00  0.00    +0.000 OA
ATOM      3  N   UNL     1       2.037   6.980  20.029  0.00  0.00    +0.000 N 
ATOM      4  C   UNL     1       2.235   5.736  20.784  0.00  0.00    +0.000 C 
ATOM      5  C   UNL     1       2.276   4.495  19.872  0.00  0.00    +0.000 C 
ATOM      6  N   UNL     1       3.203   4.667  18.706  0.00  0.00    +0.000 NA
ATOM      7  C   UNL     1       2.861   5.912  17.955  0.00  0.00    +0.000 C 
ATOM      8  C   UNL     1       2.919   7.144  18.863  0.00  0.00    +0.000 C 
ENDROOT
BRANCH   1  11
ATOM      9  N   UNL     1      -0.066  10.915  18.939  0.00  0.00    +0.000 N 
ATOM     10  C   UNL     1      -0.320   9.831  19.722  0.00  0.00    +0.000 A 
ATOM     11  C   UNL     1       0.881   9.148  19.764  0.00  0.00    +0.000 A 
ATOM     12  N   UNL     1       1.803   9.850  19.027  0.00  0.00    +0.000 NA
ATOM     13  N   UNL     1       1.207  10.913  18.503  0.00  0.00    +0.000 NA
BRANCH   9  14
ATOM     14  C   UNL     1      -0.917  12.072  18.714  0.00  0.00    +0.000 C 
BRANCH  14  19
ATOM     15  C   UNL     1      -4.638  11.587  18.017  0.00  0.00    +0.000 A 
ATOM     16  C   UNL     1      -4.605  11.124  16.700  0.00  0.00    +0.000 A 
ATOM     17  C   UNL     1      -3.392  10.966  16.033  0.00  0.00    +0.000 A 
ATOM     18  C   UNL     1      -2.195  11.261  16.685  0.00  0.00    +0.000 A 
ATOM     19  C   UNL     1      -2.204  11.722  18.010  0.00  0.00    +0.000 A 
ATOM     20  C   UNL     1      -3.439  11.894  18.663  0.00  0.00    +0.000 A 
BRANCH  15  22
ATOM     21  C   UNL     1      -6.546  10.478  18.911  0.00  0.00    +0.000 C 
ATOM     22  O   UNL     1      -5.892  11.689  18.555  0.00  0.00    +0.000 OA
ENDBRANCH  15  22
ENDBRANCH  14  19
ENDBRANCH   9  14
ENDBRANCH   1  11
BRANCH   6  23
ATOM     23  S   UNL     1       4.870   4.460  19.004  0.00  0.00    +0.000 S 
ATOM     24  O   UNL     1       5.338   5.599  19.764  0.00  0.00    +0.000 OA
ATOM     25  O   UNL     1       5.085   3.111  19.472  0.00  0.00    +0.000 OA
BRANCH  23  26
ATOM     26  C   UNL     1       5.562   4.602  17.377  0.00  0.00    +0.000 A 
ATOM     27  C   UNL     1       5.082   3.764  16.365  0.00  0.00    +0.000 A 
ATOM     28  C   UNL     1       5.616   3.868  15.082  0.00  0.00    +0.000 A 
ATOM     29  C   UNL     1       6.614   4.808  14.820  0.00  0.00    +0.000 A 
ATOM     30 CL   UNL     1       7.275   4.929  13.234  0.00  0.00    +0.000 Cl
ATOM     31  C   UNL     1       7.082   5.652  15.828  0.00  0.00    +0.000 A 
ATOM     32  C   UNL     1       6.552   5.556  17.116  0.00  0.00    +0.000 A 
ENDBRANCH  23  26
ENDBRANCH   6  23
TORSDOF 6
ENDMDL
