MODEL 1
REMARK VINA RESULT:      -8.5      0.000      0.000
REMARK  Name = 
REMARK  4 active torsions:
REMARK  status: ('A' for Active; 'I' for Inactive)
REMARK    1  A    between atoms: C_1  and  N_2
REMARK    2  A    between atoms: C_9  and  C_10
REMARK    3  A    between atoms: C_10  and  N_11
REMARK    4  A    between atoms: C_15  and  C_16
REMARK                            x       y       z     vdW  Elec       q    Type
REMARK                         _______ _______ _______ _____ _____    ______ ____
ROOT
ATOM      1  C   UNL     1       2.819   5.525  19.961  0.00  0.00    +0.000 C 
ENDROOT
BRANCH   1  10
ATOM      2  C   UNL     1      -0.321   9.237  22.641  0.00  0.00    +0.000 C 
ATOM      3  N   UNL     1       0.268   9.551  21.365  0.00  0.00    +0.000 N 
ATOM      4  N   UNL     1       0.005  10.756  20.795  0.00  0.00    +0.000 NA
ATOM      5  C   UNL     1       0.590  10.675  19.593  0.00  0.00    +0.000 A 
ATOM      6  C   UNL     1       1.226   9.440  19.411  0.00  0.00    +0.000 A 
ATOM      7  C   UNL     1       1.936   8.831  18.339  0.00  0.00    +0.000 A 
ATOM      8  O   UNL     1       2.136   9.355  17.258  0.00  0.00    +0.000 OA
ATOM      9  N   UNL     1       2.369   7.553  18.646  0.00  0.00    +0.000 N 
ATOM     10  C   UNL     1       2.154   6.919  19.863  0.00  0.00    +0.000 A 
ATOM     11  N   UNL     1       1.499   7.469  20.861  0.00  0.00    +0.000 NA
ATOM     12  C   UNL     1       1.039   8.730  20.578  0.00  0.00    +0.000 A 
ATOM     13  H   UNL     1       2.844   7.044  17.919  0.00  0.00    +0.000 HD
ENDBRANCH   1  10
BRANCH   1  14
ATOM     14  N   UNL     1       2.952   4.867  18.635  0.00  0.00    +0.000 NA
ATOM     15  C   UNL     1       1.722   4.259  18.122  0.00  0.00    +0.000 C 
ATOM     16  C   UNL     1       1.895   2.751  18.088  0.00  0.00    +0.000 C 
ATOM     17  C   UNL     1       3.381   2.491  18.234  0.00  0.00    +0.000 C 
ATOM     18  C   UNL     1       4.038   3.847  18.567  0.00  0.00    +0.000 C 
BRANCH  18  19
ATOM     19  C   UNL     1       5.079   4.247  17.516  0.00  0.00    +0.000 A 
ATOM     20  C   UNL     1       4.840   3.925  16.162  0.00  0.00    +0.000 A 
ATOM     21  C   UNL     1       5.703   4.334  15.143  0.00  0.00    +0.000 A 
ATOM     22  C   UNL     1       6.860   5.039  15.453  0.00  0.00    +0.000 A 
ATOM     23  C   UNL     1       7.145   5.335  16.783  0.00  0.00    +0.000 A 
ATOM     24  C   UNL     1       6.256   4.964  17.806  0.00  0.00    +0.000 A 
ATOM     25 CL   UNL     1       6.675   5.469  19.405  0.00  0.00    +0.000 Cl
ENDBRANCH  18  19
ENDBRANCH   1  14
TORSDOF 3
ENDMDL
MODEL 2
REMARK VINA RESULT:      -7.8      3.279      6.301
REMARK  Name = 
REMARK  4 active torsions:
REMARK  status: ('A' for Active; 'I' for Inactive)
REMARK    1  A    between atoms: C_1  and  N_2
REMARK    2  A    between atoms: C_9  and  C_10
REMARK    3  A    between atoms: C_10  and  N_11
REMARK    4  A    between atoms: C_15  and  C_16
REMARK                            x       y       z     vdW  Elec       q    Type
REMARK                         _______ _______ _______ _____ _____    ______ ____
ROOT
ATOM      1  C   UNL     1       4.291   2.831  19.725  0.00  0.00    +0.000 C 
ENDROOT
BRANCH   1  10
ATOM      2  C   UNL     1       5.668   4.026  14.482  0.00  0.00    +0.000 C 
ATOM      3  N   UNL     1       6.223   4.774  15.580  0.00  0.00    +0.000 N 
ATOM      4  N   UNL     1       7.133   5.749  15.322  0.00  0.00    +0.000 NA
ATOM      5  C   UNL     1       7.528   6.146  16.539  0.00  0.00    +0.000 A 
ATOM      6  C   UNL     1       6.866   5.441  17.552  0.00  0.00    +0.000 A 
ATOM      7  C   UNL     1       6.936   5.434  18.973  0.00  0.00    +0.000 A 
ATOM      8  O   UNL     1       7.683   6.137  19.631  0.00  0.00    +0.000 OA
ATOM      9  N   UNL     1       6.069   4.520  19.544  0.00  0.00    +0.000 N 
ATOM     10  C   UNL     1       5.208   3.697  18.829  0.00  0.00    +0.000 A 
ATOM     11  N   UNL     1       5.134   3.693  17.516  0.00  0.00    +0.000 NA
ATOM     12  C   UNL     1       5.999   4.575  16.922  0.00  0.00    +0.000 A 
ATOM     13  H   UNL     1       6.093   4.430  20.546  0.00  0.00    +0.000 HD
ENDBRANCH   1  10
BRANCH   1  14
ATOM     14  N   UNL     1       2.907   3.367  19.804  0.00  0.00    +0.000 NA
ATOM     15  C   UNL     1       1.856   2.350  19.896  0.00  0.00    +0.000 C 
ATOM     16  C   UNL     1       1.029   2.381  18.623  0.00  0.00    +0.000 C 
ATOM     17  C   UNL     1       1.366   3.686  17.929  0.00  0.00    +0.000 C 
ATOM     18  C   UNL     1       2.552   4.305  18.700  0.00  0.00    +0.000 C 
BRANCH  18  19
ATOM     19  C   UNL     1       2.201   5.685  19.267  0.00  0.00    +0.000 A 
ATOM     20  C   UNL     1       1.493   5.763  20.485  0.00  0.00    +0.000 A 
ATOM     21  C   UNL     1       1.216   6.986  21.101  0.00  0.00    +0.000 A 
ATOM     22  C   UNL     1       1.599   8.174  20.490  0.00  0.00    +0.000 A 
ATOM     23  C   UNL     1       2.261   8.132  19.267  0.00  0.00    +0.000 A 
ATOM     24  C   UNL     1       2.580   6.902  18.667  0.00  0.00    +0.000 A 
ATOM     25 CL   UNL     1       3.485   6.979  17.195  0.00  0.00    +0.000 Cl
ENDBRANCH  18  19
ENDBRANCH   1  14
TORSDOF 3
ENDMDL
MODEL 3
REMARK VINA RESULT:      -7.7      3.270      6.480
REMARK  Name = 
REMARK  4 active torsions:
REMARK  status: ('A' for Active; 'I' for Inactive)
REMARK    1  A    between atoms: C_1  and  N_2
REMARK    2  A    between atoms: C_9  and  C_10
REMARK    3  A    between atoms: C_10  and  N_11
REMARK    4  A    between atoms: C_15  and  C_16
REMARK                            x       y       z     vdW  Elec       q    Type
REMARK                         _______ _______ _______ _____ _____    ______ ____
ROOT
ATOM      1  C   UNL     1       3.929   2.698  19.248  0.00  0.00    +0.000 C 
ENDROOT
BRANCH   1  10
ATOM      2  C   UNL     1       6.133   4.046  14.334  0.00  0.00    +0.000 C 
ATOM      3  N   UNL     1       6.517   4.744  15.533  0.00  0.00    +0.000 N 
ATOM      4  N   UNL     1       7.470   5.709  15.458  0.00  0.00    +0.000 NA
ATOM      5  C   UNL     1       7.673   6.057  16.735  0.00  0.00    +0.000 A 
ATOM      6  C   UNL     1       6.850   5.330  17.605  0.00  0.00    +0.000 A 
ATOM      7  C   UNL     1       6.695   5.273  19.018  0.00  0.00    +0.000 A 
ATOM      8  O   UNL     1       7.339   5.938  19.811  0.00  0.00    +0.000 OA
ATOM      9  N   UNL     1       5.736   4.357  19.412  0.00  0.00    +0.000 N 
ATOM     10  C   UNL     1       4.988   3.576  18.540  0.00  0.00    +0.000 A 
ATOM     11  N   UNL     1       5.121   3.619  17.233  0.00  0.00    +0.000 NA
ATOM     12  C   UNL     1       6.082   4.503  16.815  0.00  0.00    +0.000 A 
ATOM     13  H   UNL     1       5.601   4.232  20.401  0.00  0.00    +0.000 HD
ENDBRANCH   1  10
BRANCH   1  14
ATOM     14  N   UNL     1       3.120   3.467  20.229  0.00  0.00    +0.000 NA
ATOM     15  C   UNL     1       2.820   2.756  21.475  0.00  0.00    +0.000 C 
ATOM     16  C   UNL     1       1.328   2.483  21.539  0.00  0.00    +0.000 C 
ATOM     17  C   UNL     1       0.688   3.375  20.493  0.00  0.00    +0.000 C 
ATOM     18  C   UNL     1       1.841   4.002  19.680  0.00  0.00    +0.000 C 
BRANCH  18  19
ATOM     19  C   UNL     1       1.825   5.532  19.761  0.00  0.00    +0.000 A 
ATOM     20  C   UNL     1       1.329   6.149  20.930  0.00  0.00    +0.000 A 
ATOM     21  C   UNL     1       1.365   7.534  21.105  0.00  0.00    +0.000 A 
ATOM     22  C   UNL     1       1.856   8.350  20.094  0.00  0.00    +0.000 A 
ATOM     23  C   UNL     1       2.313   7.775  18.911  0.00  0.00    +0.000 A 
ATOM     24  C   UNL     1       2.319   6.379  18.750  0.00  0.00    +0.000 A 
ATOM     25 CL   UNL     1       2.997   5.782  17.275  0.00  0.00    +0.000 Cl
ENDBRANCH  18  19
ENDBRANCH   1  14
TORSDOF 3
ENDMDL
MODEL 4
REMARK VINA RESULT:      -7.6      1.022      1.065
REMARK  Name = 
REMARK  4 active torsions:
REMARK  status: ('A' for Active; 'I' for Inactive)
REMARK    1  A    between atoms: C_1  and  N_2
REMARK    2  A    between atoms: C_9  and  C_10
REMARK    3  A    between atoms: C_10  and  N_11
REMARK    4  A    between atoms: C_15  and  C_16
REMARK                            x       y       z     vdW  Elec       q    Type
REMARK                         _______ _______ _______ _____ _____    ______ ____
ROOT
ATOM      1  C   UNL     1       2.377   5.666  20.534  0.00  0.00    +0.000 C 
ENDROOT
BRANCH   1  10
ATOM      2  C   UNL     1      -0.464   9.986  22.554  0.00  0.00    +0.000 C 
ATOM      3  N   UNL     1       0.189  10.064  21.273  0.00  0.00    +0.000 N 
ATOM      4  N   UNL     1       0.059  11.197  20.535  0.00  0.00    +0.000 NA
ATOM      5  C   UNL     1       0.667  10.896  19.380  0.00  0.00    +0.000 A 
ATOM      6  C   UNL     1       1.185   9.595  19.394  0.00  0.00    +0.000 A 
ATOM      7  C   UNL     1       1.864   8.781  18.444  0.00  0.00    +0.000 A 
ATOM      8  O   UNL     1       2.144   9.129  17.311  0.00  0.00    +0.000 OA
ATOM      9  N   UNL     1       2.163   7.524  18.939  0.00  0.00    +0.000 N 
ATOM     10  C   UNL     1       1.853   7.087  20.220  0.00  0.00    +0.000 A 
ATOM     11  N   UNL     1       1.226   7.828  21.107  0.00  0.00    +0.000 NA
ATOM     12  C   UNL     1       0.898   9.074  20.637  0.00  0.00    +0.000 A 
ATOM     13  H   UNL     1       2.606   6.877  18.308  0.00  0.00    +0.000 HD
ENDBRANCH   1  10
BRANCH   1  14
ATOM     14  N   UNL     1       2.884   4.969  19.323  0.00  0.00    +0.000 NA
ATOM     15  C   UNL     1       2.127   3.776  18.935  0.00  0.00    +0.000 C 
ATOM     16  C   UNL     1       3.003   2.552  19.130  0.00  0.00    +0.000 C 
ATOM     17  C   UNL     1       4.422   3.065  19.283  0.00  0.00    +0.000 C 
ATOM     18  C   UNL     1       4.328   4.602  19.389  0.00  0.00    +0.000 C 
BRANCH  18  19
ATOM     19  C   UNL     1       5.106   5.297  18.267  0.00  0.00    +0.000 A 
ATOM     20  C   UNL     1       4.445   5.580  17.052  0.00  0.00    +0.000 A 
ATOM     21  C   UNL     1       5.067   6.287  16.021  0.00  0.00    +0.000 A 
ATOM     22  C   UNL     1       6.389   6.692  16.155  0.00  0.00    +0.000 A 
ATOM     23  C   UNL     1       7.082   6.390  17.324  0.00  0.00    +0.000 A 
ATOM     24  C   UNL     1       6.445   5.718  18.381  0.00  0.00    +0.000 A 
ATOM     25 CL   UNL     1       7.382   5.484  19.815  0.00  0.00    +0.000 Cl
ENDBRANCH  18  19
ENDBRANCH   1  14
TORSDOF 3
ENDMDL
MODEL 5
REMARK VINA RESULT:      -7.5      3.216      6.151
REMARK  Name = 
REMARK  4 active torsions:
REMARK  status: ('A' for Active; 'I' for Inactive)
REMARK    1  A    between atoms: C_1  and  N_2
REMARK    2  A    between atoms: C_9  and  C_10
REMARK    3  A    between atoms: C_10  and  N_11
REMARK    4  A    between atoms: C_15  and  C_16
REMARK                            x       y       z     vdW  Elec       q    Type
REMARK                         _______ _______ _______ _____ _____    ______ ____
ROOT
ATOM      1  C   UNL     1       4.429   3.041  19.804  0.00  0.00    +0.000 C 
ENDROOT
BRANCH   1  10
ATOM      2  C   UNL     1       8.023   7.105  18.630  0.00  0.00    +0.000 C 
ATOM      3  N   UNL     1       7.483   6.272  17.587  0.00  0.00    +0.000 N 
ATOM      4  N   UNL     1       7.825   6.524  16.297  0.00  0.00    +0.000 NA
ATOM      5  C   UNL     1       7.071   5.669  15.594  0.00  0.00    +0.000 A 
ATOM      6  C   UNL     1       6.273   4.878  16.430  0.00  0.00    +0.000 A 
ATOM      7  C   UNL     1       5.288   3.875  16.212  0.00  0.00    +0.000 A 
ATOM      8  O   UNL     1       4.930   3.486  15.115  0.00  0.00    +0.000 OA
ATOM      9  N   UNL     1       4.754   3.389  17.392  0.00  0.00    +0.000 N 
ATOM     10  C   UNL     1       5.130   3.812  18.661  0.00  0.00    +0.000 A 
ATOM     11  N   UNL     1       6.038   4.738  18.876  0.00  0.00    +0.000 NA
ATOM     12  C   UNL     1       6.570   5.254  17.723  0.00  0.00    +0.000 A 
ATOM     13  H   UNL     1       4.020   2.705  17.315  0.00  0.00    +0.000 HD
ENDBRANCH   1  10
BRANCH   1  14
ATOM     14  N   UNL     1       3.033   3.502  20.026  0.00  0.00    +0.000 NA
ATOM     15  C   UNL     1       2.070   2.435  20.313  0.00  0.00    +0.000 C 
ATOM     16  C   UNL     1       1.092   2.332  19.156  0.00  0.00    +0.000 C 
ATOM     17  C   UNL     1       1.256   3.603  18.347  0.00  0.00    +0.000 C 
ATOM     18  C   UNL     1       2.485   4.340  18.922  0.00  0.00    +0.000 C 
BRANCH  18  19
ATOM     19  C   UNL     1       2.118   5.733  19.444  0.00  0.00    +0.000 A 
ATOM     20  C   UNL     1       1.390   5.841  20.648  0.00  0.00    +0.000 A 
ATOM     21  C   UNL     1       1.097   7.079  21.225  0.00  0.00    +0.000 A 
ATOM     22  C   UNL     1       1.483   8.252  20.587  0.00  0.00    +0.000 A 
ATOM     23  C   UNL     1       2.165   8.179  19.376  0.00  0.00    +0.000 A 
ATOM     24  C   UNL     1       2.500   6.935  18.816  0.00  0.00    +0.000 A 
ATOM     25 CL   UNL     1       3.428   6.976  17.357  0.00  0.00    +0.000 Cl
ENDBRANCH  18  19
ENDBRANCH   1  14
TORSDOF 3
ENDMDL
MODEL 6
REMARK VINA RESULT:      -7.3      1.486      2.116
REMARK  Name = 
REMARK  4 active torsions:
REMARK  status: ('A' for Active; 'I' for Inactive)
REMARK    1  A    between atoms: C_1  and  N_2
REMARK    2  A    between atoms: C_9  and  C_10
REMARK    3  A    between atoms: C_10  and  N_11
REMARK    4  A    between atoms: C_15  and  C_16
REMARK                            x       y       z     vdW  Elec       q    Type
REMARK                         _______ _______ _______ _____ _____    ______ ____
ROOT
ATOM      1  C   UNL     1       2.948   5.868  20.006  0.00  0.00    +0.000 C 
ENDROOT
BRANCH   1  10
ATOM      2  C   UNL     1       2.221  10.886  17.746  0.00  0.00    +0.000 C 
ATOM      3  N   UNL     1       1.323  10.394  18.758  0.00  0.00    +0.000 N 
ATOM      4  N   UNL     1       0.318  11.196  19.194  0.00  0.00    +0.000 NA
ATOM      5  C   UNL     1      -0.235  10.500  20.196  0.00  0.00    +0.000 A 
ATOM      6  C   UNL     1       0.405   9.267  20.381  0.00  0.00    +0.000 A 
ATOM      7  C   UNL     1       0.256   8.193  21.302  0.00  0.00    +0.000 A 
ATOM      8  O   UNL     1      -0.565   8.165  22.202  0.00  0.00    +0.000 OA
ATOM      9  N   UNL     1       1.164   7.173  21.082  0.00  0.00    +0.000 N 
ATOM     10  C   UNL     1       2.118   7.172  20.073  0.00  0.00    +0.000 A 
ATOM     11  N   UNL     1       2.268   8.157  19.216  0.00  0.00    +0.000 NA
ATOM     12  C   UNL     1       1.394   9.193  19.423  0.00  0.00    +0.000 A 
ATOM     13  H   UNL     1       1.145   6.398  21.723  0.00  0.00    +0.000 HD
ENDBRANCH   1  10
BRANCH   1  14
ATOM     14  N   UNL     1       2.991   5.294  18.636  0.00  0.00    +0.000 NA
ATOM     15  C   UNL     1       1.685   4.945  18.072  0.00  0.00    +0.000 C 
ATOM     16  C   UNL     1       1.598   3.436  17.927  0.00  0.00    +0.000 C 
ATOM     17  C   UNL     1       3.016   2.915  18.061  0.00  0.00    +0.000 C 
ATOM     18  C   UNL     1       3.888   4.111  18.498  0.00  0.00    +0.000 C 
BRANCH  18  19
ATOM     19  C   UNL     1       5.001   4.402  17.485  0.00  0.00    +0.000 A 
ATOM     20  C   UNL     1       4.781   4.098  16.124  0.00  0.00    +0.000 A 
ATOM     21  C   UNL     1       5.716   4.415  15.137  0.00  0.00    +0.000 A 
ATOM     22  C   UNL     1       6.925   5.005  15.488  0.00  0.00    +0.000 A 
ATOM     23  C   UNL     1       7.189   5.278  16.827  0.00  0.00    +0.000 A 
ATOM     24  C   UNL     1       6.231   5.000  17.817  0.00  0.00    +0.000 A 
ATOM     25 CL   UNL     1       6.640   5.470  19.430  0.00  0.00    +0.000 Cl
ENDBRANCH  18  19
ENDBRANCH   1  14
TORSDOF 3
ENDMDL
MODEL 7
REMARK VINA RESULT:      -7.3      2.087      3.891
REMARK  Name = 
REMARK  4 active torsions:
REMARK  status: ('A' for Active; 'I' for Inactive)
REMARK    1  A    between atoms: C_1  and  N_2
REMARK    2  A    between atoms: C_9  and  C_10
REMARK    3  A    between atoms: C_10  and  N_11
REMARK    4  A    between atoms: C_15  and  C_16
REMARK                            x       y       z     vdW  Elec       q    Type
REMARK                         _______ _______ _______ _____ _____    ______ ____
ROOT
ATOM      1  C   UNL     1       2.023   7.863  17.540  0.00  0.00    +0.000 C 
ENDROOT
BRANCH   1  10
ATOM      2  C   UNL     1      -0.295   9.257  22.388  0.00  0.00    +0.000 C 
ATOM      3  N   UNL     1       0.319  10.252  21.549  0.00  0.00    +0.000 N 
ATOM      4  N   UNL     1       0.281  11.554  21.934  0.00  0.00    +0.000 NA
ATOM      5  C   UNL     1       0.816  12.210  20.896  0.00  0.00    +0.000 A 
ATOM      6  C   UNL     1       1.200  11.332  19.874  0.00  0.00    +0.000 A 
ATOM      7  C   UNL     1       1.760  11.495  18.576  0.00  0.00    +0.000 A 
ATOM      8  O   UNL     1       2.036  12.570  18.074  0.00  0.00    +0.000 OA
ATOM      9  N   UNL     1       1.945  10.291  17.922  0.00  0.00    +0.000 N 
ATOM     10  C   UNL     1       1.635   9.047  18.458  0.00  0.00    +0.000 A 
ATOM     11  N   UNL     1       1.118   8.882  19.655  0.00  0.00    +0.000 NA
ATOM     12  C   UNL     1       0.903  10.062  20.319  0.00  0.00    +0.000 A 
ATOM     13  H   UNL     1       2.299  10.331  16.981  0.00  0.00    +0.000 HD
ENDBRANCH   1  10
BRANCH   1  14
ATOM     14  N   UNL     1       3.013   6.954  18.175  0.00  0.00    +0.000 NA
ATOM     15  C   UNL     1       4.413   7.352  18.005  0.00  0.00    +0.000 C 
ATOM     16  C   UNL     1       5.111   6.330  17.126  0.00  0.00    +0.000 C 
ATOM     17  C   UNL     1       4.204   5.117  17.082  0.00  0.00    +0.000 C 
ATOM     18  C   UNL     1       2.882   5.527  17.765  0.00  0.00    +0.000 C 
BRANCH  18  19
ATOM     19  C   UNL     1       2.576   4.649  18.983  0.00  0.00    +0.000 A 
ATOM     20  C   UNL     1       2.464   5.258  20.252  0.00  0.00    +0.000 A 
ATOM     21  C   UNL     1       2.104   4.532  21.390  0.00  0.00    +0.000 A 
ATOM     22  C   UNL     1       1.890   3.162  21.301  0.00  0.00    +0.000 A 
ATOM     23  C   UNL     1       2.034   2.525  20.071  0.00  0.00    +0.000 A 
ATOM     24  C   UNL     1       2.353   3.260  18.917  0.00  0.00    +0.000 A 
ATOM     25 CL   UNL     1       2.413   2.371  17.435  0.00  0.00    +0.000 Cl
ENDBRANCH  18  19
ENDBRANCH   1  14
TORSDOF 3
ENDMDL
MODEL 8
REMARK VINA RESULT:      -7.2      1.189      1.664
REMARK  Name = 
REMARK  4 active torsions:
REMARK  status: ('A' for Active; 'I' for Inactive)
REMARK    1  A    between atoms: C_1  and  N_2
REMARK    2  A    between atoms: C_9  and  C_10
REMARK    3  A    between atoms: C_10  and  N_11
REMARK    4  A    between atoms: C_15  and  C_16
REMARK                            x       y       z     vdW  Elec       q    Type
REMARK                         _______ _______ _______ _____ _____    ______ ____
ROOT
ATOM      1  C   UNL     1       2.315   5.283  20.434  0.00  0.00    +0.000 C 
ENDROOT
BRANCH   1  10
ATOM      2  C   UNL     1      -0.249   9.708  22.595  0.00  0.00    +0.000 C 
ATOM      3  N   UNL     1       0.409   9.786  21.317  0.00  0.00    +0.000 N 
ATOM      4  N   UNL     1       0.353  10.948  20.616  0.00  0.00    +0.000 NA
ATOM      5  C   UNL     1       0.942  10.647  19.451  0.00  0.00    +0.000 A 
ATOM      6  C   UNL     1       1.376   9.315  19.422  0.00  0.00    +0.000 A 
ATOM      7  C   UNL     1       2.003   8.490  18.446  0.00  0.00    +0.000 A 
ATOM      8  O   UNL     1       2.306   8.857  17.325  0.00  0.00    +0.000 OA
ATOM      9  N   UNL     1       2.221   7.202  18.900  0.00  0.00    +0.000 N 
ATOM     10  C   UNL     1       1.882   6.745  20.167  0.00  0.00    +0.000 A 
ATOM     11  N   UNL     1       1.303   7.495  21.078  0.00  0.00    +0.000 NA
ATOM     12  C   UNL     1       1.055   8.774  20.648  0.00  0.00    +0.000 A 
ATOM     13  H   UNL     1       2.623   6.549  18.248  0.00  0.00    +0.000 HD
ENDBRANCH   1  10
BRANCH   1  14
ATOM     14  N   UNL     1       2.968   4.661  19.253  0.00  0.00    +0.000 NA
ATOM     15  C   UNL     1       2.170   3.634  18.577  0.00  0.00    +0.000 C 
ATOM     16  C   UNL     1       2.844   2.287  18.761  0.00  0.00    +0.000 C 
ATOM     17  C   UNL     1       4.254   2.578  19.236  0.00  0.00    +0.000 C 
ATOM     18  C   UNL     1       4.318   4.092  19.530  0.00  0.00    +0.000 C 
BRANCH  18  19
ATOM     19  C   UNL     1       5.377   4.793  18.672  0.00  0.00    +0.000 A 
ATOM     20  C   UNL     1       6.420   5.495  19.314  0.00  0.00    +0.000 A 
ATOM     21  C   UNL     1       7.464   6.083  18.596  0.00  0.00    +0.000 A 
ATOM     22  C   UNL     1       7.471   6.027  17.208  0.00  0.00    +0.000 A 
ATOM     23  C   UNL     1       6.434   5.378  16.544  0.00  0.00    +0.000 A 
ATOM     24  C   UNL     1       5.406   4.748  17.265  0.00  0.00    +0.000 A 
ATOM     25 CL   UNL     1       4.226   3.896  16.330  0.00  0.00    +0.000 Cl
ENDBRANCH  18  19
ENDBRANCH   1  14
TORSDOF 3
ENDMDL
MODEL 9
REMARK VINA RESULT:      -7.2      1.487      1.857
REMARK  Name = 
REMARK  4 active torsions:
REMARK  status: ('A' for Active; 'I' for Inactive)
REMARK    1  A    between atoms: C_1  and  N_2
REMARK    2  A    between atoms: C_9  and  C_10
REMARK    3  A    between atoms: C_10  and  N_11
REMARK    4  A    between atoms: C_15  and  C_16
REMARK                            x       y       z     vdW  Elec       q    Type
REMARK                         _______ _______ _______ _____ _____    ______ ____
ROOT
ATOM      1  C   UNL     1       2.188   5.873  20.872  0.00  0.00    +0.000 C 
ENDROOT
BRANCH   1  10
ATOM      2  C   UNL     1      -0.533  10.546  22.128  0.00  0.00    +0.000 C 
ATOM      3  N   UNL     1       0.196  10.424  20.892  0.00  0.00    +0.000 N 
ATOM      4  N   UNL     1       0.169  11.454  20.006  0.00  0.00    +0.000 NA
ATOM      5  C   UNL     1       0.825  10.975  18.941  0.00  0.00    +0.000 A 
ATOM      6  C   UNL     1       1.272   9.665  19.157  0.00  0.00    +0.000 A 
ATOM      7  C   UNL     1       1.960   8.702  18.367  0.00  0.00    +0.000 A 
ATOM      8  O   UNL     1       2.323   8.884  17.218  0.00  0.00    +0.000 OA
ATOM      9  N   UNL     1       2.163   7.510  19.038  0.00  0.00    +0.000 N 
ATOM     10  C   UNL     1       1.758   7.262  20.344  0.00  0.00    +0.000 A 
ATOM     11  N   UNL     1       1.122   8.142  21.085  0.00  0.00    +0.000 NA
ATOM     12  C   UNL     1       0.887   9.328  20.436  0.00  0.00    +0.000 A 
ATOM     13  H   UNL     1       2.607   6.767  18.527  0.00  0.00    +0.000 HD
ENDBRANCH   1  10
BRANCH   1  14
ATOM     14  N   UNL     1       2.342   4.875  19.782  0.00  0.00    +0.000 NA
ATOM     15  C   UNL     1       1.185   4.000  19.578  0.00  0.00    +0.000 C 
ATOM     16  C   UNL     1       1.568   2.581  19.958  0.00  0.00    +0.000 C 
ATOM     17  C   UNL     1       3.082   2.555  20.033  0.00  0.00    +0.000 C 
ATOM     18  C   UNL     1       3.557   4.019  19.905  0.00  0.00    +0.000 C 
BRANCH  18  19
ATOM     19  C   UNL     1       4.471   4.214  18.692  0.00  0.00    +0.000 A 
ATOM     20  C   UNL     1       5.768   4.736  18.891  0.00  0.00    +0.000 A 
ATOM     21  C   UNL     1       6.682   4.861  17.843  0.00  0.00    +0.000 A 
ATOM     22  C   UNL     1       6.311   4.509  16.551  0.00  0.00    +0.000 A 
ATOM     23  C   UNL     1       5.025   4.031  16.315  0.00  0.00    +0.000 A 
ATOM     24  C   UNL     1       4.118   3.864  17.374  0.00  0.00    +0.000 A 
ATOM     25 CL   UNL     1       2.585   3.175  16.967  0.00  0.00    +0.000 Cl
ENDBRANCH  18  19
ENDBRANCH   1  14
TORSDOF 3
ENDMDL
