MODEL 1
REMARK VINA RESULT:      -9.1      0.000      0.000
REMARK  Name = 
REMARK  7 active torsions:
REMARK  status: ('A' for Active; 'I' for Inactive)
REMARK    1  A    between atoms: C_1  and  C_2
REMARK    2  A    between atoms: C_2  and  C_3
REMARK    3  A    between atoms: C_3  and  N_4
REMARK    4  A    between atoms: C_5  and  C_7
REMARK    5  A    between atoms: C_8  and  N_9
REMARK    6  A    between atoms: N_10  and  C_11
REMARK    7  A    between atoms: C_11  and  C_12
REMARK                            x       y       z     vdW  Elec       q    Type
REMARK                         _______ _______ _______ _____ _____    ______ ____
ROOT
ATOM      1  C   UNL     1       7.000   6.432  17.169  0.00  0.00    +0.000 A 
ATOM      2  C   UNL     1       5.648   6.297  17.476  0.00  0.00    +0.000 A 
ATOM      3  N   UNL     1       5.375   4.983  17.220  0.00  0.00    +0.000 N 
ATOM      4  C   UNL     1       5.907   4.813  15.983  0.00  0.00    +0.000 A 
ATOM      5  N   UNL     1       5.430   3.918  15.127  0.00  0.00    +0.000 NA
ATOM      6  C   UNL     1       6.041   3.965  13.963  0.00  0.00    +0.000 A 
ATOM      7  C   UNL     1       5.430   3.168  13.013  0.00  0.00    +0.000 A 
ATOM      8  C   UNL     1       5.898   3.131  11.715  0.00  0.00    +0.000 A 
ATOM      9  C   UNL     1       7.017   3.906  11.413  0.00  0.00    +0.000 A 
ATOM     10  C   UNL     1       7.636   4.694  12.397  0.00  0.00    +0.000 A 
ATOM     11  C   UNL     1       7.180   4.786  13.731  0.00  0.00    +0.000 A 
ATOM     12  N   UNL     1       7.742   5.611  14.711  0.00  0.00    +0.000 NA
ATOM     13  C   UNL     1       7.017   5.670  15.887  0.00  0.00    +0.000 A 
ENDROOT
BRANCH   1  15
ATOM     14  N   UNL     1       7.742   8.709  17.482  0.00  0.00    +0.000 N 
ATOM     15  C   UNL     1       7.803   7.389  17.988  0.00  0.00    +0.000 C 
ATOM     16  O   UNL     1       8.393   7.098  19.018  0.00  0.00    +0.000 OA
ATOM     17  H   UNL     1       7.141   8.846  16.679  0.00  0.00    +0.000 HD
BRANCH  14  18
ATOM     18  C   UNL     1       8.208   9.975  18.047  0.00  0.00    +0.000 C 
BRANCH  18  20
ATOM     19  C   UNL     1      10.259  11.087  19.160  0.00  0.00    +0.000 C 
ATOM     20  C   UNL     1       9.317   9.893  19.103  0.00  0.00    +0.000 C 
ENDBRANCH  18  20
ENDBRANCH  14  18
ENDBRANCH   1  15
BRANCH   2  21
ATOM     21  N   UNL     1       4.715   7.283  17.261  0.00  0.00    +0.000 N 
ATOM     22  H   UNL     1       4.028   7.051  16.536  0.00  0.00    +0.000 HD
ATOM     23  H   UNL     1       4.120   7.418  18.092  0.00  0.00    +0.000 HD
ENDBRANCH   2  21
BRANCH   3  24
ATOM     24  C   UNL     1       5.498   3.867  18.158  0.00  0.00    +0.000 C 
BRANCH  24  25
ATOM     25  C   UNL     1       4.190   3.559  18.825  0.00  0.00    +0.000 A 
ATOM     26  C   UNL     1       2.987   3.809  18.131  0.00  0.00    +0.000 A 
ATOM     27  C   UNL     1       1.753   3.625  18.753  0.00  0.00    +0.000 A 
ATOM     28  C   UNL     1       1.752   3.185  20.058  0.00  0.00    +0.000 A 
ATOM     29  C   UNL     1       2.918   2.904  20.733  0.00  0.00    +0.000 A 
ATOM     30  C   UNL     1       4.151   3.069  20.143  0.00  0.00    +0.000 A 
ATOM     31  O   UNL     1       2.690   2.479  22.004  0.00  0.00    +0.000 OA
ATOM     32  C   UNL     1       1.247   2.491  22.038  0.00  0.00    +0.000 C 
ATOM     33  O   UNL     1       0.648   2.980  20.821  0.00  0.00    +0.000 OA
ENDBRANCH  24  25
ENDBRANCH   3  24
TORSDOF 6
ENDMDL
MODEL 2
REMARK VINA RESULT:      -8.7      2.715      5.543
REMARK  Name = 
REMARK  7 active torsions:
REMARK  status: ('A' for Active; 'I' for Inactive)
REMARK    1  A    between atoms: C_1  and  C_2
REMARK    2  A    between atoms: C_2  and  C_3
REMARK    3  A    between atoms: C_3  and  N_4
REMARK    4  A    between atoms: C_5  and  C_7
REMARK    5  A    between atoms: C_8  and  N_9
REMARK    6  A    between atoms: N_10  and  C_11
REMARK    7  A    between atoms: C_11  and  C_12
REMARK                            x       y       z     vdW  Elec       q    Type
REMARK                         _______ _______ _______ _____ _____    ______ ____
ROOT
ATOM      1  C   UNL     1       6.088   5.026  15.828  0.00  0.00    +0.000 A 
ATOM      2  C   UNL     1       6.614   4.404  16.959  0.00  0.00    +0.000 A 
ATOM      3  N   UNL     1       5.514   3.991  17.657  0.00  0.00    +0.000 N 
ATOM      4  C   UNL     1       4.748   5.111  17.677  0.00  0.00    +0.000 A 
ATOM      5  N   UNL     1       3.889   5.360  18.658  0.00  0.00    +0.000 NA
ATOM      6  C   UNL     1       3.301   6.529  18.522  0.00  0.00    +0.000 A 
ATOM      7  C   UNL     1       2.549   6.875  19.630  0.00  0.00    +0.000 A 
ATOM      8  C   UNL     1       1.902   8.092  19.693  0.00  0.00    +0.000 A 
ATOM      9  C   UNL     1       2.018   8.940  18.591  0.00  0.00    +0.000 A 
ATOM     10  C   UNL     1       2.771   8.562  17.467  0.00  0.00    +0.000 A 
ATOM     11  C   UNL     1       3.473   7.341  17.366  0.00  0.00    +0.000 A 
ATOM     12  N   UNL     1       4.278   6.971  16.283  0.00  0.00    +0.000 NA
ATOM     13  C   UNL     1       5.006   5.814  16.487  0.00  0.00    +0.000 A 
ENDROOT
BRANCH   1  15
ATOM     14  N   UNL     1       6.310   3.933  13.686  0.00  0.00    +0.000 N 
ATOM     15  C   UNL     1       6.858   4.907  14.553  0.00  0.00    +0.000 C 
ATOM     16  O   UNL     1       7.810   5.610  14.247  0.00  0.00    +0.000 OA
ATOM     17  H   UNL     1       5.461   3.483  14.008  0.00  0.00    +0.000 HD
BRANCH  14  18
ATOM     18  C   UNL     1       6.613   3.611  12.292  0.00  0.00    +0.000 C 
BRANCH  18  20
ATOM     19  C   UNL     1       4.230   3.200  11.377  0.00  0.00    +0.000 C 
ATOM     20  C   UNL     1       5.642   2.666  11.575  0.00  0.00    +0.000 C 
ENDBRANCH  18  20
ENDBRANCH  14  18
ENDBRANCH   1  15
BRANCH   2  21
ATOM     21  N   UNL     1       7.757   4.820  17.595  0.00  0.00    +0.000 N 
ATOM     22  H   UNL     1       7.793   4.571  18.589  0.00  0.00    +0.000 HD
ATOM     23  H   UNL     1       8.588   4.339  17.219  0.00  0.00    +0.000 HD
ENDBRANCH   2  21
BRANCH   3  24
ATOM     24  C   UNL     1       4.820   2.711  17.515  0.00  0.00    +0.000 C 
BRANCH  24  25
ATOM     25  C   UNL     1       3.653   2.609  18.452  0.00  0.00    +0.000 A 
ATOM     26  C   UNL     1       2.344   2.612  17.926  0.00  0.00    +0.000 A 
ATOM     27  C   UNL     1       1.235   2.615  18.771  0.00  0.00    +0.000 A 
ATOM     28  C   UNL     1       1.464   2.604  20.129  0.00  0.00    +0.000 A 
ATOM     29  C   UNL     1       2.736   2.565  20.653  0.00  0.00    +0.000 A 
ATOM     30  C   UNL     1       3.850   2.555  19.844  0.00  0.00    +0.000 A 
ATOM     31  O   UNL     1       2.734   2.556  22.013  0.00  0.00    +0.000 OA
ATOM     32  C   UNL     1       1.315   2.558  22.282  0.00  0.00    +0.000 C 
ATOM     33  O   UNL     1       0.506   2.632  21.091  0.00  0.00    +0.000 OA
ENDBRANCH  24  25
ENDBRANCH   3  24
TORSDOF 6
ENDMDL
MODEL 3
REMARK VINA RESULT:      -8.5      2.708      6.575
REMARK  Name = 
REMARK  7 active torsions:
REMARK  status: ('A' for Active; 'I' for Inactive)
REMARK    1  A    between atoms: C_1  and  C_2
REMARK    2  A    between atoms: C_2  and  C_3
REMARK    3  A    between atoms: C_3  and  N_4
REMARK    4  A    between atoms: C_5  and  C_7
REMARK    5  A    between atoms: C_8  and  N_9
REMARK    6  A    between atoms: N_10  and  C_11
REMARK    7  A    between atoms: C_11  and  C_12
REMARK                            x       y       z     vdW  Elec       q    Type
REMARK                         _______ _______ _______ _____ _____    ______ ____
ROOT
ATOM      1  C   UNL     1       6.537   6.159  17.960  0.00  0.00    +0.000 A 
ATOM      2  C   UNL     1       6.850   5.044  17.184  0.00  0.00    +0.000 A 
ATOM      3  N   UNL     1       5.715   4.811  16.459  0.00  0.00    +0.000 N 
ATOM      4  C   UNL     1       4.751   4.841  17.414  0.00  0.00    +0.000 A 
ATOM      5  N   UNL     1       3.622   4.154  17.297  0.00  0.00    +0.000 NA
ATOM      6  C   UNL     1       2.857   4.267  18.361  0.00  0.00    +0.000 A 
ATOM      7  C   UNL     1       1.771   3.412  18.325  0.00  0.00    +0.000 A 
ATOM      8  C   UNL     1       0.885   3.348  19.382  0.00  0.00    +0.000 A 
ATOM      9  C   UNL     1       1.117   4.194  20.467  0.00  0.00    +0.000 A 
ATOM     10  C   UNL     1       2.215   5.070  20.476  0.00  0.00    +0.000 A 
ATOM     11  C   UNL     1       3.163   5.153  19.433  0.00  0.00    +0.000 A 
ATOM     12  N   UNL     1       4.297   5.972  19.448  0.00  0.00    +0.000 NA
ATOM     13  C   UNL     1       5.172   5.751  18.401  0.00  0.00    +0.000 A 
ENDROOT
BRANCH   1  15
ATOM     14  N   UNL     1       7.501   8.330  17.525  0.00  0.00    +0.000 N 
ATOM     15  C   UNL     1       7.637   7.126  18.255  0.00  0.00    +0.000 C 
ATOM     16  O   UNL     1       8.520   6.944  19.080  0.00  0.00    +0.000 OA
ATOM     17  H   UNL     1       6.674   8.403  16.945  0.00  0.00    +0.000 HD
BRANCH  14  18
ATOM     18  C   UNL     1       8.221   9.599  17.626  0.00  0.00    +0.000 C 
BRANCH  18  20
ATOM     19  C   UNL     1       9.888  11.081  18.931  0.00  0.00    +0.000 C 
ATOM     20  C   UNL     1       8.979   9.860  18.932  0.00  0.00    +0.000 C 
ENDBRANCH  18  20
ENDBRANCH  14  18
ENDBRANCH   1  15
BRANCH   2  21
ATOM     21  N   UNL     1       7.655   4.017  17.615  0.00  0.00    +0.000 N 
ATOM     22  H   UNL     1       7.188   3.104  17.631  0.00  0.00    +0.000 HD
ATOM     23  H   UNL     1       8.432   3.855  16.957  0.00  0.00    +0.000 HD
ENDBRANCH   2  21
BRANCH   3  24
ATOM     24  C   UNL     1       5.381   5.381  15.154  0.00  0.00    +0.000 C 
BRANCH  24  25
ATOM     25  C   UNL     1       6.031   4.622  14.036  0.00  0.00    +0.000 A 
ATOM     26  C   UNL     1       7.247   5.095  13.498  0.00  0.00    +0.000 A 
ATOM     27  C   UNL     1       7.832   4.470  12.398  0.00  0.00    +0.000 A 
ATOM     28  C   UNL     1       7.187   3.376  11.864  0.00  0.00    +0.000 A 
ATOM     29  C   UNL     1       6.020   2.885  12.402  0.00  0.00    +0.000 A 
ATOM     30  C   UNL     1       5.423   3.476  13.493  0.00  0.00    +0.000 A 
ATOM     31  O   UNL     1       5.556   1.800  11.727  0.00  0.00    +0.000 OA
ATOM     32  C   UNL     1       6.585   1.644  10.726  0.00  0.00    +0.000 C 
ATOM     33  O   UNL     1       7.599   2.668  10.782  0.00  0.00    +0.000 OA
ENDBRANCH  24  25
ENDBRANCH   3  24
TORSDOF 6
ENDMDL
MODEL 4
REMARK VINA RESULT:      -8.2      3.325      7.948
REMARK  Name = 
REMARK  7 active torsions:
REMARK  status: ('A' for Active; 'I' for Inactive)
REMARK    1  A    between atoms: C_1  and  C_2
REMARK    2  A    between atoms: C_2  and  C_3
REMARK    3  A    between atoms: C_3  and  N_4
REMARK    4  A    between atoms: C_5  and  C_7
REMARK    5  A    between atoms: C_8  and  N_9
REMARK    6  A    between atoms: N_10  and  C_11
REMARK    7  A    between atoms: C_11  and  C_12
REMARK                            x       y       z     vdW  Elec       q    Type
REMARK                         _______ _______ _______ _____ _____    ______ ____
ROOT
ATOM      1  C   UNL     1       3.784   3.389  19.675  0.00  0.00    +0.000 A 
ATOM      2  C   UNL     1       3.770   3.144  18.303  0.00  0.00    +0.000 A 
ATOM      3  N   UNL     1       4.340   4.260  17.758  0.00  0.00    +0.000 N 
ATOM      4  C   UNL     1       3.660   5.261  18.370  0.00  0.00    +0.000 A 
ATOM      5  N   UNL     1       3.474   6.443  17.795  0.00  0.00    +0.000 NA
ATOM      6  C   UNL     1       2.731   7.244  18.527  0.00  0.00    +0.000 A 
ATOM      7  C   UNL     1       2.381   8.401  17.857  0.00  0.00    +0.000 A 
ATOM      8  C   UNL     1       1.556   9.338  18.446  0.00  0.00    +0.000 A 
ATOM      9  C   UNL     1       1.115   9.080  19.744  0.00  0.00    +0.000 A 
ATOM     10  C   UNL     1       1.498   7.908  20.417  0.00  0.00    +0.000 A 
ATOM     11  C   UNL     1       2.317   6.908  19.847  0.00  0.00    +0.000 A 
ATOM     12  N   UNL     1       2.660   5.705  20.474  0.00  0.00    +0.000 NA
ATOM     13  C   UNL     1       3.318   4.806  19.656  0.00  0.00    +0.000 A 
ENDROOT
BRANCH   1  15
ATOM     14  N   UNL     1       4.908   1.287  20.061  0.00  0.00    +0.000 N 
ATOM     15  C   UNL     1       3.982   2.220  20.584  0.00  0.00    +0.000 C 
ATOM     16  O   UNL     1       3.467   2.100  21.685  0.00  0.00    +0.000 OA
ATOM     17  H   UNL     1       5.344   1.542  19.184  0.00  0.00    +0.000 HD
BRANCH  14  18
ATOM     18  C   UNL     1       5.534   0.113  20.670  0.00  0.00    +0.000 C 
BRANCH  18  20
ATOM     19  C   UNL     1       6.821  -0.926  22.655  0.00  0.00    +0.000 C 
ATOM     20  C   UNL     1       6.138   0.300  22.066  0.00  0.00    +0.000 C 
ENDBRANCH  18  20
ENDBRANCH  14  18
ENDBRANCH   1  15
BRANCH   2  21
ATOM     21  N   UNL     1       2.767   2.459  17.662  0.00  0.00    +0.000 N 
ATOM     22  H   UNL     1       2.842   1.440  17.745  0.00  0.00    +0.000 HD
ATOM     23  H   UNL     1       1.852   2.648  18.097  0.00  0.00    +0.000 HD
ENDBRANCH   2  21
BRANCH   3  24
ATOM     24  C   UNL     1       5.765   4.478  17.506  0.00  0.00    +0.000 C 
BRANCH  24  25
ATOM     25  C   UNL     1       6.064   4.532  16.037  0.00  0.00    +0.000 A 
ATOM     26  C   UNL     1       5.276   3.774  15.145  0.00  0.00    +0.000 A 
ATOM     27  C   UNL     1       5.583   3.725  13.786  0.00  0.00    +0.000 A 
ATOM     28  C   UNL     1       6.673   4.446  13.349  0.00  0.00    +0.000 A 
ATOM     29  C   UNL     1       7.428   5.216  14.204  0.00  0.00    +0.000 A 
ATOM     30  C   UNL     1       7.144   5.289  15.549  0.00  0.00    +0.000 A 
ATOM     31  O   UNL     1       8.450   5.845  13.566  0.00  0.00    +0.000 OA
ATOM     32  C   UNL     1       8.228   5.411  12.206  0.00  0.00    +0.000 C 
ATOM     33  O   UNL     1       7.129   4.489  12.071  0.00  0.00    +0.000 OA
ENDBRANCH  24  25
ENDBRANCH   3  24
TORSDOF 6
ENDMDL
MODEL 5
REMARK VINA RESULT:      -8.0      3.444      7.828
REMARK  Name = 
REMARK  7 active torsions:
REMARK  status: ('A' for Active; 'I' for Inactive)
REMARK    1  A    between atoms: C_1  and  C_2
REMARK    2  A    between atoms: C_2  and  C_3
REMARK    3  A    between atoms: C_3  and  N_4
REMARK    4  A    between atoms: C_5  and  C_7
REMARK    5  A    between atoms: C_8  and  N_9
REMARK    6  A    between atoms: N_10  and  C_11
REMARK    7  A    between atoms: C_11  and  C_12
REMARK                            x       y       z     vdW  Elec       q    Type
REMARK                         _______ _______ _______ _____ _____    ______ ____
ROOT
ATOM      1  C   UNL     1       3.726   3.534  19.951  0.00  0.00    +0.000 A 
ATOM      2  C   UNL     1       3.847   3.178  18.609  0.00  0.00    +0.000 A 
ATOM      3  N   UNL     1       4.487   4.241  18.037  0.00  0.00    +0.000 N 
ATOM      4  C   UNL     1       3.764   5.295  18.495  0.00  0.00    +0.000 A 
ATOM      5  N   UNL     1       3.657   6.427  17.810  0.00  0.00    +0.000 NA
ATOM      6  C   UNL     1       2.857   7.290  18.396  0.00  0.00    +0.000 A 
ATOM      7  C   UNL     1       2.595   8.392  17.603  0.00  0.00    +0.000 A 
ATOM      8  C   UNL     1       1.730   9.380  18.028  0.00  0.00    +0.000 A 
ATOM      9  C   UNL     1       1.156   9.232  19.291  0.00  0.00    +0.000 A 
ATOM     10  C   UNL     1       1.450   8.116  20.091  0.00  0.00    +0.000 A 
ATOM     11  C   UNL     1       2.306   7.066  19.690  0.00  0.00    +0.000 A 
ATOM     12  N   UNL     1       2.564   5.915  20.443  0.00  0.00    +0.000 NA
ATOM     13  C   UNL     1       3.287   4.948  19.771  0.00  0.00    +0.000 A 
ENDROOT
BRANCH   1  15
ATOM     14  N   UNL     1       4.995   1.676  20.830  0.00  0.00    +0.000 N 
ATOM     15  C   UNL     1       3.813   2.441  20.966  0.00  0.00    +0.000 C 
ATOM     16  O   UNL     1       3.001   2.257  21.861  0.00  0.00    +0.000 OA
ATOM     17  H   UNL     1       5.640   1.984  20.112  0.00  0.00    +0.000 HD
BRANCH  14  18
ATOM     18  C   UNL     1       5.577   0.649  21.692  0.00  0.00    +0.000 C 
BRANCH  18  20
ATOM     19  C   UNL     1       6.939  -1.540  21.878  0.00  0.00    +0.000 C 
ATOM     20  C   UNL     1       6.110  -0.612  21.002  0.00  0.00    +0.000 C 
ENDBRANCH  18  20
ENDBRANCH  14  18
ENDBRANCH   1  15
BRANCH   2  21
ATOM     21  N   UNL     1       2.903   2.452  17.925  0.00  0.00    +0.000 N 
ATOM     22  H   UNL     1       3.267   1.983  17.089  0.00  0.00    +0.000 HD
ATOM     23  H   UNL     1       2.565   1.658  18.491  0.00  0.00    +0.000 HD
ENDBRANCH   2  21
BRANCH   3  24
ATOM     24  C   UNL     1       5.934   4.427  17.915  0.00  0.00    +0.000 C 
BRANCH  24  25
ATOM     25  C   UNL     1       6.366   4.469  16.479  0.00  0.00    +0.000 A 
ATOM     26  C   UNL     1       7.345   5.405  16.081  0.00  0.00    +0.000 A 
ATOM     27  C   UNL     1       7.702   5.537  14.741  0.00  0.00    +0.000 A 
ATOM     28  C   UNL     1       7.075   4.720  13.826  0.00  0.00    +0.000 A 
ATOM     29  C   UNL     1       6.144   3.781  14.207  0.00  0.00    +0.000 A 
ATOM     30  C   UNL     1       5.776   3.622  15.524  0.00  0.00    +0.000 A 
ATOM     31  O   UNL     1       5.653   3.081  13.149  0.00  0.00    +0.000 OA
ATOM     32  C   UNL     1       6.409   3.664  12.066  0.00  0.00    +0.000 C 
ATOM     33  O   UNL     1       7.280   4.734  12.484  0.00  0.00    +0.000 OA
ENDBRANCH  24  25
ENDBRANCH   3  24
TORSDOF 6
ENDMDL
MODEL 6
REMARK VINA RESULT:      -7.9      0.718      1.366
REMARK  Name = 
REMARK  7 active torsions:
REMARK  status: ('A' for Active; 'I' for Inactive)
REMARK    1  A    between atoms: C_1  and  C_2
REMARK    2  A    between atoms: C_2  and  C_3
REMARK    3  A    between atoms: C_3  and  N_4
REMARK    4  A    between atoms: C_5  and  C_7
REMARK    5  A    between atoms: C_8  and  N_9
REMARK    6  A    between atoms: N_10  and  C_11
REMARK    7  A    between atoms: C_11  and  C_12
REMARK                            x       y       z     vdW  Elec       q    Type
REMARK                         _______ _______ _______ _____ _____    ______ ____
ROOT
ATOM      1  C   UNL     1       7.155   6.616  17.210  0.00  0.00    +0.000 A 
ATOM      2  C   UNL     1       5.817   6.445  17.561  0.00  0.00    +0.000 A 
ATOM      3  N   UNL     1       5.577   5.119  17.333  0.00  0.00    +0.000 N 
ATOM      4  C   UNL     1       6.075   4.946  16.082  0.00  0.00    +0.000 A 
ATOM      5  N   UNL     1       5.600   4.024  15.255  0.00  0.00    +0.000 NA
ATOM      6  C   UNL     1       6.173   4.071  14.072  0.00  0.00    +0.000 A 
ATOM      7  C   UNL     1       5.557   3.242  13.153  0.00  0.00    +0.000 A 
ATOM      8  C   UNL     1       5.985   3.199  11.842  0.00  0.00    +0.000 A 
ATOM      9  C   UNL     1       7.071   4.003  11.493  0.00  0.00    +0.000 A 
ATOM     10  C   UNL     1       7.696   4.824  12.446  0.00  0.00    +0.000 A 
ATOM     11  C   UNL     1       7.278   4.923  13.791  0.00  0.00    +0.000 A 
ATOM     12  N   UNL     1       7.845   5.780  14.742  0.00  0.00    +0.000 NA
ATOM     13  C   UNL     1       7.156   5.835  15.939  0.00  0.00    +0.000 A 
ENDROOT
BRANCH   1  15
ATOM     14  N   UNL     1       7.877   8.909  17.436  0.00  0.00    +0.000 N 
ATOM     15  C   UNL     1       7.953   7.609  17.989  0.00  0.00    +0.000 C 
ATOM     16  O   UNL     1       8.552   7.361  19.025  0.00  0.00    +0.000 OA
ATOM     17  H   UNL     1       7.271   9.012  16.631  0.00  0.00    +0.000 HD
BRANCH  14  18
ATOM     18  C   UNL     1       8.335  10.199  17.952  0.00  0.00    +0.000 C 
BRANCH  18  20
ATOM     19  C   UNL     1      10.436  11.198  19.078  0.00  0.00    +0.000 C 
ATOM     20  C   UNL     1       9.321  10.162  19.125  0.00  0.00    +0.000 C 
ENDBRANCH  18  20
ENDBRANCH  14  18
ENDBRANCH   1  15
BRANCH   2  21
ATOM     21  N   UNL     1       4.849   7.398  17.361  0.00  0.00    +0.000 N 
ATOM     22  H   UNL     1       4.893   7.846  16.440  0.00  0.00    +0.000 HD
ATOM     23  H   UNL     1       3.909   6.976  17.354  0.00  0.00    +0.000 HD
ENDBRANCH   2  21
BRANCH   3  24
ATOM     24  C   UNL     1       5.763   4.022  18.282  0.00  0.00    +0.000 C 
BRANCH  24  25
ATOM     25  C   UNL     1       4.458   3.568  18.865  0.00  0.00    +0.000 A 
ATOM     26  C   UNL     1       4.438   3.013  20.163  0.00  0.00    +0.000 A 
ATOM     27  C   UNL     1       3.260   2.495  20.699  0.00  0.00    +0.000 A 
ATOM     28  C   UNL     1       2.123   2.552  19.924  0.00  0.00    +0.000 A 
ATOM     29  C   UNL     1       2.123   3.123  18.671  0.00  0.00    +0.000 A 
ATOM     30  C   UNL     1       3.269   3.649  18.118  0.00  0.00    +0.000 A 
ATOM     31  O   UNL     1       0.898   3.078  18.083  0.00  0.00    +0.000 OA
ATOM     32  C   UNL     1       0.121   2.447  19.124  0.00  0.00    +0.000 C 
ATOM     33  O   UNL     1       0.903   2.072  20.276  0.00  0.00    +0.000 OA
ENDBRANCH  24  25
ENDBRANCH   3  24
TORSDOF 6
ENDMDL
MODEL 7
REMARK VINA RESULT:      -7.8      2.733      6.345
REMARK  Name = 
REMARK  7 active torsions:
REMARK  status: ('A' for Active; 'I' for Inactive)
REMARK    1  A    between atoms: C_1  and  C_2
REMARK    2  A    between atoms: C_2  and  C_3
REMARK    3  A    between atoms: C_3  and  N_4
REMARK    4  A    between atoms: C_5  and  C_7
REMARK    5  A    between atoms: C_8  and  N_9
REMARK    6  A    between atoms: N_10  and  C_11
REMARK    7  A    between atoms: C_11  and  C_12
REMARK                            x       y       z     vdW  Elec       q    Type
REMARK                         _______ _______ _______ _____ _____    ______ ____
ROOT
ATOM      1  C   UNL     1       6.699   6.144  17.758  0.00  0.00    +0.000 A 
ATOM      2  C   UNL     1       7.100   5.111  16.912  0.00  0.00    +0.000 A 
ATOM      3  N   UNL     1       6.003   4.872  16.132  0.00  0.00    +0.000 N 
ATOM      4  C   UNL     1       5.010   4.775  17.052  0.00  0.00    +0.000 A 
ATOM      5  N   UNL     1       3.927   4.037  16.844  0.00  0.00    +0.000 NA
ATOM      6  C   UNL     1       3.124   4.025  17.887  0.00  0.00    +0.000 A 
ATOM      7  C   UNL     1       2.092   3.116  17.749  0.00  0.00    +0.000 A 
ATOM      8  C   UNL     1       1.179   2.922  18.766  0.00  0.00    +0.000 A 
ATOM      9  C   UNL     1       1.329   3.693  19.919  0.00  0.00    +0.000 A 
ATOM     10  C   UNL     1       2.372   4.626  20.032  0.00  0.00    +0.000 A 
ATOM     11  C   UNL     1       3.346   4.841  19.032  0.00  0.00    +0.000 A 
ATOM     12  N   UNL     1       4.429   5.719  19.148  0.00  0.00    +0.000 NA
ATOM     13  C   UNL     1       5.347   5.628  18.118  0.00  0.00    +0.000 A 
ENDROOT
BRANCH   1  15
ATOM     14  N   UNL     1       7.596   8.366  17.462  0.00  0.00    +0.000 N 
ATOM     15  C   UNL     1       7.731   7.145  18.163  0.00  0.00    +0.000 C 
ATOM     16  O   UNL     1       8.559   6.972  19.045  0.00  0.00    +0.000 OA
ATOM     17  H   UNL     1       6.812   8.425  16.825  0.00  0.00    +0.000 HD
BRANCH  14  18
ATOM     18  C   UNL     1       8.251   9.660  17.655  0.00  0.00    +0.000 C 
BRANCH  18  20
ATOM     19  C   UNL     1       9.958  11.041  19.018  0.00  0.00    +0.000 C 
ATOM     20  C   UNL     1       8.986   9.870  18.983  0.00  0.00    +0.000 C 
ENDBRANCH  18  20
ENDBRANCH  14  18
ENDBRANCH   1  15
BRANCH   2  21
ATOM     21  N   UNL     1       7.949   4.101  17.291  0.00  0.00    +0.000 N 
ATOM     22  H   UNL     1       7.978   3.315  16.634  0.00  0.00    +0.000 HD
ATOM     23  H   UNL     1       8.929   4.421  17.292  0.00  0.00    +0.000 HD
ENDBRANCH   2  21
BRANCH   3  24
ATOM     24  C   UNL     1       5.676   5.522  14.863  0.00  0.00    +0.000 C 
BRANCH  24  25
ATOM     25  C   UNL     1       5.667   4.542  13.727  0.00  0.00    +0.000 A 
ATOM     26  C   UNL     1       4.432   4.095  13.212  0.00  0.00    +0.000 A 
ATOM     27  C   UNL     1       4.384   3.115  12.221  0.00  0.00    +0.000 A 
ATOM     28  C   UNL     1       5.580   2.609  11.762  0.00  0.00    +0.000 A 
ATOM     29  C   UNL     1       6.792   3.063  12.232  0.00  0.00    +0.000 A 
ATOM     30  C   UNL     1       6.870   4.034  13.204  0.00  0.00    +0.000 A 
ATOM     31  O   UNL     1       7.843   2.434  11.642  0.00  0.00    +0.000 OA
ATOM     32  C   UNL     1       7.154   1.560  10.722  0.00  0.00    +0.000 C 
ATOM     33  O   UNL     1       5.718   1.636  10.826  0.00  0.00    +0.000 OA
ENDBRANCH  24  25
ENDBRANCH   3  24
TORSDOF 6
ENDMDL
MODEL 8
REMARK VINA RESULT:      -7.8      3.014      7.624
REMARK  Name = 
REMARK  7 active torsions:
REMARK  status: ('A' for Active; 'I' for Inactive)
REMARK    1  A    between atoms: C_1  and  C_2
REMARK    2  A    between atoms: C_2  and  C_3
REMARK    3  A    between atoms: C_3  and  N_4
REMARK    4  A    between atoms: C_5  and  C_7
REMARK    5  A    between atoms: C_8  and  N_9
REMARK    6  A    between atoms: N_10  and  C_11
REMARK    7  A    between atoms: C_11  and  C_12
REMARK                            x       y       z     vdW  Elec       q    Type
REMARK                         _______ _______ _______ _____ _____    ______ ____
ROOT
ATOM      1  C   UNL     1       6.212   4.960  15.611  0.00  0.00    +0.000 A 
ATOM      2  C   UNL     1       6.029   6.295  15.970  0.00  0.00    +0.000 A 
ATOM      3  N   UNL     1       6.161   6.297  17.331  0.00  0.00    +0.000 N 
ATOM      4  C   UNL     1       5.345   5.279  17.702  0.00  0.00    +0.000 A 
ATOM      5  N   UNL     1       4.740   5.255  18.883  0.00  0.00    +0.000 NA
ATOM      6  C   UNL     1       3.942   4.218  19.015  0.00  0.00    +0.000 A 
ATOM      7  C   UNL     1       3.172   4.285  20.161  0.00  0.00    +0.000 A 
ATOM      8  C   UNL     1       2.234   3.313  20.441  0.00  0.00    +0.000 A 
ATOM      9  C   UNL     1       2.114   2.256  19.537  0.00  0.00    +0.000 A 
ATOM     10  C   UNL     1       2.920   2.195  18.388  0.00  0.00    +0.000 A 
ATOM     11  C   UNL     1       3.873   3.179  18.045  0.00  0.00    +0.000 A 
ATOM     12  N   UNL     1       4.642   3.171  16.875  0.00  0.00    +0.000 NA
ATOM     13  C   UNL     1       5.373   4.325  16.669  0.00  0.00    +0.000 A 
ENDROOT
BRANCH   1  15
ATOM     14  N   UNL     1       6.256   3.631  13.596  0.00  0.00    +0.000 N 
ATOM     15  C   UNL     1       6.883   4.681  14.307  0.00  0.00    +0.000 C 
ATOM     16  O   UNL     1       7.822   5.321  13.857  0.00  0.00    +0.000 OA
ATOM     17  H   UNL     1       5.426   3.242  14.025  0.00  0.00    +0.000 HD
BRANCH  14  18
ATOM     18  C   UNL     1       6.450   3.149  12.229  0.00  0.00    +0.000 C 
BRANCH  18  20
ATOM     19  C   UNL     1       4.015   3.348  11.385  0.00  0.00    +0.000 C 
ATOM     20  C   UNL     1       5.248   2.474  11.558  0.00  0.00    +0.000 C 
ENDBRANCH  18  20
ENDBRANCH  14  18
ENDBRANCH   1  15
BRANCH   2  21
ATOM     21  N   UNL     1       5.162   7.144  15.329  0.00  0.00    +0.000 N 
ATOM     22  H   UNL     1       4.578   7.698  15.964  0.00  0.00    +0.000 HD
ATOM     23  H   UNL     1       5.673   7.874  14.810  0.00  0.00    +0.000 HD
ENDBRANCH   2  21
BRANCH   3  24
ATOM     24  C   UNL     1       7.402   6.468  18.087  0.00  0.00    +0.000 C 
BRANCH  24  25
ATOM     25  C   UNL     1       7.798   7.911  18.180  0.00  0.00    +0.000 A 
ATOM     26  C   UNL     1       7.219   8.844  17.293  0.00  0.00    +0.000 A 
ATOM     27  C   UNL     1       7.632  10.175  17.287  0.00  0.00    +0.000 A 
ATOM     28  C   UNL     1       8.613  10.546  18.181  0.00  0.00    +0.000 A 
ATOM     29  C   UNL     1       9.159   9.654  19.074  0.00  0.00    +0.000 A 
ATOM     30  C   UNL     1       8.767   8.334  19.108  0.00  0.00    +0.000 A 
ATOM     31  O   UNL     1      10.105  10.228  19.865  0.00  0.00    +0.000 OA
ATOM     32  C   UNL     1      10.063  11.591  19.390  0.00  0.00    +0.000 C 
ATOM     33  O   UNL     1       9.151  11.788  18.291  0.00  0.00    +0.000 OA
ENDBRANCH  24  25
ENDBRANCH   3  24
TORSDOF 6
ENDMDL
MODEL 9
REMARK VINA RESULT:      -7.7      7.795     10.435
REMARK  Name = 
REMARK  7 active torsions:
REMARK  status: ('A' for Active; 'I' for Inactive)
REMARK    1  A    between atoms: C_1  and  C_2
REMARK    2  A    between atoms: C_2  and  C_3
REMARK    3  A    between atoms: C_3  and  N_4
REMARK    4  A    between atoms: C_5  and  C_7
REMARK    5  A    between atoms: C_8  and  N_9
REMARK    6  A    between atoms: N_10  and  C_11
REMARK    7  A    between atoms: C_11  and  C_12
REMARK                            x       y       z     vdW  Elec       q    Type
REMARK                         _______ _______ _______ _____ _____    ______ ____
ROOT
ATOM      1  C   UNL     1      -1.621  12.328  19.242  0.00  0.00    +0.000 A 
ATOM      2  C   UNL     1      -1.107  11.289  18.467  0.00  0.00    +0.000 A 
ATOM      3  N   UNL     1       0.190  11.172  18.880  0.00  0.00    +0.000 N 
ATOM      4  C   UNL     1       0.625  12.457  18.836  0.00  0.00    +0.000 A 
ATOM      5  N   UNL     1       1.898  12.763  18.620  0.00  0.00    +0.000 NA
ATOM      6  C   UNL     1       2.094  14.062  18.546  0.00  0.00    +0.000 A 
ATOM      7  C   UNL     1       3.375  14.382  18.139  0.00  0.00    +0.000 A 
ATOM      8  C   UNL     1       3.750  15.697  17.951  0.00  0.00    +0.000 A 
ATOM      9  C   UNL     1       2.796  16.681  18.209  0.00  0.00    +0.000 A 
ATOM     10  C   UNL     1       1.504  16.337  18.641  0.00  0.00    +0.000 A 
ATOM     11  C   UNL     1       1.065  15.007  18.822  0.00  0.00    +0.000 A 
ATOM     12  N   UNL     1      -0.234  14.639  19.191  0.00  0.00    +0.000 NA
ATOM     13  C   UNL     1      -0.477  13.279  19.130  0.00  0.00    +0.000 A 
ENDROOT
BRANCH   1  15
ATOM     14  N   UNL     1      -3.281  12.771  20.938  0.00  0.00    +0.000 N 
ATOM     15  C   UNL     1      -3.057  12.244  19.644  0.00  0.00    +0.000 C 
ATOM     16  O   UNL     1      -3.957  11.837  18.926  0.00  0.00    +0.000 OA
ATOM     17  H   UNL     1      -2.473  13.170  21.399  0.00  0.00    +0.000 HD
BRANCH  14  18
ATOM     18  C   UNL     1      -4.524  13.058  21.653  0.00  0.00    +0.000 C 
BRANCH  18  20
ATOM     19  C   UNL     1      -3.765  12.384  24.030  0.00  0.00    +0.000 C 
ATOM     20  C   UNL     1      -4.397  13.438  23.133  0.00  0.00    +0.000 C 
ENDBRANCH  18  20
ENDBRANCH  14  18
ENDBRANCH   1  15
BRANCH   2  21
ATOM     21  N   UNL     1      -1.472  11.060  17.162  0.00  0.00    +0.000 N 
ATOM     22  H   UNL     1      -0.685  11.063  16.505  0.00  0.00    +0.000 HD
ATOM     23  H   UNL     1      -1.850  10.108  17.046  0.00  0.00    +0.000 HD
ENDBRANCH   2  21
BRANCH   3  24
ATOM     24  C   UNL     1       0.686  10.337  19.975  0.00  0.00    +0.000 C 
BRANCH  24  25
ATOM     25  C   UNL     1       1.447   9.150  19.463  0.00  0.00    +0.000 A 
ATOM     26  C   UNL     1       1.925   9.158  18.136  0.00  0.00    +0.000 A 
ATOM     27  C   UNL     1       2.553   8.036  17.597  0.00  0.00    +0.000 A 
ATOM     28  C   UNL     1       2.696   6.930  18.406  0.00  0.00    +0.000 A 
ATOM     29  C   UNL     1       2.264   6.924  19.713  0.00  0.00    +0.000 A 
ATOM     30  C   UNL     1       1.647   8.019  20.275  0.00  0.00    +0.000 A 
ATOM     31  O   UNL     1       2.506   5.737  20.331  0.00  0.00    +0.000 OA
ATOM     32  C   UNL     1       3.171   5.013  19.274  0.00  0.00    +0.000 C 
ATOM     33  O   UNL     1       3.254   5.749  18.037  0.00  0.00    +0.000 OA
ENDBRANCH  24  25
ENDBRANCH   3  24
TORSDOF 6
ENDMDL
