MODEL 1
REMARK VINA RESULT:      -8.0      0.000      0.000
REMARK  Name = 
REMARK  4 active torsions:
REMARK  status: ('A' for Active; 'I' for Inactive)
REMARK    1  A    between atoms: C_2  and  C_3
REMARK    2  A    between atoms: C_5  and  C_6
REMARK    3  A    between atoms: C_17  and  O_18
REMARK    4  A    between atoms: O_18  and  C_19
REMARK                            x       y       z     vdW  Elec       q    Type
REMARK                         _______ _______ _______ _____ _____    ______ ____
ROOT
ATOM      1  O   UNL     1       1.956   4.996  21.234  0.00  0.00    +0.000 OA
ATOM      2  C   UNL     1       2.394   5.789  20.401  0.00  0.00    +0.000 C 
ATOM      3  N   UNL     1       3.303   5.381  19.415  0.00  0.00    +0.000 N 
ATOM      4  C   UNL     1       3.711   6.170  18.250  0.00  0.00    +0.000 C 
ATOM      5  C   UNL     1       3.487   5.400  16.960  0.00  0.00    +0.000 C 
ATOM      6  C   UNL     1       4.224   4.064  16.981  0.00  0.00    +0.000 C 
ATOM      7  C   UNL     1       3.777   3.264  18.215  0.00  0.00    +0.000 C 
ATOM      8  C   UNL     1       3.926   4.063  19.511  0.00  0.00    +0.000 C 
ENDROOT
BRANCH   2   9
ATOM      9  C   UNL     1       1.936   7.154  20.395  0.00  0.00    +0.000 A 
ATOM     10  C   UNL     1       1.635   8.055  19.393  0.00  0.00    +0.000 A 
ATOM     11  C   UNL     1       1.047   9.180  20.027  0.00  0.00    +0.000 A 
ATOM     12  N   UNL     1       1.164   9.065  21.360  0.00  0.00    +0.000 NA
ATOM     13  N   UNL     1       1.762   7.875  21.547  0.00  0.00    +0.000 N 
ATOM     14  H   UNL     1       1.978   7.574  22.491  0.00  0.00    +0.000 HD
BRANCH  11  15
ATOM     15  C   UNL     1       0.379  10.317  19.384  0.00  0.00    +0.000 A 
ATOM     16  C   UNL     1      -0.844  10.152  18.710  0.00  0.00    +0.000 A 
ATOM     17  C   UNL     1      -1.476  11.235  18.094  0.00  0.00    +0.000 A 
ATOM     18  C   UNL     1      -0.898  12.499  18.150  0.00  0.00    +0.000 A 
ATOM     19  C   UNL     1       0.303  12.685  18.831  0.00  0.00    +0.000 A 
ATOM     20  C   UNL     1       0.936  11.600  19.448  0.00  0.00    +0.000 A 
ENDBRANCH  11  15
ENDBRANCH   2   9
BRANCH   6  21
ATOM     21  O   UNL     1       5.646   4.247  17.065  0.00  0.00    +0.000 OA
BRANCH  21  22
ATOM     22  C   UNL     1       6.250   4.460  15.842  0.00  0.00    +0.000 A 
ATOM     23  C   UNL     1       5.801   3.708  14.774  0.00  0.00    +0.000 A 
ATOM     24  C   UNL     1       6.391   3.919  13.535  0.00  0.00    +0.000 A 
ATOM     25  C   UNL     1       7.413   4.845  13.446  0.00  0.00    +0.000 A 
ATOM     26  N   UNL     1       7.852   5.543  14.512  0.00  0.00    +0.000 NA
ATOM     27  N   UNL     1       7.260   5.349  15.723  0.00  0.00    +0.000 NA
ENDBRANCH  21  22
ENDBRANCH   6  21
TORSDOF 4
ENDMDL
MODEL 2
REMARK VINA RESULT:      -7.9      1.587      1.933
REMARK  Name = 
REMARK  4 active torsions:
REMARK  status: ('A' for Active; 'I' for Inactive)
REMARK    1  A    between atoms: C_2  and  C_3
REMARK    2  A    between atoms: C_5  and  C_6
REMARK    3  A    between atoms: C_17  and  O_18
REMARK    4  A    between atoms: O_18  and  C_19
REMARK                            x       y       z     vdW  Elec       q    Type
REMARK                         _______ _______ _______ _____ _____    ______ ____
ROOT
ATOM      1  O   UNL     1       2.191   4.509  21.440  0.00  0.00    +0.000 OA
ATOM      2  C   UNL     1       2.511   5.293  20.548  0.00  0.00    +0.000 C 
ATOM      3  N   UNL     1       3.435   4.932  19.557  0.00  0.00    +0.000 N 
ATOM      4  C   UNL     1       3.718   5.688  18.336  0.00  0.00    +0.000 C 
ATOM      5  C   UNL     1       3.551   4.820  17.101  0.00  0.00    +0.000 C 
ATOM      6  C   UNL     1       4.438   3.580  17.175  0.00  0.00    +0.000 C 
ATOM      7  C   UNL     1       4.121   2.813  18.468  0.00  0.00    +0.000 C 
ATOM      8  C   UNL     1       4.209   3.702  19.709  0.00  0.00    +0.000 C 
ENDROOT
BRANCH   2   9
ATOM      9  C   UNL     1       1.897   6.594  20.477  0.00  0.00    +0.000 A 
ATOM     10  C   UNL     1       0.886   7.212  21.185  0.00  0.00    +0.000 A 
ATOM     11  C   UNL     1       0.874   8.568  20.768  0.00  0.00    +0.000 A 
ATOM     12  N   UNL     1       1.694   8.729  19.717  0.00  0.00    +0.000 NA
ATOM     13  N   UNL     1       2.239   7.516  19.522  0.00  0.00    +0.000 N 
ATOM     14  H   UNL     1       2.887   7.383  18.754  0.00  0.00    +0.000 HD
BRANCH  11  15
ATOM     15  C   UNL     1       0.120   9.676  21.365  0.00  0.00    +0.000 A 
ATOM     16  C   UNL     1      -0.143  10.849  20.636  0.00  0.00    +0.000 A 
ATOM     17  C   UNL     1      -0.857  11.905  21.208  0.00  0.00    +0.000 A 
ATOM     18  C   UNL     1      -1.324  11.800  22.514  0.00  0.00    +0.000 A 
ATOM     19  C   UNL     1      -1.090  10.636  23.245  0.00  0.00    +0.000 A 
ATOM     20  C   UNL     1      -0.376   9.579  22.671  0.00  0.00    +0.000 A 
ENDBRANCH  11  15
ENDBRANCH   2   9
BRANCH   6  21
ATOM     21  O   UNL     1       5.832   3.930  17.201  0.00  0.00    +0.000 OA
BRANCH  21  22
ATOM     22  C   UNL     1       6.340   4.269  15.963  0.00  0.00    +0.000 A 
ATOM     23  C   UNL     1       5.860   3.577  14.870  0.00  0.00    +0.000 A 
ATOM     24  C   UNL     1       6.353   3.915  13.616  0.00  0.00    +0.000 A 
ATOM     25  C   UNL     1       7.317   4.902  13.537  0.00  0.00    +0.000 A 
ATOM     26  N   UNL     1       7.791   5.541  14.626  0.00  0.00    +0.000 NA
ATOM     27  N   UNL     1       7.292   5.221  15.853  0.00  0.00    +0.000 NA
ENDBRANCH  21  22
ENDBRANCH   6  21
TORSDOF 4
ENDMDL
MODEL 3
REMARK VINA RESULT:      -7.9      1.514      1.813
REMARK  Name = 
REMARK  4 active torsions:
REMARK  status: ('A' for Active; 'I' for Inactive)
REMARK    1  A    between atoms: C_2  and  C_3
REMARK    2  A    between atoms: C_5  and  C_6
REMARK    3  A    between atoms: C_17  and  O_18
REMARK    4  A    between atoms: O_18  and  C_19
REMARK                            x       y       z     vdW  Elec       q    Type
REMARK                         _______ _______ _______ _____ _____    ______ ____
ROOT
ATOM      1  O   UNL     1       2.470   4.745  21.163  0.00  0.00    +0.000 OA
ATOM      2  C   UNL     1       2.733   5.549  20.270  0.00  0.00    +0.000 C 
ATOM      3  N   UNL     1       3.646   5.234  19.253  0.00  0.00    +0.000 N 
ATOM      4  C   UNL     1       3.865   6.011  18.031  0.00  0.00    +0.000 C 
ATOM      5  C   UNL     1       3.702   5.146  16.793  0.00  0.00    +0.000 C 
ATOM      6  C   UNL     1       4.641   3.945  16.834  0.00  0.00    +0.000 C 
ATOM      7  C   UNL     1       4.390   3.155  18.127  0.00  0.00    +0.000 C 
ATOM      8  C   UNL     1       4.474   4.037  19.374  0.00  0.00    +0.000 C 
ENDROOT
BRANCH   2   9
ATOM      9  C   UNL     1       2.064   6.823  20.227  0.00  0.00    +0.000 A 
ATOM     10  C   UNL     1       1.238   7.497  21.104  0.00  0.00    +0.000 A 
ATOM     11  C   UNL     1       1.060   8.799  20.568  0.00  0.00    +0.000 A 
ATOM     12  N   UNL     1       1.580   8.858  19.331  0.00  0.00    +0.000 NA
ATOM     13  N   UNL     1       2.111   7.640  19.128  0.00  0.00    +0.000 N 
ATOM     14  H   UNL     1       2.550   7.435  18.236  0.00  0.00    +0.000 HD
BRANCH  11  15
ATOM     15  C   UNL     1       0.433   9.953  21.222  0.00  0.00    +0.000 A 
ATOM     16  C   UNL     1      -0.423   9.785  22.324  0.00  0.00    +0.000 A 
ATOM     17  C   UNL     1      -1.022  10.885  22.942  0.00  0.00    +0.000 A 
ATOM     18  C   UNL     1      -0.768  12.169  22.471  0.00  0.00    +0.000 A 
ATOM     19  C   UNL     1       0.094  12.356  21.392  0.00  0.00    +0.000 A 
ATOM     20  C   UNL     1       0.694  11.254  20.774  0.00  0.00    +0.000 A 
ENDBRANCH  11  15
ENDBRANCH   2   9
BRANCH   6  21
ATOM     21  O   UNL     1       6.019   4.353  16.827  0.00  0.00    +0.000 OA
BRANCH  21  22
ATOM     22  C   UNL     1       6.534   4.542  15.560  0.00  0.00    +0.000 A 
ATOM     23  C   UNL     1       5.962   3.822  14.530  0.00  0.00    +0.000 A 
ATOM     24  C   UNL     1       6.461   4.010  13.247  0.00  0.00    +0.000 A 
ATOM     25  C   UNL     1       7.520   4.883  13.079  0.00  0.00    +0.000 A 
ATOM     26  N   UNL     1       8.080   5.549  14.109  0.00  0.00    +0.000 NA
ATOM     27  N   UNL     1       7.577   5.377  15.363  0.00  0.00    +0.000 NA
ENDBRANCH  21  22
ENDBRANCH   6  21
TORSDOF 4
ENDMDL
MODEL 4
REMARK VINA RESULT:      -7.7      4.084     10.003
REMARK  Name = 
REMARK  4 active torsions:
REMARK  status: ('A' for Active; 'I' for Inactive)
REMARK    1  A    between atoms: C_2  and  C_3
REMARK    2  A    between atoms: C_5  and  C_6
REMARK    3  A    between atoms: C_17  and  O_18
REMARK    4  A    between atoms: O_18  and  C_19
REMARK                            x       y       z     vdW  Elec       q    Type
REMARK                         _______ _______ _______ _____ _____    ______ ____
ROOT
ATOM      1  O   UNL     1       1.060  10.846  20.879  0.00  0.00    +0.000 OA
ATOM      2  C   UNL     1       0.588  10.249  19.912  0.00  0.00    +0.000 C 
ATOM      3  N   UNL     1      -0.726  10.484  19.481  0.00  0.00    +0.000 N 
ATOM      4  C   UNL     1      -1.311  10.008  18.226  0.00  0.00    +0.000 C 
ATOM      5  C   UNL     1      -1.894  11.157  17.421  0.00  0.00    +0.000 C 
ATOM      6  C   UNL     1      -2.932  11.926  18.233  0.00  0.00    +0.000 C 
ATOM      7  C   UNL     1      -2.289  12.407  19.542  0.00  0.00    +0.000 C 
ATOM      8  C   UNL     1      -1.630  11.267  20.320  0.00  0.00    +0.000 C 
ENDROOT
BRANCH   2   9
ATOM      9  C   UNL     1       1.403   9.324  19.168  0.00  0.00    +0.000 A 
ATOM     10  C   UNL     1       1.837   8.034  19.401  0.00  0.00    +0.000 A 
ATOM     11  C   UNL     1       2.451   7.594  18.200  0.00  0.00    +0.000 A 
ATOM     12  N   UNL     1       2.570   8.623  17.345  0.00  0.00    +0.000 NA
ATOM     13  N   UNL     1       1.996   9.660  17.980  0.00  0.00    +0.000 N 
ATOM     14  H   UNL     1       1.985  10.569  17.530  0.00  0.00    +0.000 HD
BRANCH  11  15
ATOM     15  C   UNL     1       2.893   6.234  17.872  0.00  0.00    +0.000 A 
ATOM     16  C   UNL     1       2.023   5.138  18.009  0.00  0.00    +0.000 A 
ATOM     17  C   UNL     1       2.447   3.842  17.700  0.00  0.00    +0.000 A 
ATOM     18  C   UNL     1       3.744   3.627  17.243  0.00  0.00    +0.000 A 
ATOM     19  C   UNL     1       4.612   4.705  17.083  0.00  0.00    +0.000 A 
ATOM     20  C   UNL     1       4.187   6.001  17.391  0.00  0.00    +0.000 A 
ENDBRANCH  11  15
ENDBRANCH   2   9
BRANCH   6  21
ATOM     21  O   UNL     1      -4.056  11.098  18.571  0.00  0.00    +0.000 OA
BRANCH  21  22
ATOM     22  C   UNL     1      -5.270  11.749  18.481  0.00  0.00    +0.000 A 
ATOM     23  C   UNL     1      -5.630  12.250  17.246  0.00  0.00    +0.000 A 
ATOM     24  C   UNL     1      -6.854  12.897  17.136  0.00  0.00    +0.000 A 
ATOM     25  C   UNL     1      -7.628  13.028  18.273  0.00  0.00    +0.000 A 
ATOM     26  N   UNL     1      -7.237  12.556  19.474  0.00  0.00    +0.000 NA
ATOM     27  N   UNL     1      -6.045  11.906  19.576  0.00  0.00    +0.000 NA
ENDBRANCH  21  22
ENDBRANCH   6  21
TORSDOF 4
ENDMDL
MODEL 5
REMARK VINA RESULT:      -7.7      3.342      9.614
REMARK  Name = 
REMARK  4 active torsions:
REMARK  status: ('A' for Active; 'I' for Inactive)
REMARK    1  A    between atoms: C_2  and  C_3
REMARK    2  A    between atoms: C_5  and  C_6
REMARK    3  A    between atoms: C_17  and  O_18
REMARK    4  A    between atoms: O_18  and  C_19
REMARK                            x       y       z     vdW  Elec       q    Type
REMARK                         _______ _______ _______ _____ _____    ______ ____
ROOT
ATOM      1  O   UNL     1       1.791   9.690  17.174  0.00  0.00    +0.000 OA
ATOM      2  C   UNL     1       1.908   9.090  18.242  0.00  0.00    +0.000 C 
ATOM      3  N   UNL     1       1.327   9.579  19.421  0.00  0.00    +0.000 N 
ATOM      4  C   UNL     1       1.209   8.846  20.683  0.00  0.00    +0.000 C 
ATOM      5  C   UNL     1      -0.232   8.806  21.163  0.00  0.00    +0.000 C 
ATOM      6  C   UNL     1      -0.802  10.214  21.310  0.00  0.00    +0.000 C 
ATOM      7  C   UNL     1      -0.659  10.956  19.973  0.00  0.00    +0.000 C 
ATOM      8  C   UNL     1       0.776  10.932  19.444  0.00  0.00    +0.000 C 
ENDROOT
BRANCH   2   9
ATOM      9  C   UNL     1       2.610   7.834  18.289  0.00  0.00    +0.000 A 
ATOM     10  C   UNL     1       2.302   6.586  18.793  0.00  0.00    +0.000 A 
ATOM     11  C   UNL     1       3.330   5.711  18.356  0.00  0.00    +0.000 A 
ATOM     12  N   UNL     1       4.320   6.418  17.787  0.00  0.00    +0.000 NA
ATOM     13  N   UNL     1       3.892   7.692  17.824  0.00  0.00    +0.000 N 
ATOM     14  H   UNL     1       4.493   8.425  17.464  0.00  0.00    +0.000 HD
BRANCH  11  15
ATOM     15  C   UNL     1       3.357   4.247  18.460  0.00  0.00    +0.000 A 
ATOM     16  C   UNL     1       2.578   3.446  17.607  0.00  0.00    +0.000 A 
ATOM     17  C   UNL     1       2.603   2.053  17.711  0.00  0.00    +0.000 A 
ATOM     18  C   UNL     1       3.412   1.442  18.663  0.00  0.00    +0.000 A 
ATOM     19  C   UNL     1       4.207   2.221  19.503  0.00  0.00    +0.000 A 
ATOM     20  C   UNL     1       4.182   3.615  19.398  0.00  0.00    +0.000 A 
ENDBRANCH  11  15
ENDBRANCH   2   9
BRANCH   6  21
ATOM     21  O   UNL     1      -0.095  10.967  22.310  0.00  0.00    +0.000 OA
BRANCH  21  22
ATOM     22  C   UNL     1      -0.826  12.014  22.834  0.00  0.00    +0.000 A 
ATOM     23  C   UNL     1      -2.168  11.793  23.072  0.00  0.00    +0.000 A 
ATOM     24  C   UNL     1      -2.914  12.834  23.610  0.00  0.00    +0.000 A 
ATOM     25  C   UNL     1      -2.280  14.038  23.848  0.00  0.00    +0.000 A 
ATOM     26  N   UNL     1      -0.974  14.235  23.577  0.00  0.00    +0.000 NA
ATOM     27  N   UNL     1      -0.240  13.208  23.067  0.00  0.00    +0.000 NA
ENDBRANCH  21  22
ENDBRANCH   6  21
TORSDOF 4
ENDMDL
MODEL 6
REMARK VINA RESULT:      -7.7      4.070      9.892
REMARK  Name = 
REMARK  4 active torsions:
REMARK  status: ('A' for Active; 'I' for Inactive)
REMARK    1  A    between atoms: C_2  and  C_3
REMARK    2  A    between atoms: C_5  and  C_6
REMARK    3  A    between atoms: C_17  and  O_18
REMARK    4  A    between atoms: O_18  and  C_19
REMARK                            x       y       z     vdW  Elec       q    Type
REMARK                         _______ _______ _______ _____ _____    ______ ____
ROOT
ATOM      1  O   UNL     1       1.905  11.441  19.067  0.00  0.00    +0.000 OA
ATOM      2  C   UNL     1       1.143  10.487  18.913  0.00  0.00    +0.000 C 
ATOM      3  N   UNL     1      -0.244  10.670  18.815  0.00  0.00    +0.000 N 
ATOM      4  C   UNL     1      -1.213   9.650  18.411  0.00  0.00    +0.000 C 
ATOM      5  C   UNL     1      -2.066  10.132  17.249  0.00  0.00    +0.000 C 
ATOM      6  C   UNL     1      -2.779  11.436  17.595  0.00  0.00    +0.000 C 
ATOM      7  C   UNL     1      -1.736  12.482  18.019  0.00  0.00    +0.000 C 
ATOM      8  C   UNL     1      -0.822  11.972  19.135  0.00  0.00    +0.000 C 
ENDROOT
BRANCH   2   9
ATOM      9  C   UNL     1       1.674   9.155  18.779  0.00  0.00    +0.000 A 
ATOM     10  C   UNL     1       2.180   8.432  17.717  0.00  0.00    +0.000 A 
ATOM     11  C   UNL     1       2.725   7.242  18.264  0.00  0.00    +0.000 A 
ATOM     12  N   UNL     1       2.394   7.144  19.562  0.00  0.00    +0.000 NA
ATOM     13  N   UNL     1       1.706   8.269  19.823  0.00  0.00    +0.000 N 
ATOM     14  H   UNL     1       1.327   8.411  20.753  0.00  0.00    +0.000 HD
BRANCH  11  15
ATOM     15  C   UNL     1       3.551   6.242  17.578  0.00  0.00    +0.000 A 
ATOM     16  C   UNL     1       3.259   4.871  17.676  0.00  0.00    +0.000 A 
ATOM     17  C   UNL     1       4.050   3.920  17.024  0.00  0.00    +0.000 A 
ATOM     18  C   UNL     1       5.138   4.329  16.260  0.00  0.00    +0.000 A 
ATOM     19  C   UNL     1       5.429   5.686  16.136  0.00  0.00    +0.000 A 
ATOM     20  C   UNL     1       4.638   6.637  16.788  0.00  0.00    +0.000 A 
ENDBRANCH  11  15
ENDBRANCH   2   9
BRANCH   6  21
ATOM     21  O   UNL     1      -3.698  11.261  18.686  0.00  0.00    +0.000 OA
BRANCH  21  22
ATOM     22  C   UNL     1      -4.950  11.790  18.445  0.00  0.00    +0.000 A 
ATOM     23  C   UNL     1      -5.818  11.877  19.515  0.00  0.00    +0.000 A 
ATOM     24  C   UNL     1      -7.077  12.417  19.291  0.00  0.00    +0.000 A 
ATOM     25  C   UNL     1      -7.402  12.808  18.005  0.00  0.00    +0.000 A 
ATOM     26  N   UNL     1      -6.544  12.682  16.972  0.00  0.00    +0.000 NA
ATOM     27  N   UNL     1      -5.303  12.169  17.198  0.00  0.00    +0.000 NA
ENDBRANCH  21  22
ENDBRANCH   6  21
TORSDOF 4
ENDMDL
MODEL 7
REMARK VINA RESULT:      -7.6      4.230     10.035
REMARK  Name = 
REMARK  4 active torsions:
REMARK  status: ('A' for Active; 'I' for Inactive)
REMARK    1  A    between atoms: C_2  and  C_3
REMARK    2  A    between atoms: C_5  and  C_6
REMARK    3  A    between atoms: C_17  and  O_18
REMARK    4  A    between atoms: O_18  and  C_19
REMARK                            x       y       z     vdW  Elec       q    Type
REMARK                         _______ _______ _______ _____ _____    ______ ____
ROOT
ATOM      1  O   UNL     1       1.107  10.995  20.660  0.00  0.00    +0.000 OA
ATOM      2  C   UNL     1       0.633  10.333  19.737  0.00  0.00    +0.000 C 
ATOM      3  N   UNL     1      -0.689  10.522  19.309  0.00  0.00    +0.000 N 
ATOM      4  C   UNL     1      -1.281   9.962  18.093  0.00  0.00    +0.000 C 
ATOM      5  C   UNL     1      -1.891  11.051  17.227  0.00  0.00    +0.000 C 
ATOM      6  C   UNL     1      -2.931  11.853  18.004  0.00  0.00    +0.000 C 
ATOM      7  C   UNL     1      -2.280  12.422  19.274  0.00  0.00    +0.000 C 
ATOM      8  C   UNL     1      -1.595  11.341  20.111  0.00  0.00    +0.000 C 
ENDROOT
BRANCH   2   9
ATOM      9  C   UNL     1       1.453   9.376  19.041  0.00  0.00    +0.000 A 
ATOM     10  C   UNL     1       1.955   8.132  19.367  0.00  0.00    +0.000 A 
ATOM     11  C   UNL     1       2.532   7.608  18.182  0.00  0.00    +0.000 A 
ATOM     12  N   UNL     1       2.565   8.556  17.233  0.00  0.00    +0.000 NA
ATOM     13  N   UNL     1       1.976   9.624  17.798  0.00  0.00    +0.000 N 
ATOM     14  H   UNL     1       1.904  10.486  17.269  0.00  0.00    +0.000 HD
BRANCH  11  15
ATOM     15  C   UNL     1       3.018   6.241  17.957  0.00  0.00    +0.000 A 
ATOM     16  C   UNL     1       4.392   5.972  17.839  0.00  0.00    +0.000 A 
ATOM     17  C   UNL     1       4.852   4.670  17.620  0.00  0.00    +0.000 A 
ATOM     18  C   UNL     1       3.944   3.620  17.524  0.00  0.00    +0.000 A 
ATOM     19  C   UNL     1       2.579   3.867  17.660  0.00  0.00    +0.000 A 
ATOM     20  C   UNL     1       2.120   5.170  17.879  0.00  0.00    +0.000 A 
ENDBRANCH  11  15
ENDBRANCH   2   9
BRANCH   6  21
ATOM     21  O   UNL     1      -4.039  11.031  18.406  0.00  0.00    +0.000 OA
BRANCH  21  22
ATOM     22  C   UNL     1      -5.259  11.672  18.337  0.00  0.00    +0.000 A 
ATOM     23  C   UNL     1      -6.099  11.557  19.426  0.00  0.00    +0.000 A 
ATOM     24  C   UNL     1      -7.325  12.207  19.375  0.00  0.00    +0.000 A 
ATOM     25  C   UNL     1      -7.648  12.907  18.228  0.00  0.00    +0.000 A 
ATOM     26  N   UNL     1      -6.820  12.976  17.165  0.00  0.00    +0.000 NA
ATOM     27  N   UNL     1      -5.611  12.354  17.224  0.00  0.00    +0.000 NA
ENDBRANCH  21  22
ENDBRANCH   6  21
TORSDOF 4
ENDMDL
MODEL 8
REMARK VINA RESULT:      -7.6      3.869      9.963
REMARK  Name = 
REMARK  4 active torsions:
REMARK  status: ('A' for Active; 'I' for Inactive)
REMARK    1  A    between atoms: C_2  and  C_3
REMARK    2  A    between atoms: C_5  and  C_6
REMARK    3  A    between atoms: C_17  and  O_18
REMARK    4  A    between atoms: O_18  and  C_19
REMARK                            x       y       z     vdW  Elec       q    Type
REMARK                         _______ _______ _______ _____ _____    ______ ____
ROOT
ATOM      1  O   UNL     1       2.180  11.341  18.345  0.00  0.00    +0.000 OA
ATOM      2  C   UNL     1       1.337  10.475  18.577  0.00  0.00    +0.000 C 
ATOM      3  N   UNL     1      -0.020  10.797  18.715  0.00  0.00    +0.000 N 
ATOM      4  C   UNL     1      -1.125   9.837  18.766  0.00  0.00    +0.000 C 
ATOM      5  C   UNL     1      -2.176  10.152  17.714  0.00  0.00    +0.000 C 
ATOM      6  C   UNL     1      -2.701  11.576  17.872  0.00  0.00    +0.000 C 
ATOM      7  C   UNL     1      -1.519  12.556  17.820  0.00  0.00    +0.000 C 
ATOM      8  C   UNL     1      -0.421  12.197  18.822  0.00  0.00    +0.000 C 
ENDROOT
BRANCH   2   9
ATOM      9  C   UNL     1       1.730   9.092  18.663  0.00  0.00    +0.000 A 
ATOM     10  C   UNL     1       2.093   8.143  17.727  0.00  0.00    +0.000 A 
ATOM     11  C   UNL     1       2.559   7.019  18.456  0.00  0.00    +0.000 A 
ATOM     12  N   UNL     1       2.308   7.187  19.764  0.00  0.00    +0.000 NA
ATOM     13  N   UNL     1       1.749   8.406  19.849  0.00  0.00    +0.000 N 
ATOM     14  H   UNL     1       1.448   8.750  20.755  0.00  0.00    +0.000 HD
BRANCH  11  15
ATOM     15  C   UNL     1       3.239   5.832  17.924  0.00  0.00    +0.000 A 
ATOM     16  C   UNL     1       4.586   5.886  17.527  0.00  0.00    +0.000 A 
ATOM     17  C   UNL     1       5.230   4.756  17.016  0.00  0.00    +0.000 A 
ATOM     18  C   UNL     1       4.537   3.555  16.902  0.00  0.00    +0.000 A 
ATOM     19  C   UNL     1       3.206   3.478  17.310  0.00  0.00    +0.000 A 
ATOM     20  C   UNL     1       2.563   4.610  17.821  0.00  0.00    +0.000 A 
ENDBRANCH  11  15
ENDBRANCH   2   9
BRANCH   6  21
ATOM     21  O   UNL     1      -3.368  11.756  19.133  0.00  0.00    +0.000 OA
BRANCH  21  22
ATOM     22  C   UNL     1      -4.724  11.985  19.015  0.00  0.00    +0.000 A 
ATOM     23  C   UNL     1      -5.247  12.049  17.739  0.00  0.00    +0.000 A 
ATOM     24  C   UNL     1      -6.612  12.267  17.604  0.00  0.00    +0.000 A 
ATOM     25  C   UNL     1      -7.363  12.437  18.751  0.00  0.00    +0.000 A 
ATOM     26  N   UNL     1      -6.820  12.399  19.985  0.00  0.00    +0.000 NA
ATOM     27  N   UNL     1      -5.485  12.167  20.116  0.00  0.00    +0.000 NA
ENDBRANCH  21  22
ENDBRANCH   6  21
TORSDOF 4
ENDMDL
MODEL 9
REMARK VINA RESULT:      -7.5      2.265      8.698
REMARK  Name = 
REMARK  4 active torsions:
REMARK  status: ('A' for Active; 'I' for Inactive)
REMARK    1  A    between atoms: C_2  and  C_3
REMARK    2  A    between atoms: C_5  and  C_6
REMARK    3  A    between atoms: C_17  and  O_18
REMARK    4  A    between atoms: O_18  and  C_19
REMARK                            x       y       z     vdW  Elec       q    Type
REMARK                         _______ _______ _______ _____ _____    ______ ____
ROOT
ATOM      1  O   UNL     1       4.150   5.341  19.835  0.00  0.00    +0.000 OA
ATOM      2  C   UNL     1       3.987   5.939  18.772  0.00  0.00    +0.000 C 
ATOM      3  N   UNL     1       2.937   6.852  18.604  0.00  0.00    +0.000 N 
ATOM      4  C   UNL     1       2.780   7.776  17.478  0.00  0.00    +0.000 C 
ATOM      5  C   UNL     1       2.633   9.209  17.959  0.00  0.00    +0.000 C 
ATOM      6  C   UNL     1       1.460   9.347  18.927  0.00  0.00    +0.000 C 
ATOM      7  C   UNL     1       1.653   8.363  20.091  0.00  0.00    +0.000 C 
ATOM      8  C   UNL     1       1.881   6.929  19.610  0.00  0.00    +0.000 C 
ENDROOT
BRANCH   2   9
ATOM      9  C   UNL     1       4.912   5.743  17.686  0.00  0.00    +0.000 A 
ATOM     10  C   UNL     1       4.962   4.865  16.622  0.00  0.00    +0.000 A 
ATOM     11  C   UNL     1       6.024   5.304  15.789  0.00  0.00    +0.000 A 
ATOM     12  N   UNL     1       6.717   6.274  16.407  0.00  0.00    +0.000 NA
ATOM     13  N   UNL     1       6.070   6.466  17.569  0.00  0.00    +0.000 N 
ATOM     14  H   UNL     1       6.429   7.150  18.227  0.00  0.00    +0.000 HD
BRANCH  11  15
ATOM     15  C   UNL     1       6.354   4.827  14.441  0.00  0.00    +0.000 A 
ATOM     16  C   UNL     1       5.553   3.870  13.795  0.00  0.00    +0.000 A 
ATOM     17  C   UNL     1       5.871   3.414  12.513  0.00  0.00    +0.000 A 
ATOM     18  C   UNL     1       6.992   3.914  11.857  0.00  0.00    +0.000 A 
ATOM     19  C   UNL     1       7.786   4.879  12.475  0.00  0.00    +0.000 A 
ATOM     20  C   UNL     1       7.466   5.335  13.758  0.00  0.00    +0.000 A 
ENDBRANCH  11  15
ENDBRANCH   2   9
BRANCH   6  21
ATOM     21  O   UNL     1       0.211   9.036  18.289  0.00  0.00    +0.000 OA
BRANCH  21  22
ATOM     22  C   UNL     1      -0.724  10.048  18.381  0.00  0.00    +0.000 A 
ATOM     23  C   UNL     1      -0.628  10.903  19.460  0.00  0.00    +0.000 A 
ATOM     24  C   UNL     1      -1.555  11.932  19.560  0.00  0.00    +0.000 A 
ATOM     25  C   UNL     1      -2.537  12.025  18.593  0.00  0.00    +0.000 A 
ATOM     26  N   UNL     1      -2.625  11.156  17.565  0.00  0.00    +0.000 NA
ATOM     27  N   UNL     1      -1.705  10.158  17.459  0.00  0.00    +0.000 NA
ENDBRANCH  21  22
ENDBRANCH   6  21
TORSDOF 4
ENDMDL
