MODEL 1
REMARK VINA RESULT:      -7.0      0.000      0.000
REMARK  Name = 
REMARK  10 active torsions:
REMARK  status: ('A' for Active; 'I' for Inactive)
REMARK    1  A    between atoms: C_1  and  C_2
REMARK    2  A    between atoms: C_2  and  N_3
REMARK    3  A    between atoms: C_5  and  C_6
REMARK    4  A    between atoms: C_6  and  N_7
REMARK    5  A    between atoms: N_7  and  C_8
REMARK    6  A    between atoms: N_7  and  C_9
REMARK    7  A    between atoms: C_9  and  C_10
REMARK    8  A    between atoms: C_12  and  C_13
REMARK    9  A    between atoms: C_13  and  C_14
REMARK   10  A    between atoms: C_13  and  C_15
REMARK                            x       y       z     vdW  Elec       q    Type
REMARK                         _______ _______ _______ _____ _____    ______ ____
ROOT
ATOM      1  N   UNL     1       5.681   5.573  17.290  0.00  0.00    +0.000 NA
ATOM      2  C   UNL     1       5.901   7.021  17.183  0.00  0.00    +0.000 C 
ENDROOT
BRANCH   1   3
ATOM      3  C   UNL     1       5.346   5.167  18.672  0.00  0.00    +0.000 C 
BRANCH   3   6
ATOM      4  N   UNL     1       1.944   4.098  19.476  0.00  0.00    +0.000 N 
ATOM      5  C   UNL     1       3.218   4.331  19.901  0.00  0.00    +0.000 A 
ATOM      6  C   UNL     1       3.910   4.798  18.798  0.00  0.00    +0.000 A 
ATOM      7  C   UNL     1       2.930   4.859  17.782  0.00  0.00    +0.000 A 
ATOM      8  N   UNL     1       1.734   4.430  18.190  0.00  0.00    +0.000 NA
BRANCH   4  10
ATOM      9  C   UNL     1       1.382   2.761  21.463  0.00  0.00    +0.000 C 
ATOM     10  C   UNL     1       0.866   3.521  20.252  0.00  0.00    +0.000 C 
ENDBRANCH   4  10
ENDBRANCH   3   6
ENDBRANCH   1   3
BRANCH   1  11
ATOM     11  C   UNL     1       6.906   4.873  16.848  0.00  0.00    +0.000 C 
BRANCH  11  12
ATOM     12  C   UNL     1       6.933   4.715  15.362  0.00  0.00    +0.000 A 
ATOM     13  C   UNL     1       6.200   3.795  14.579  0.00  0.00    +0.000 A 
ATOM     14  C   UNL     1       6.556   4.092  13.289  0.00  0.00    +0.000 A 
ATOM     15  O   UNL     1       7.488   5.084  13.298  0.00  0.00    +0.000 OA
ATOM     16  N   UNL     1       7.725   5.482  14.602  0.00  0.00    +0.000 NA
BRANCH  14  17
ATOM     17  C   UNL     1       6.099   3.595  11.964  0.00  0.00    +0.000 C 
ATOM     18  C   UNL     1       6.863   2.325  11.585  0.00  0.00    +0.000 C 
ATOM     19  C   UNL     1       4.592   3.359  11.937  0.00  0.00    +0.000 C 
ENDBRANCH  14  17
ENDBRANCH  11  12
ENDBRANCH   1  11
TORSDOF 6
ENDMDL
MODEL 2
REMARK VINA RESULT:      -6.5      1.420      1.547
REMARK  Name = 
REMARK  10 active torsions:
REMARK  status: ('A' for Active; 'I' for Inactive)
REMARK    1  A    between atoms: C_1  and  C_2
REMARK    2  A    between atoms: C_2  and  N_3
REMARK    3  A    between atoms: C_5  and  C_6
REMARK    4  A    between atoms: C_6  and  N_7
REMARK    5  A    between atoms: N_7  and  C_8
REMARK    6  A    between atoms: N_7  and  C_9
REMARK    7  A    between atoms: C_9  and  C_10
REMARK    8  A    between atoms: C_12  and  C_13
REMARK    9  A    between atoms: C_13  and  C_14
REMARK   10  A    between atoms: C_13  and  C_15
REMARK                            x       y       z     vdW  Elec       q    Type
REMARK                         _______ _______ _______ _____ _____    ______ ____
ROOT
ATOM      1  N   UNL     1       6.619   5.806  17.423  0.00  0.00    +0.000 NA
ATOM      2  C   UNL     1       7.307   7.101  17.343  0.00  0.00    +0.000 C 
ENDROOT
BRANCH   1   3
ATOM      3  C   UNL     1       6.531   5.314  18.815  0.00  0.00    +0.000 C 
BRANCH   3   6
ATOM      4  N   UNL     1       3.064   4.634  19.758  0.00  0.00    +0.000 N 
ATOM      5  C   UNL     1       4.055   5.550  19.558  0.00  0.00    +0.000 A 
ATOM      6  C   UNL     1       5.160   4.832  19.135  0.00  0.00    +0.000 A 
ATOM      7  C   UNL     1       4.693   3.501  19.062  0.00  0.00    +0.000 A 
ATOM      8  N   UNL     1       3.421   3.376  19.444  0.00  0.00    +0.000 NA
BRANCH   4  10
ATOM      9  C   UNL     1       0.931   3.614  20.438  0.00  0.00    +0.000 C 
ATOM     10  C   UNL     1       1.741   4.893  20.285  0.00  0.00    +0.000 C 
ENDBRANCH   4  10
ENDBRANCH   3   6
ENDBRANCH   1   3
BRANCH   1  11
ATOM     11  C   UNL     1       7.353   4.826  16.594  0.00  0.00    +0.000 C 
BRANCH  11  12
ATOM     12  C   UNL     1       6.589   4.484  15.356  0.00  0.00    +0.000 A 
ATOM     13  C   UNL     1       7.108   4.207  14.070  0.00  0.00    +0.000 A 
ATOM     14  C   UNL     1       6.001   3.919  13.315  0.00  0.00    +0.000 A 
ATOM     15  O   UNL     1       4.885   4.070  14.080  0.00  0.00    +0.000 OA
ATOM     16  N   UNL     1       5.252   4.423  15.367  0.00  0.00    +0.000 NA
BRANCH  14  17
ATOM     17  C   UNL     1       5.814   3.449  11.917  0.00  0.00    +0.000 C 
ATOM     18  C   UNL     1       6.560   2.132  11.699  0.00  0.00    +0.000 C 
ATOM     19  C   UNL     1       4.337   3.310  11.560  0.00  0.00    +0.000 C 
ENDBRANCH  14  17
ENDBRANCH  11  12
ENDBRANCH   1  11
TORSDOF 6
ENDMDL
MODEL 3
REMARK VINA RESULT:      -6.4      0.932      1.304
REMARK  Name = 
REMARK  10 active torsions:
REMARK  status: ('A' for Active; 'I' for Inactive)
REMARK    1  A    between atoms: C_1  and  C_2
REMARK    2  A    between atoms: C_2  and  N_3
REMARK    3  A    between atoms: C_5  and  C_6
REMARK    4  A    between atoms: C_6  and  N_7
REMARK    5  A    between atoms: N_7  and  C_8
REMARK    6  A    between atoms: N_7  and  C_9
REMARK    7  A    between atoms: C_9  and  C_10
REMARK    8  A    between atoms: C_12  and  C_13
REMARK    9  A    between atoms: C_13  and  C_14
REMARK   10  A    between atoms: C_13  and  C_15
REMARK                            x       y       z     vdW  Elec       q    Type
REMARK                         _______ _______ _______ _____ _____    ______ ____
ROOT
ATOM      1  N   UNL     1       6.389   5.845  17.680  0.00  0.00    +0.000 NA
ATOM      2  C   UNL     1       6.581   5.767  19.133  0.00  0.00    +0.000 C 
ENDROOT
BRANCH   1   3
ATOM      3  C   UNL     1       5.111   6.500  17.327  0.00  0.00    +0.000 C 
BRANCH   3   6
ATOM      4  N   UNL     1       2.306   4.482  18.522  0.00  0.00    +0.000 N 
ATOM      5  C   UNL     1       3.343   4.627  17.648  0.00  0.00    +0.000 A 
ATOM      6  C   UNL     1       3.956   5.823  17.976  0.00  0.00    +0.000 A 
ATOM      7  C   UNL     1       3.233   6.278  19.102  0.00  0.00    +0.000 A 
ATOM      8  N   UNL     1       2.226   5.467  19.433  0.00  0.00    +0.000 NA
BRANCH   4  10
ATOM      9  C   UNL     1       1.137   2.816  19.903  0.00  0.00    +0.000 C 
ATOM     10  C   UNL     1       1.316   3.425  18.521  0.00  0.00    +0.000 C 
ENDBRANCH   4  10
ENDBRANCH   3   6
ENDBRANCH   1   3
BRANCH   1  11
ATOM     11  C   UNL     1       6.418   4.475  17.123  0.00  0.00    +0.000 C 
BRANCH  11  12
ATOM     12  C   UNL     1       6.617   4.497  15.642  0.00  0.00    +0.000 A 
ATOM     13  C   UNL     1       6.020   3.652  14.678  0.00  0.00    +0.000 A 
ATOM     14  C   UNL     1       6.503   4.114  13.481  0.00  0.00    +0.000 A 
ATOM     15  O   UNL     1       7.378   5.130  13.711  0.00  0.00    +0.000 OA
ATOM     16  N   UNL     1       7.450   5.376  15.072  0.00  0.00    +0.000 NA
BRANCH  14  17
ATOM     17  C   UNL     1       6.220   3.762  12.064  0.00  0.00    +0.000 C 
ATOM     18  C   UNL     1       7.182   2.673  11.589  0.00  0.00    +0.000 C 
ATOM     19  C   UNL     1       4.768   3.340  11.864  0.00  0.00    +0.000 C 
ENDBRANCH  14  17
ENDBRANCH  11  12
ENDBRANCH   1  11
TORSDOF 6
ENDMDL
MODEL 4
REMARK VINA RESULT:      -6.4      2.348      6.952
REMARK  Name = 
REMARK  10 active torsions:
REMARK  status: ('A' for Active; 'I' for Inactive)
REMARK    1  A    between atoms: C_1  and  C_2
REMARK    2  A    between atoms: C_2  and  N_3
REMARK    3  A    between atoms: C_5  and  C_6
REMARK    4  A    between atoms: C_6  and  N_7
REMARK    5  A    between atoms: N_7  and  C_8
REMARK    6  A    between atoms: N_7  and  C_9
REMARK    7  A    between atoms: C_9  and  C_10
REMARK    8  A    between atoms: C_12  and  C_13
REMARK    9  A    between atoms: C_13  and  C_14
REMARK   10  A    between atoms: C_13  and  C_15
REMARK                            x       y       z     vdW  Elec       q    Type
REMARK                         _______ _______ _______ _____ _____    ______ ____
ROOT
ATOM      1  N   UNL     1       6.333   4.654  17.517  0.00  0.00    +0.000 NA
ATOM      2  C   UNL     1       7.792   4.487  17.491  0.00  0.00    +0.000 C 
ENDROOT
BRANCH   1   3
ATOM      3  C   UNL     1       5.861   5.548  16.439  0.00  0.00    +0.000 C 
BRANCH   3   6
ATOM      4  N   UNL     1       6.141   3.858  13.208  0.00  0.00    +0.000 N 
ATOM      5  C   UNL     1       5.408   4.099  14.333  0.00  0.00    +0.000 A 
ATOM      6  C   UNL     1       6.154   4.981  15.095  0.00  0.00    +0.000 A 
ATOM      7  C   UNL     1       7.289   5.245  14.295  0.00  0.00    +0.000 A 
ATOM      8  N   UNL     1       7.286   4.560  13.150  0.00  0.00    +0.000 NA
BRANCH   4  10
ATOM      9  C   UNL     1       4.439   3.202  11.558  0.00  0.00    +0.000 C 
ATOM     10  C   UNL     1       5.815   2.930  12.146  0.00  0.00    +0.000 C 
ENDBRANCH   4  10
ENDBRANCH   3   6
ENDBRANCH   1   3
BRANCH   1  11
ATOM     11  C   UNL     1       5.944   5.209  18.832  0.00  0.00    +0.000 C 
BRANCH  11  12
ATOM     12  C   UNL     1       4.587   4.733  19.240  0.00  0.00    +0.000 A 
ATOM     13  C   UNL     1       4.109   3.402  19.258  0.00  0.00    +0.000 A 
ATOM     14  C   UNL     1       2.832   3.510  19.746  0.00  0.00    +0.000 A 
ATOM     15  O   UNL     1       2.540   4.823  19.950  0.00  0.00    +0.000 OA
ATOM     16  N   UNL     1       3.644   5.596  19.636  0.00  0.00    +0.000 NA
BRANCH  14  17
ATOM     17  C   UNL     1       1.795   2.512  20.117  0.00  0.00    +0.000 C 
ATOM     18  C   UNL     1       1.371   2.708  21.574  0.00  0.00    +0.000 C 
ATOM     19  C   UNL     1       0.591   2.572  19.181  0.00  0.00    +0.000 C 
ENDBRANCH  14  17
ENDBRANCH  11  12
ENDBRANCH   1  11
TORSDOF 6
ENDMDL
MODEL 5
REMARK VINA RESULT:      -6.3      1.168      1.732
REMARK  Name = 
REMARK  10 active torsions:
REMARK  status: ('A' for Active; 'I' for Inactive)
REMARK    1  A    between atoms: C_1  and  C_2
REMARK    2  A    between atoms: C_2  and  N_3
REMARK    3  A    between atoms: C_5  and  C_6
REMARK    4  A    between atoms: C_6  and  N_7
REMARK    5  A    between atoms: N_7  and  C_8
REMARK    6  A    between atoms: N_7  and  C_9
REMARK    7  A    between atoms: C_9  and  C_10
REMARK    8  A    between atoms: C_12  and  C_13
REMARK    9  A    between atoms: C_13  and  C_14
REMARK   10  A    between atoms: C_13  and  C_15
REMARK                            x       y       z     vdW  Elec       q    Type
REMARK                         _______ _______ _______ _____ _____    ______ ____
ROOT
ATOM      1  N   UNL     1       6.619   6.751  16.770  0.00  0.00    +0.000 NA
ATOM      2  C   UNL     1       7.607   7.387  17.650  0.00  0.00    +0.000 C 
ENDROOT
BRANCH   1   3
ATOM      3  C   UNL     1       5.236   6.958  17.253  0.00  0.00    +0.000 C 
BRANCH   3   6
ATOM      4  N   UNL     1       4.248   3.957  19.091  0.00  0.00    +0.000 N 
ATOM      5  C   UNL     1       5.026   5.075  19.026  0.00  0.00    +0.000 A 
ATOM      6  C   UNL     1       4.677   5.716  17.851  0.00  0.00    +0.000 A 
ATOM      7  C   UNL     1       3.636   4.919  17.325  0.00  0.00    +0.000 A 
ATOM      8  N   UNL     1       3.376   3.846  18.074  0.00  0.00    +0.000 NA
BRANCH   4  10
ATOM      9  C   UNL     1       2.970   2.720  20.791  0.00  0.00    +0.000 C 
ATOM     10  C   UNL     1       4.309   2.918  20.098  0.00  0.00    +0.000 C 
ENDBRANCH   4  10
ENDBRANCH   3   6
ENDBRANCH   1   3
BRANCH   1  11
ATOM     11  C   UNL     1       6.910   5.303  16.699  0.00  0.00    +0.000 C 
BRANCH  11  12
ATOM     12  C   UNL     1       6.830   4.803  15.293  0.00  0.00    +0.000 A 
ATOM     13  C   UNL     1       6.078   3.709  14.806  0.00  0.00    +0.000 A 
ATOM     14  C   UNL     1       6.323   3.705  13.457  0.00  0.00    +0.000 A 
ATOM     15  O   UNL     1       7.211   4.693  13.160  0.00  0.00    +0.000 OA
ATOM     16  N   UNL     1       7.530   5.389  14.313  0.00  0.00    +0.000 NA
BRANCH  14  17
ATOM     17  C   UNL     1       5.788   2.902  12.326  0.00  0.00    +0.000 C 
ATOM     18  C   UNL     1       4.627   3.639  11.658  0.00  0.00    +0.000 C 
ATOM     19  C   UNL     1       6.876   2.557  11.313  0.00  0.00    +0.000 C 
ENDBRANCH  14  17
ENDBRANCH  11  12
ENDBRANCH   1  11
TORSDOF 6
ENDMDL
MODEL 6
REMARK VINA RESULT:      -6.2      1.490      1.648
REMARK  Name = 
REMARK  10 active torsions:
REMARK  status: ('A' for Active; 'I' for Inactive)
REMARK    1  A    between atoms: C_1  and  C_2
REMARK    2  A    between atoms: C_2  and  N_3
REMARK    3  A    between atoms: C_5  and  C_6
REMARK    4  A    between atoms: C_6  and  N_7
REMARK    5  A    between atoms: N_7  and  C_8
REMARK    6  A    between atoms: N_7  and  C_9
REMARK    7  A    between atoms: C_9  and  C_10
REMARK    8  A    between atoms: C_12  and  C_13
REMARK    9  A    between atoms: C_13  and  C_14
REMARK   10  A    between atoms: C_13  and  C_15
REMARK                            x       y       z     vdW  Elec       q    Type
REMARK                         _______ _______ _______ _____ _____    ______ ____
ROOT
ATOM      1  N   UNL     1       6.862   5.880  18.060  0.00  0.00    +0.000 NA
ATOM      2  C   UNL     1       7.897   6.892  18.308  0.00  0.00    +0.000 C 
ENDROOT
BRANCH   1   3
ATOM      3  C   UNL     1       6.191   5.460  19.309  0.00  0.00    +0.000 C 
BRANCH   3   6
ATOM      4  N   UNL     1       2.746   4.295  18.937  0.00  0.00    +0.000 N 
ATOM      5  C   UNL     1       4.009   4.057  19.392  0.00  0.00    +0.000 A 
ATOM      6  C   UNL     1       4.746   5.187  19.084  0.00  0.00    +0.000 A 
ATOM      7  C   UNL     1       3.801   6.060  18.499  0.00  0.00    +0.000 A 
ATOM      8  N   UNL     1       2.586   5.519  18.403  0.00  0.00    +0.000 NA
BRANCH   4  10
ATOM      9  C   UNL     1       0.793   3.511  20.212  0.00  0.00    +0.000 C 
ATOM     10  C   UNL     1       1.633   3.369  18.952  0.00  0.00    +0.000 C 
ENDBRANCH   4  10
ENDBRANCH   3   6
ENDBRANCH   1   3
BRANCH   1  11
ATOM     11  C   UNL     1       7.490   4.708  17.413  0.00  0.00    +0.000 C 
BRANCH  11  12
ATOM     12  C   UNL     1       6.824   4.386  16.114  0.00  0.00    +0.000 A 
ATOM     13  C   UNL     1       7.217   4.792  14.818  0.00  0.00    +0.000 A 
ATOM     14  C   UNL     1       6.302   4.199  13.987  0.00  0.00    +0.000 A 
ATOM     15  O   UNL     1       5.383   3.530  14.737  0.00  0.00    +0.000 OA
ATOM     16  N   UNL     1       5.711   3.643  16.077  0.00  0.00    +0.000 NA
BRANCH  14  17
ATOM     17  C   UNL     1       6.170   4.116  12.509  0.00  0.00    +0.000 C 
ATOM     18  C   UNL     1       7.449   4.616  11.836  0.00  0.00    +0.000 C 
ATOM     19  C   UNL     1       5.823   2.703  12.050  0.00  0.00    +0.000 C 
ENDBRANCH  14  17
ENDBRANCH  11  12
ENDBRANCH   1  11
TORSDOF 6
ENDMDL
MODEL 7
REMARK VINA RESULT:      -6.2      2.434      6.521
REMARK  Name = 
REMARK  10 active torsions:
REMARK  status: ('A' for Active; 'I' for Inactive)
REMARK    1  A    between atoms: C_1  and  C_2
REMARK    2  A    between atoms: C_2  and  N_3
REMARK    3  A    between atoms: C_5  and  C_6
REMARK    4  A    between atoms: C_6  and  N_7
REMARK    5  A    between atoms: N_7  and  C_8
REMARK    6  A    between atoms: N_7  and  C_9
REMARK    7  A    between atoms: C_9  and  C_10
REMARK    8  A    between atoms: C_12  and  C_13
REMARK    9  A    between atoms: C_13  and  C_14
REMARK   10  A    between atoms: C_13  and  C_15
REMARK                            x       y       z     vdW  Elec       q    Type
REMARK                         _______ _______ _______ _____ _____    ______ ____
ROOT
ATOM      1  N   UNL     1       7.326   5.678  16.776  0.00  0.00    +0.000 NA
ATOM      2  C   UNL     1       7.561   6.990  17.391  0.00  0.00    +0.000 C 
ENDROOT
BRANCH   1   3
ATOM      3  C   UNL     1       6.075   5.654  15.987  0.00  0.00    +0.000 C 
BRANCH   3   6
ATOM      4  N   UNL     1       6.091   3.727  12.880  0.00  0.00    +0.000 N 
ATOM      5  C   UNL     1       5.423   4.109  14.005  0.00  0.00    +0.000 A 
ATOM      6  C   UNL     1       6.270   4.971  14.679  0.00  0.00    +0.000 A 
ATOM      7  C   UNL     1       7.395   5.076  13.830  0.00  0.00    +0.000 A 
ATOM      8  N   UNL     1       7.291   4.317  12.738  0.00  0.00    +0.000 NA
BRANCH   4  10
ATOM      9  C   UNL     1       4.281   3.112  11.332  0.00  0.00    +0.000 C 
ATOM     10  C   UNL     1       5.648   2.760  11.897  0.00  0.00    +0.000 C 
ENDBRANCH   4  10
ENDBRANCH   3   6
ENDBRANCH   1   3
BRANCH   1  11
ATOM     11  C   UNL     1       7.259   4.658  17.845  0.00  0.00    +0.000 C 
BRANCH  11  12
ATOM     12  C   UNL     1       5.895   4.599  18.453  0.00  0.00    +0.000 A 
ATOM     13  C   UNL     1       4.817   3.768  18.073  0.00  0.00    +0.000 A 
ATOM     14  C   UNL     1       3.823   4.076  18.966  0.00  0.00    +0.000 A 
ATOM     15  O   UNL     1       4.253   5.070  19.790  0.00  0.00    +0.000 OA
ATOM     16  N   UNL     1       5.560   5.400  19.472  0.00  0.00    +0.000 NA
BRANCH  14  17
ATOM     17  C   UNL     1       2.466   3.521  19.214  0.00  0.00    +0.000 C 
ATOM     18  C   UNL     1       2.054   3.765  20.667  0.00  0.00    +0.000 C 
ATOM     19  C   UNL     1       1.435   4.093  18.246  0.00  0.00    +0.000 C 
ENDBRANCH  14  17
ENDBRANCH  11  12
ENDBRANCH   1  11
TORSDOF 6
ENDMDL
MODEL 8
REMARK VINA RESULT:      -6.2      2.824      4.821
REMARK  Name = 
REMARK  10 active torsions:
REMARK  status: ('A' for Active; 'I' for Inactive)
REMARK    1  A    between atoms: C_1  and  C_2
REMARK    2  A    between atoms: C_2  and  N_3
REMARK    3  A    between atoms: C_5  and  C_6
REMARK    4  A    between atoms: C_6  and  N_7
REMARK    5  A    between atoms: N_7  and  C_8
REMARK    6  A    between atoms: N_7  and  C_9
REMARK    7  A    between atoms: C_9  and  C_10
REMARK    8  A    between atoms: C_12  and  C_13
REMARK    9  A    between atoms: C_13  and  C_14
REMARK   10  A    between atoms: C_13  and  C_15
REMARK                            x       y       z     vdW  Elec       q    Type
REMARK                         _______ _______ _______ _____ _____    ______ ____
ROOT
ATOM      1  N   UNL     1       2.605   3.330  20.544  0.00  0.00    +0.000 NA
ATOM      2  C   UNL     1       2.186   2.546  21.713  0.00  0.00    +0.000 C 
ENDROOT
BRANCH   1   3
ATOM      3  C   UNL     1       1.459   4.001  19.892  0.00  0.00    +0.000 C 
BRANCH   3   6
ATOM      4  N   UNL     1       2.308   7.367  18.745  0.00  0.00    +0.000 N 
ATOM      5  C   UNL     1       2.113   6.052  18.441  0.00  0.00    +0.000 A 
ATOM      6  C   UNL     1       1.749   5.436  19.626  0.00  0.00    +0.000 A 
ATOM      7  C   UNL     1       1.702   6.495  20.560  0.00  0.00    +0.000 A 
ATOM      8  N   UNL     1       2.046   7.669  20.028  0.00  0.00    +0.000 NA
BRANCH   4  10
ATOM      9  C   UNL     1       1.877   9.620  17.858  0.00  0.00    +0.000 C 
ATOM     10  C   UNL     1       2.783   8.400  17.848  0.00  0.00    +0.000 C 
ENDBRANCH   4  10
ENDBRANCH   3   6
ENDBRANCH   1   3
BRANCH   1  11
ATOM     11  C   UNL     1       3.268   2.426  19.580  0.00  0.00    +0.000 C 
BRANCH  11  12
ATOM     12  C   UNL     1       4.195   3.179  18.681  0.00  0.00    +0.000 A 
ATOM     13  C   UNL     1       4.101   3.334  17.279  0.00  0.00    +0.000 A 
ATOM     14  C   UNL     1       5.164   4.138  16.957  0.00  0.00    +0.000 A 
ATOM     15  O   UNL     1       5.884   4.400  18.082  0.00  0.00    +0.000 OA
ATOM     16  N   UNL     1       5.275   3.801  19.170  0.00  0.00    +0.000 NA
BRANCH  14  17
ATOM     17  C   UNL     1       5.613   4.777  15.692  0.00  0.00    +0.000 C 
ATOM     18  C   UNL     1       5.198   6.249  15.668  0.00  0.00    +0.000 C 
ATOM     19  C   UNL     1       7.118   4.627  15.485  0.00  0.00    +0.000 C 
ENDBRANCH  14  17
ENDBRANCH  11  12
ENDBRANCH   1  11
TORSDOF 6
ENDMDL
MODEL 9
REMARK VINA RESULT:      -6.1      1.201      1.667
REMARK  Name = 
REMARK  10 active torsions:
REMARK  status: ('A' for Active; 'I' for Inactive)
REMARK    1  A    between atoms: C_1  and  C_2
REMARK    2  A    between atoms: C_2  and  N_3
REMARK    3  A    between atoms: C_5  and  C_6
REMARK    4  A    between atoms: C_6  and  N_7
REMARK    5  A    between atoms: N_7  and  C_8
REMARK    6  A    between atoms: N_7  and  C_9
REMARK    7  A    between atoms: C_9  and  C_10
REMARK    8  A    between atoms: C_12  and  C_13
REMARK    9  A    between atoms: C_13  and  C_14
REMARK   10  A    between atoms: C_13  and  C_15
REMARK                            x       y       z     vdW  Elec       q    Type
REMARK                         _______ _______ _______ _____ _____    ______ ____
ROOT
ATOM      1  N   UNL     1       5.688   5.741  17.926  0.00  0.00    +0.000 NA
ATOM      2  C   UNL     1       6.017   5.607  19.351  0.00  0.00    +0.000 C 
ENDROOT
BRANCH   1   3
ATOM      3  C   UNL     1       4.353   6.343  17.722  0.00  0.00    +0.000 C 
BRANCH   3   6
ATOM      4  N   UNL     1       1.814   4.430  19.527  0.00  0.00    +0.000 N 
ATOM      5  C   UNL     1       2.680   4.508  18.477  0.00  0.00    +0.000 A 
ATOM      6  C   UNL     1       3.334   5.720  18.609  0.00  0.00    +0.000 A 
ATOM      7  C   UNL     1       2.818   6.256  19.811  0.00  0.00    +0.000 A 
ATOM      8  N   UNL     1       1.890   5.477  20.368  0.00  0.00    +0.000 NA
BRANCH   4  10
ATOM      9  C   UNL     1       0.986   2.236  18.785  0.00  0.00    +0.000 C 
ATOM     10  C   UNL     1       0.845   3.383  19.774  0.00  0.00    +0.000 C 
ENDBRANCH   4  10
ENDBRANCH   3   6
ENDBRANCH   1   3
BRANCH   1  11
ATOM     11  C   UNL     1       5.732   4.401  17.301  0.00  0.00    +0.000 C 
BRANCH  11  12
ATOM     12  C   UNL     1       6.300   4.466  15.920  0.00  0.00    +0.000 A 
ATOM     13  C   UNL     1       5.993   3.631  14.821  0.00  0.00    +0.000 A 
ATOM     14  C   UNL     1       6.749   4.135  13.795  0.00  0.00    +0.000 A 
ATOM     15  O   UNL     1       7.507   5.166  14.259  0.00  0.00    +0.000 OA
ATOM     16  N   UNL     1       7.223   5.379  15.598  0.00  0.00    +0.000 NA
BRANCH  14  17
ATOM     17  C   UNL     1       6.847   3.813  12.346  0.00  0.00    +0.000 C 
ATOM     18  C   UNL     1       5.515   3.259  11.838  0.00  0.00    +0.000 C 
ATOM     19  C   UNL     1       7.288   5.022  11.526  0.00  0.00    +0.000 C 
ENDBRANCH  14  17
ENDBRANCH  11  12
ENDBRANCH   1  11
TORSDOF 6
ENDMDL
