MODEL 1
REMARK VINA RESULT:      -7.0      0.000      0.000
REMARK  Name = 
REMARK  10 active torsions:
REMARK  status: ('A' for Active; 'I' for Inactive)
REMARK    1  A    between atoms: C_1  and  C_2
REMARK    2  A    between atoms: C_2  and  O_3
REMARK    3  A    between atoms: O_3  and  C_4
REMARK    4  A    between atoms: C_4  and  C_6
REMARK    5  A    between atoms: C_10  and  C_12
REMARK    6  A    between atoms: N_15  and  S_16
REMARK    7  A    between atoms: S_16  and  C_19
REMARK    8  A    between atoms: C_25  and  O_26
REMARK    9  A    between atoms: O_26  and  C_27
REMARK   10  A    between atoms: C_27  and  C_28
REMARK                            x       y       z     vdW  Elec       q    Type
REMARK                         _______ _______ _______ _____ _____    ______ ____
ROOT
ATOM      1  C   UNL     1       1.038   8.368  21.278  0.00  0.00    +0.000 C 
ATOM      2  C   UNL     1      -0.476   8.524  21.320  0.00  0.00    +0.000 C 
ATOM      3  C   UNL     1      -0.997   9.753  20.608  0.00  0.00    +0.000 C 
ATOM      4  N   UNL     1      -0.332  11.021  20.975  0.00  0.00    +0.000 NA
ATOM      5  C   UNL     1       1.152  10.949  21.206  0.00  0.00    +0.000 C 
ATOM      6  C   UNL     1       1.641   9.654  21.859  0.00  0.00    +0.000 C 
ENDROOT
BRANCH   1  11
ATOM      7  C   UNL     1       2.094   3.817  18.920  0.00  0.00    +0.000 C 
ATOM      8  C   UNL     1       2.249   4.955  17.897  0.00  0.00    +0.000 C 
ATOM      9  C   UNL     1       2.769   6.261  18.506  0.00  0.00    +0.000 C 
ATOM     10  N   UNL     1       2.034   6.632  19.724  0.00  0.00    +0.000 N 
ATOM     11  C   UNL     1       1.635   7.965  19.909  0.00  0.00    +0.000 C 
ATOM     12  O   UNL     1       1.796   8.807  19.041  0.00  0.00    +0.000 OA
ATOM     13  C   UNL     1       2.012   5.573  20.732  0.00  0.00    +0.000 C 
ATOM     14  C   UNL     1       1.329   4.335  20.151  0.00  0.00    +0.000 C 
BRANCH   7  15
ATOM     15  C   UNL     1       3.392   3.156  19.376  0.00  0.00    +0.000 C 
ATOM     16  O   UNL     1       3.468   2.445  20.374  0.00  0.00    +0.000 OA
BRANCH  15  17
ATOM     17  O   UNL     1       4.426   3.399  18.532  0.00  0.00    +0.000 OA
BRANCH  17  19
ATOM     18  C   UNL     1       6.457   4.612  17.988  0.00  0.00    +0.000 C 
ATOM     19  C   UNL     1       5.499   4.183  19.086  0.00  0.00    +0.000 C 
ENDBRANCH  17  19
ENDBRANCH  15  17
ENDBRANCH   7  15
ENDBRANCH   1  11
BRANCH   4  20
ATOM     20  S   UNL     1      -0.726  12.281  19.822  0.00  0.00    +0.000 S 
ATOM     21  O   UNL     1      -0.538  13.542  20.505  0.00  0.00    +0.000 OA
ATOM     22  O   UNL     1      -0.008  12.014  18.595  0.00  0.00    +0.000 OA
BRANCH  20  23
ATOM     23  C   UNL     1      -2.486  12.095  19.531  0.00  0.00    +0.000 A 
ATOM     24  C   UNL     1      -3.309  12.680  20.517  0.00  0.00    +0.000 A 
ATOM     25  C   UNL     1      -4.693  12.693  20.374  0.00  0.00    +0.000 A 
ATOM     26 CL   UNL     1      -5.687  13.355  21.607  0.00  0.00    +0.000 Cl
ATOM     27  C   UNL     1      -5.276  12.185  19.230  0.00  0.00    +0.000 A 
ATOM     28  C   UNL     1      -4.470  11.638  18.235  0.00  0.00    +0.000 A 
ATOM     29  C   UNL     1      -3.070  11.520  18.382  0.00  0.00    +0.000 A 
BRANCH  29  30
ATOM     30  O   UNL     1      -2.329  10.809  17.449  0.00  0.00    +0.000 OA
BRANCH  30  31
ATOM     31  C   UNL     1      -2.677  11.107  16.077  0.00  0.00    +0.000 C 
ATOM     32  C   UNL     1      -2.975   9.892  15.219  0.00  0.00    +0.000 C 
ENDBRANCH  30  31
ENDBRANCH  29  30
ENDBRANCH  20  23
ENDBRANCH   4  20
TORSDOF 8
ENDMDL
MODEL 2
REMARK VINA RESULT:      -6.8      1.310      2.516
REMARK  Name = 
REMARK  10 active torsions:
REMARK  status: ('A' for Active; 'I' for Inactive)
REMARK    1  A    between atoms: C_1  and  C_2
REMARK    2  A    between atoms: C_2  and  O_3
REMARK    3  A    between atoms: O_3  and  C_4
REMARK    4  A    between atoms: C_4  and  C_6
REMARK    5  A    between atoms: C_10  and  C_12
REMARK    6  A    between atoms: N_15  and  S_16
REMARK    7  A    between atoms: S_16  and  C_19
REMARK    8  A    between atoms: C_25  and  O_26
REMARK    9  A    between atoms: O_26  and  C_27
REMARK   10  A    between atoms: C_27  and  C_28
REMARK                            x       y       z     vdW  Elec       q    Type
REMARK                         _______ _______ _______ _____ _____    ______ ____
ROOT
ATOM      1  C   UNL     1       1.114   8.574  21.152  0.00  0.00    +0.000 C 
ATOM      2  C   UNL     1      -0.403   8.599  21.279  0.00  0.00    +0.000 C 
ATOM      3  C   UNL     1      -1.080   9.678  20.462  0.00  0.00    +0.000 C 
ATOM      4  N   UNL     1      -0.521  11.036  20.628  0.00  0.00    +0.000 NA
ATOM      5  C   UNL     1       0.973  11.125  20.764  0.00  0.00    +0.000 C 
ATOM      6  C   UNL     1       1.622   9.972  21.532  0.00  0.00    +0.000 C 
ENDROOT
BRANCH   1  11
ATOM      7  C   UNL     1       1.900   3.837  19.071  0.00  0.00    +0.000 C 
ATOM      8  C   UNL     1       2.096   4.901  17.976  0.00  0.00    +0.000 C 
ATOM      9  C   UNL     1       2.691   6.214  18.495  0.00  0.00    +0.000 C 
ATOM     10  N   UNL     1       1.995   6.696  19.697  0.00  0.00    +0.000 N 
ATOM     11  C   UNL     1       1.667   8.058  19.803  0.00  0.00    +0.000 C 
ATOM     12  O   UNL     1       1.857   8.835  18.882  0.00  0.00    +0.000 OA
ATOM     13  C   UNL     1       1.936   5.705  20.770  0.00  0.00    +0.000 C 
ATOM     14  C   UNL     1       1.182   4.470  20.276  0.00  0.00    +0.000 C 
BRANCH   7  15
ATOM     15  C   UNL     1       3.170   3.141  19.550  0.00  0.00    +0.000 C 
ATOM     16  O   UNL     1       3.237   2.525  20.610  0.00  0.00    +0.000 OA
BRANCH  15  17
ATOM     17  O   UNL     1       4.186   3.234  18.656  0.00  0.00    +0.000 OA
BRANCH  17  19
ATOM     18  C   UNL     1       6.051   4.630  17.977  0.00  0.00    +0.000 C 
ATOM     19  C   UNL     1       5.358   3.924  19.129  0.00  0.00    +0.000 C 
ENDBRANCH  17  19
ENDBRANCH  15  17
ENDBRANCH   7  15
ENDBRANCH   1  11
BRANCH   4  20
ATOM     20  S   UNL     1      -1.101  12.102  19.362  0.00  0.00    +0.000 S 
ATOM     21  O   UNL     1      -0.433  13.370  19.551  0.00  0.00    +0.000 OA
ATOM     22  O   UNL     1      -0.984  11.408  18.098  0.00  0.00    +0.000 OA
BRANCH  20  23
ATOM     23  C   UNL     1      -2.835  12.354  19.742  0.00  0.00    +0.000 A 
ATOM     24  C   UNL     1      -3.728  11.823  18.787  0.00  0.00    +0.000 A 
ATOM     25  C   UNL     1      -5.103  11.863  18.997  0.00  0.00    +0.000 A 
ATOM     26 CL   UNL     1      -6.182  11.267  17.803  0.00  0.00    +0.000 Cl
ATOM     27  C   UNL     1      -5.608  12.373  20.178  0.00  0.00    +0.000 A 
ATOM     28  C   UNL     1      -4.733  12.867  21.141  0.00  0.00    +0.000 A 
ATOM     29  C   UNL     1      -3.338  12.930  20.928  0.00  0.00    +0.000 A 
BRANCH  29  30
ATOM     30  O   UNL     1      -2.525  13.592  21.836  0.00  0.00    +0.000 OA
BRANCH  30  31
ATOM     31  C   UNL     1      -2.650  13.108  23.193  0.00  0.00    +0.000 C 
ATOM     32  C   UNL     1      -2.171  11.685  23.407  0.00  0.00    +0.000 C 
ENDBRANCH  30  31
ENDBRANCH  29  30
ENDBRANCH  20  23
ENDBRANCH   4  20
TORSDOF 8
ENDMDL
MODEL 3
REMARK VINA RESULT:      -6.7      2.199      3.853
REMARK  Name = 
REMARK  10 active torsions:
REMARK  status: ('A' for Active; 'I' for Inactive)
REMARK    1  A    between atoms: C_1  and  C_2
REMARK    2  A    between atoms: C_2  and  O_3
REMARK    3  A    between atoms: O_3  and  C_4
REMARK    4  A    between atoms: C_4  and  C_6
REMARK    5  A    between atoms: C_10  and  C_12
REMARK    6  A    between atoms: N_15  and  S_16
REMARK    7  A    between atoms: S_16  and  C_19
REMARK    8  A    between atoms: C_25  and  O_26
REMARK    9  A    between atoms: O_26  and  C_27
REMARK   10  A    between atoms: C_27  and  C_28
REMARK                            x       y       z     vdW  Elec       q    Type
REMARK                         _______ _______ _______ _____ _____    ______ ____
ROOT
ATOM      1  C   UNL     1       1.456   9.528  18.072  0.00  0.00    +0.000 C 
ATOM      2  C   UNL     1       1.971  10.925  18.390  0.00  0.00    +0.000 C 
ATOM      3  C   UNL     1       1.257  11.607  19.537  0.00  0.00    +0.000 C 
ATOM      4  N   UNL     1      -0.218  11.603  19.452  0.00  0.00    +0.000 NA
ATOM      5  C   UNL     1      -0.847  10.348  18.912  0.00  0.00    +0.000 C 
ATOM      6  C   UNL     1      -0.051   9.651  17.807  0.00  0.00    +0.000 C 
ENDROOT
BRANCH   1  11
ATOM      7  C   UNL     1       4.796   5.500  18.127  0.00  0.00    +0.000 C 
ATOM      8  C   UNL     1       4.227   5.693  19.543  0.00  0.00    +0.000 C 
ATOM      9  C   UNL     1       2.777   6.187  19.560  0.00  0.00    +0.000 C 
ATOM     10  N   UNL     1       2.574   7.331  18.659  0.00  0.00    +0.000 N 
ATOM     11  C   UNL     1       1.817   8.429  19.100  0.00  0.00    +0.000 C 
ATOM     12  O   UNL     1       1.404   8.502  20.245  0.00  0.00    +0.000 OA
ATOM     13  C   UNL     1       3.009   7.073  17.287  0.00  0.00    +0.000 C 
ATOM     14  C   UNL     1       4.503   6.752  17.282  0.00  0.00    +0.000 C 
BRANCH   7  15
ATOM     15  C   UNL     1       4.305   4.263  17.381  0.00  0.00    +0.000 C 
ATOM     16  O   UNL     1       4.509   4.077  16.185  0.00  0.00    +0.000 OA
BRANCH  15  17
ATOM     17  O   UNL     1       3.672   3.380  18.194  0.00  0.00    +0.000 OA
BRANCH  17  19
ATOM     18  C   UNL     1       1.334   2.858  18.583  0.00  0.00    +0.000 C 
ATOM     19  C   UNL     1       2.509   2.749  17.626  0.00  0.00    +0.000 C 
ENDBRANCH  17  19
ENDBRANCH  15  17
ENDBRANCH   7  15
ENDBRANCH   1  11
BRANCH   4  20
ATOM     20  S   UNL     1      -0.928  12.048  20.992  0.00  0.00    +0.000 S 
ATOM     21  O   UNL     1      -0.889  10.865  21.823  0.00  0.00    +0.000 OA
ATOM     22  O   UNL     1      -0.296  13.267  21.446  0.00  0.00    +0.000 OA
BRANCH  20  23
ATOM     23  C   UNL     1      -2.650  12.376  20.619  0.00  0.00    +0.000 A 
ATOM     24  C   UNL     1      -3.040  12.041  19.304  0.00  0.00    +0.000 A 
ATOM     25  C   UNL     1      -4.369  12.155  18.904  0.00  0.00    +0.000 A 
ATOM     26 CL   UNL     1      -4.822  11.800  17.287  0.00  0.00    +0.000 Cl
ATOM     27  C   UNL     1      -5.334  12.542  19.813  0.00  0.00    +0.000 A 
ATOM     28  C   UNL     1      -4.965  12.840  21.122  0.00  0.00    +0.000 A 
ATOM     29  C   UNL     1      -3.617  12.827  21.543  0.00  0.00    +0.000 A 
BRANCH  29  30
ATOM     30  O   UNL     1      -3.277  13.303  22.801  0.00  0.00    +0.000 OA
BRANCH  30  31
ATOM     31  C   UNL     1      -3.349  12.303  23.843  0.00  0.00    +0.000 C 
ATOM     32  C   UNL     1      -4.557  12.419  24.753  0.00  0.00    +0.000 C 
ENDBRANCH  30  31
ENDBRANCH  29  30
ENDBRANCH  20  23
ENDBRANCH   4  20
TORSDOF 8
ENDMDL
MODEL 4
REMARK VINA RESULT:      -6.6      2.834      3.820
REMARK  Name = 
REMARK  10 active torsions:
REMARK  status: ('A' for Active; 'I' for Inactive)
REMARK    1  A    between atoms: C_1  and  C_2
REMARK    2  A    between atoms: C_2  and  O_3
REMARK    3  A    between atoms: O_3  and  C_4
REMARK    4  A    between atoms: C_4  and  C_6
REMARK    5  A    between atoms: C_10  and  C_12
REMARK    6  A    between atoms: N_15  and  S_16
REMARK    7  A    between atoms: S_16  and  C_19
REMARK    8  A    between atoms: C_25  and  O_26
REMARK    9  A    between atoms: O_26  and  C_27
REMARK   10  A    between atoms: C_27  and  C_28
REMARK                            x       y       z     vdW  Elec       q    Type
REMARK                         _______ _______ _______ _____ _____    ______ ____
ROOT
ATOM      1  C   UNL     1       0.650   8.943  18.975  0.00  0.00    +0.000 C 
ATOM      2  C   UNL     1      -0.314  10.021  18.498  0.00  0.00    +0.000 C 
ATOM      3  C   UNL     1       0.171  11.437  18.724  0.00  0.00    +0.000 C 
ATOM      4  N   UNL     1       0.643  11.729  20.093  0.00  0.00    +0.000 NA
ATOM      5  C   UNL     1       1.410  10.632  20.778  0.00  0.00    +0.000 C 
ATOM      6  C   UNL     1       0.932   9.214  20.459  0.00  0.00    +0.000 C 
ENDROOT
BRANCH   1  11
ATOM      7  C   UNL     1       3.832   4.921  17.930  0.00  0.00    +0.000 C 
ATOM      8  C   UNL     1       4.189   6.093  17.000  0.00  0.00    +0.000 C 
ATOM      9  C   UNL     1       3.993   7.470  17.643  0.00  0.00    +0.000 C 
ATOM     10  N   UNL     1       2.683   7.590  18.299  0.00  0.00    +0.000 N 
ATOM     11  C   UNL     1       1.929   8.761  18.123  0.00  0.00    +0.000 C 
ATOM     12  O   UNL     1       2.288   9.644  17.362  0.00  0.00    +0.000 OA
ATOM     13  C   UNL     1       2.424   6.530  19.273  0.00  0.00    +0.000 C 
ATOM     14  C   UNL     1       2.453   5.175  18.566  0.00  0.00    +0.000 C 
BRANCH   7  15
ATOM     15  C   UNL     1       4.845   4.617  19.029  0.00  0.00    +0.000 C 
ATOM     16  O   UNL     1       4.933   3.521  19.575  0.00  0.00    +0.000 OA
BRANCH  15  17
ATOM     17  O   UNL     1       5.663   5.668  19.291  0.00  0.00    +0.000 OA
BRANCH  17  19
ATOM     18  C   UNL     1       7.572   5.002  17.949  0.00  0.00    +0.000 C 
ATOM     19  C   UNL     1       7.067   5.355  19.338  0.00  0.00    +0.000 C 
ENDBRANCH  17  19
ENDBRANCH  15  17
ENDBRANCH   7  15
ENDBRANCH   1  11
BRANCH   4  20
ATOM     20  S   UNL     1       1.537  13.236  20.131  0.00  0.00    +0.000 S 
ATOM     21  O   UNL     1       2.328  13.220  21.341  0.00  0.00    +0.000 OA
ATOM     22  O   UNL     1       2.187  13.409  18.849  0.00  0.00    +0.000 OA
BRANCH  20  23
ATOM     23  C   UNL     1       0.283  14.501  20.335  0.00  0.00    +0.000 A 
ATOM     24  C   UNL     1       0.200  15.423  19.270  0.00  0.00    +0.000 A 
ATOM     25  C   UNL     1      -0.789  16.402  19.250  0.00  0.00    +0.000 A 
ATOM     26 CL   UNL     1      -0.845  17.555  17.978  0.00  0.00    +0.000 Cl
ATOM     27  C   UNL     1      -1.742  16.444  20.249  0.00  0.00    +0.000 A 
ATOM     28  C   UNL     1      -1.690  15.516  21.285  0.00  0.00    +0.000 A 
ATOM     29  C   UNL     1      -0.650  14.567  21.393  0.00  0.00    +0.000 A 
BRANCH  29  30
ATOM     30  O   UNL     1      -0.538  13.783  22.532  0.00  0.00    +0.000 OA
BRANCH  30  31
ATOM     31  C   UNL     1      -1.692  12.949  22.784  0.00  0.00    +0.000 C 
ATOM     32  C   UNL     1      -1.375  11.490  23.052  0.00  0.00    +0.000 C 
ENDBRANCH  30  31
ENDBRANCH  29  30
ENDBRANCH  20  23
ENDBRANCH   4  20
TORSDOF 8
ENDMDL
MODEL 5
REMARK VINA RESULT:      -6.6      3.139      4.700
REMARK  Name = 
REMARK  10 active torsions:
REMARK  status: ('A' for Active; 'I' for Inactive)
REMARK    1  A    between atoms: C_1  and  C_2
REMARK    2  A    between atoms: C_2  and  O_3
REMARK    3  A    between atoms: O_3  and  C_4
REMARK    4  A    between atoms: C_4  and  C_6
REMARK    5  A    between atoms: C_10  and  C_12
REMARK    6  A    between atoms: N_15  and  S_16
REMARK    7  A    between atoms: S_16  and  C_19
REMARK    8  A    between atoms: C_25  and  O_26
REMARK    9  A    between atoms: O_26  and  C_27
REMARK   10  A    between atoms: C_27  and  C_28
REMARK                            x       y       z     vdW  Elec       q    Type
REMARK                         _______ _______ _______ _____ _____    ______ ____
ROOT
ATOM      1  C   UNL     1       1.294   9.755  18.108  0.00  0.00    +0.000 C 
ATOM      2  C   UNL     1       1.932  11.110  18.382  0.00  0.00    +0.000 C 
ATOM      3  C   UNL     1       1.344  11.849  19.565  0.00  0.00    +0.000 C 
ATOM      4  N   UNL     1      -0.129  11.956  19.570  0.00  0.00    +0.000 NA
ATOM      5  C   UNL     1      -0.884  10.751  19.080  0.00  0.00    +0.000 C 
ATOM      6  C   UNL     1      -0.213   9.992  17.933  0.00  0.00    +0.000 C 
ENDROOT
BRANCH   1  11
ATOM      7  C   UNL     1       4.590   5.690  18.126  0.00  0.00    +0.000 C 
ATOM      8  C   UNL     1       4.009   5.867  19.540  0.00  0.00    +0.000 C 
ATOM      9  C   UNL     1       2.564   6.376  19.551  0.00  0.00    +0.000 C 
ATOM     10  N   UNL     1       2.383   7.537  18.668  0.00  0.00    +0.000 N 
ATOM     11  C   UNL     1       1.633   8.635  19.119  0.00  0.00    +0.000 C 
ATOM     12  O   UNL     1       1.209   8.694  20.262  0.00  0.00    +0.000 OA
ATOM     13  C   UNL     1       2.828   7.297  17.296  0.00  0.00    +0.000 C 
ATOM     14  C   UNL     1       4.319   6.960  17.300  0.00  0.00    +0.000 C 
BRANCH   7  15
ATOM     15  C   UNL     1       4.093   4.472  17.354  0.00  0.00    +0.000 C 
ATOM     16  O   UNL     1       3.251   3.696  17.796  0.00  0.00    +0.000 OA
BRANCH  15  17
ATOM     17  O   UNL     1       4.643   4.377  16.117  0.00  0.00    +0.000 OA
BRANCH  17  19
ATOM     18  C   UNL     1       6.722   4.580  14.881  0.00  0.00    +0.000 C 
ATOM     19  C   UNL     1       6.027   3.979  16.090  0.00  0.00    +0.000 C 
ENDBRANCH  17  19
ENDBRANCH  15  17
ENDBRANCH   7  15
ENDBRANCH   1  11
BRANCH   4  20
ATOM     20  S   UNL     1      -0.707  12.459  21.147  0.00  0.00    +0.000 S 
ATOM     21  O   UNL     1      -2.110  12.115  21.204  0.00  0.00    +0.000 OA
ATOM     22  O   UNL     1       0.201  11.942  22.148  0.00  0.00    +0.000 OA
BRANCH  20  23
ATOM     23  C   UNL     1      -0.602  14.249  21.119  0.00  0.00    +0.000 A 
ATOM     24  C   UNL     1      -0.595  14.816  19.826  0.00  0.00    +0.000 A 
ATOM     25  C   UNL     1      -0.611  16.197  19.654  0.00  0.00    +0.000 A 
ATOM     26 CL   UNL     1      -0.544  16.876  18.079  0.00  0.00    +0.000 Cl
ATOM     27  C   UNL     1      -0.694  17.031  20.752  0.00  0.00    +0.000 A 
ATOM     28  C   UNL     1      -0.737  16.479  22.030  0.00  0.00    +0.000 A 
ATOM     29  C   UNL     1      -0.629  15.089  22.253  0.00  0.00    +0.000 A 
BRANCH  29  30
ATOM     30  O   UNL     1      -0.495  14.599  23.544  0.00  0.00    +0.000 OA
BRANCH  30  31
ATOM     31  C   UNL     1      -1.736  14.561  24.285  0.00  0.00    +0.000 C 
ATOM     32  C   UNL     1      -1.749  15.402  25.547  0.00  0.00    +0.000 C 
ENDBRANCH  30  31
ENDBRANCH  29  30
ENDBRANCH  20  23
ENDBRANCH   4  20
TORSDOF 8
ENDMDL
MODEL 6
REMARK VINA RESULT:      -6.5      3.044      4.272
REMARK  Name = 
REMARK  10 active torsions:
REMARK  status: ('A' for Active; 'I' for Inactive)
REMARK    1  A    between atoms: C_1  and  C_2
REMARK    2  A    between atoms: C_2  and  O_3
REMARK    3  A    between atoms: O_3  and  C_4
REMARK    4  A    between atoms: C_4  and  C_6
REMARK    5  A    between atoms: C_10  and  C_12
REMARK    6  A    between atoms: N_15  and  S_16
REMARK    7  A    between atoms: S_16  and  C_19
REMARK    8  A    between atoms: C_25  and  O_26
REMARK    9  A    between atoms: O_26  and  C_27
REMARK   10  A    between atoms: C_27  and  C_28
REMARK                            x       y       z     vdW  Elec       q    Type
REMARK                         _______ _______ _______ _____ _____    ______ ____
ROOT
ATOM      1  C   UNL     1       0.560   9.232  18.942  0.00  0.00    +0.000 C 
ATOM      2  C   UNL     1      -0.324  10.341  18.387  0.00  0.00    +0.000 C 
ATOM      3  C   UNL     1       0.190  11.740  18.650  0.00  0.00    +0.000 C 
ATOM      4  N   UNL     1       0.559  12.020  20.053  0.00  0.00    +0.000 NA
ATOM      5  C   UNL     1       1.229  10.900  20.799  0.00  0.00    +0.000 C 
ATOM      6  C   UNL     1       0.729   9.498  20.444  0.00  0.00    +0.000 C 
ENDROOT
BRANCH   1  11
ATOM      7  C   UNL     1       3.528   5.045  17.918  0.00  0.00    +0.000 C 
ATOM      8  C   UNL     1       4.055   6.240  17.104  0.00  0.00    +0.000 C 
ATOM      9  C   UNL     1       3.899   7.586  17.818  0.00  0.00    +0.000 C 
ATOM     10  N   UNL     1       2.545   7.767  18.361  0.00  0.00    +0.000 N 
ATOM     11  C   UNL     1       1.897   9.003  18.197  0.00  0.00    +0.000 C 
ATOM     12  O   UNL     1       2.388   9.899  17.532  0.00  0.00    +0.000 OA
ATOM     13  C   UNL     1       2.119   6.675  19.235  0.00  0.00    +0.000 C 
ATOM     14  C   UNL     1       2.118   5.367  18.444  0.00  0.00    +0.000 C 
BRANCH   7  15
ATOM     15  C   UNL     1       4.409   4.597  19.080  0.00  0.00    +0.000 C 
ATOM     16  O   UNL     1       5.509   5.088  19.315  0.00  0.00    +0.000 OA
BRANCH  15  17
ATOM     17  O   UNL     1       3.819   3.643  19.845  0.00  0.00    +0.000 OA
BRANCH  17  19
ATOM     18  C   UNL     1       3.498   1.571  18.623  0.00  0.00    +0.000 C 
ATOM     19  C   UNL     1       4.328   2.309  19.660  0.00  0.00    +0.000 C 
ENDBRANCH  17  19
ENDBRANCH  15  17
ENDBRANCH   7  15
ENDBRANCH   1  11
BRANCH   4  20
ATOM     20  S   UNL     1       1.499  13.496  20.162  0.00  0.00    +0.000 S 
ATOM     21  O   UNL     1       2.102  13.507  21.476  0.00  0.00    +0.000 OA
ATOM     22  O   UNL     1       2.335  13.588  18.985  0.00  0.00    +0.000 OA
BRANCH  20  23
ATOM     23  C   UNL     1       0.281  14.812  20.128  0.00  0.00    +0.000 A 
ATOM     24  C   UNL     1       0.328  15.625  18.976  0.00  0.00    +0.000 A 
ATOM     25  C   UNL     1      -0.617  16.627  18.771  0.00  0.00    +0.000 A 
ATOM     26 CL   UNL     1      -0.516  17.648  17.395  0.00  0.00    +0.000 Cl
ATOM     27  C   UNL     1      -1.652  16.796  19.670  0.00  0.00    +0.000 A 
ATOM     28  C   UNL     1      -1.728  15.974  20.791  0.00  0.00    +0.000 A 
ATOM     29  C   UNL     1      -0.739  15.009  21.085  0.00  0.00    +0.000 A 
BRANCH  29  30
ATOM     30  O   UNL     1      -0.758  14.340  22.299  0.00  0.00    +0.000 OA
BRANCH  30  31
ATOM     31  C   UNL     1      -0.867  15.213  23.446  0.00  0.00    +0.000 C 
ATOM     32  C   UNL     1      -1.796  14.716  24.538  0.00  0.00    +0.000 C 
ENDBRANCH  30  31
ENDBRANCH  29  30
ENDBRANCH  20  23
ENDBRANCH   4  20
TORSDOF 8
ENDMDL
MODEL 7
REMARK VINA RESULT:      -6.5      1.664      2.723
REMARK  Name = 
REMARK  10 active torsions:
REMARK  status: ('A' for Active; 'I' for Inactive)
REMARK    1  A    between atoms: C_1  and  C_2
REMARK    2  A    between atoms: C_2  and  O_3
REMARK    3  A    between atoms: O_3  and  C_4
REMARK    4  A    between atoms: C_4  and  C_6
REMARK    5  A    between atoms: C_10  and  C_12
REMARK    6  A    between atoms: N_15  and  S_16
REMARK    7  A    between atoms: S_16  and  C_19
REMARK    8  A    between atoms: C_25  and  O_26
REMARK    9  A    between atoms: O_26  and  C_27
REMARK   10  A    between atoms: C_27  and  C_28
REMARK                            x       y       z     vdW  Elec       q    Type
REMARK                         _______ _______ _______ _____ _____    ______ ____
ROOT
ATOM      1  C   UNL     1       0.959   8.200  21.129  0.00  0.00    +0.000 C 
ATOM      2  C   UNL     1      -0.537   8.476  21.058  0.00  0.00    +0.000 C 
ATOM      3  C   UNL     1      -0.894   9.854  20.544  0.00  0.00    +0.000 C 
ATOM      4  N   UNL     1      -0.188  10.973  21.202  0.00  0.00    +0.000 NA
ATOM      5  C   UNL     1       1.254  10.732  21.552  0.00  0.00    +0.000 C 
ATOM      6  C   UNL     1       1.581   9.304  21.994  0.00  0.00    +0.000 C 
ENDROOT
BRANCH   1  11
ATOM      7  C   UNL     1       3.088   4.106  18.660  0.00  0.00    +0.000 C 
ATOM      8  C   UNL     1       3.010   5.292  17.682  0.00  0.00    +0.000 C 
ATOM      9  C   UNL     1       3.202   6.655  18.354  0.00  0.00    +0.000 C 
ATOM     10  N   UNL     1       2.367   6.800  19.556  0.00  0.00    +0.000 N 
ATOM     11  C   UNL     1       1.670   8.000  19.770  0.00  0.00    +0.000 C 
ATOM     12  O   UNL     1       1.661   8.892  18.938  0.00  0.00    +0.000 OA
ATOM     13  C   UNL     1       2.556   5.722  20.526  0.00  0.00    +0.000 C 
ATOM     14  C   UNL     1       2.189   4.387  19.878  0.00  0.00    +0.000 C 
BRANCH   7  15
ATOM     15  C   UNL     1       4.487   3.738  19.142  0.00  0.00    +0.000 C 
ATOM     16  O   UNL     1       4.698   2.892  20.006  0.00  0.00    +0.000 OA
BRANCH  15  17
ATOM     17  O   UNL     1       5.462   4.405  18.474  0.00  0.00    +0.000 OA
BRANCH  17  19
ATOM     18  C   UNL     1       7.622   5.502  18.618  0.00  0.00    +0.000 C 
ATOM     19  C   UNL     1       6.276   5.274  19.284  0.00  0.00    +0.000 C 
ENDBRANCH  17  19
ENDBRANCH  15  17
ENDBRANCH   7  15
ENDBRANCH   1  11
BRANCH   4  20
ATOM     20  S   UNL     1      -0.369  12.449  20.274  0.00  0.00    +0.000 S 
ATOM     21  O   UNL     1      -0.451  13.532  21.228  0.00  0.00    +0.000 OA
ATOM     22  O   UNL     1       0.653  12.469  19.249  0.00  0.00    +0.000 OA
BRANCH  20  23
ATOM     23  C   UNL     1      -1.981  12.303  19.501  0.00  0.00    +0.000 A 
ATOM     24  C   UNL     1      -1.963  11.732  18.210  0.00  0.00    +0.000 A 
ATOM     25  C   UNL     1      -3.149  11.472  17.529  0.00  0.00    +0.000 A 
ATOM     26 CL   UNL     1      -3.113  10.831  15.937  0.00  0.00    +0.000 Cl
ATOM     27  C   UNL     1      -4.364  11.716  18.138  0.00  0.00    +0.000 A 
ATOM     28  C   UNL     1      -4.392  12.246  19.426  0.00  0.00    +0.000 A 
ATOM     29  C   UNL     1      -3.215  12.611  20.114  0.00  0.00    +0.000 A 
BRANCH  29  30
ATOM     30  O   UNL     1      -3.295  13.299  21.316  0.00  0.00    +0.000 OA
BRANCH  30  31
ATOM     31  C   UNL     1      -3.915  12.543  22.381  0.00  0.00    +0.000 C 
ATOM     32  C   UNL     1      -3.388  12.851  23.769  0.00  0.00    +0.000 C 
ENDBRANCH  30  31
ENDBRANCH  29  30
ENDBRANCH  20  23
ENDBRANCH   4  20
TORSDOF 8
ENDMDL
MODEL 8
REMARK VINA RESULT:      -6.4      3.227      4.949
REMARK  Name = 
REMARK  10 active torsions:
REMARK  status: ('A' for Active; 'I' for Inactive)
REMARK    1  A    between atoms: C_1  and  C_2
REMARK    2  A    between atoms: C_2  and  O_3
REMARK    3  A    between atoms: O_3  and  C_4
REMARK    4  A    between atoms: C_4  and  C_6
REMARK    5  A    between atoms: C_10  and  C_12
REMARK    6  A    between atoms: N_15  and  S_16
REMARK    7  A    between atoms: S_16  and  C_19
REMARK    8  A    between atoms: C_25  and  O_26
REMARK    9  A    between atoms: O_26  and  C_27
REMARK   10  A    between atoms: C_27  and  C_28
REMARK                            x       y       z     vdW  Elec       q    Type
REMARK                         _______ _______ _______ _____ _____    ______ ____
ROOT
ATOM      1  C   UNL     1       1.325   9.491  18.017  0.00  0.00    +0.000 C 
ATOM      2  C   UNL     1       2.102  10.801  17.993  0.00  0.00    +0.000 C 
ATOM      3  C   UNL     1       1.689  11.791  19.060  0.00  0.00    +0.000 C 
ATOM      4  N   UNL     1       0.237  12.048  19.151  0.00  0.00    +0.000 NA
ATOM      5  C   UNL     1      -0.661  10.860  18.945  0.00  0.00    +0.000 C 
ATOM      6  C   UNL     1      -0.164   9.847  17.912  0.00  0.00    +0.000 C 
ENDROOT
BRANCH   1  11
ATOM      7  C   UNL     1       4.152   5.115  18.517  0.00  0.00    +0.000 C 
ATOM      8  C   UNL     1       3.753   5.613  19.917  0.00  0.00    +0.000 C 
ATOM      9  C   UNL     1       2.381   6.293  19.960  0.00  0.00    +0.000 C 
ATOM     10  N   UNL     1       2.227   7.290  18.891  0.00  0.00    +0.000 N 
ATOM     11  C   UNL     1       1.653   8.537  19.190  0.00  0.00    +0.000 C 
ATOM     12  O   UNL     1       1.368   8.852  20.333  0.00  0.00    +0.000 OA
ATOM     13  C   UNL     1       2.489   6.755  17.556  0.00  0.00    +0.000 C 
ATOM     14  C   UNL     1       3.927   6.241  17.491  0.00  0.00    +0.000 C 
BRANCH   7  15
ATOM     15  C   UNL     1       3.445   3.850  18.039  0.00  0.00    +0.000 C 
ATOM     16  O   UNL     1       3.312   3.564  16.853  0.00  0.00    +0.000 OA
BRANCH  15  17
ATOM     17  O   UNL     1       3.034   3.063  19.065  0.00  0.00    +0.000 OA
BRANCH  17  19
ATOM     18  C   UNL     1       1.049   2.918  20.455  0.00  0.00    +0.000 C 
ATOM     19  C   UNL     1       1.631   2.737  19.064  0.00  0.00    +0.000 C 
ENDBRANCH  17  19
ENDBRANCH  15  17
ENDBRANCH   7  15
ENDBRANCH   1  11
BRANCH   4  20
ATOM     20  S   UNL     1      -0.152  12.876  20.647  0.00  0.00    +0.000 S 
ATOM     21  O   UNL     1      -1.594  12.910  20.740  0.00  0.00    +0.000 OA
ATOM     22  O   UNL     1       0.623  12.275  21.711  0.00  0.00    +0.000 OA
BRANCH  20  23
ATOM     23  C   UNL     1       0.402  14.562  20.389  0.00  0.00    +0.000 A 
ATOM     24  C   UNL     1      -0.230  15.230  19.319  0.00  0.00    +0.000 A 
ATOM     25  C   UNL     1       0.033  16.572  19.061  0.00  0.00    +0.000 A 
ATOM     26 CL   UNL     1      -0.697  17.358  17.721  0.00  0.00    +0.000 Cl
ATOM     27  C   UNL     1       0.875  17.284  19.893  0.00  0.00    +0.000 A 
ATOM     28  C   UNL     1       1.475  16.643  20.973  0.00  0.00    +0.000 A 
ATOM     29  C   UNL     1       1.309  15.262  21.214  0.00  0.00    +0.000 A 
BRANCH  29  30
ATOM     30  O   UNL     1       2.065  14.629  22.191  0.00  0.00    +0.000 OA
BRANCH  30  31
ATOM     31  C   UNL     1       3.402  15.161  22.330  0.00  0.00    +0.000 C 
ATOM     32  C   UNL     1       4.504  14.253  21.817  0.00  0.00    +0.000 C 
ENDBRANCH  30  31
ENDBRANCH  29  30
ENDBRANCH  20  23
ENDBRANCH   4  20
TORSDOF 8
ENDMDL
MODEL 9
REMARK VINA RESULT:      -6.4      2.443      3.708
REMARK  Name = 
REMARK  10 active torsions:
REMARK  status: ('A' for Active; 'I' for Inactive)
REMARK    1  A    between atoms: C_1  and  C_2
REMARK    2  A    between atoms: C_2  and  O_3
REMARK    3  A    between atoms: O_3  and  C_4
REMARK    4  A    between atoms: C_4  and  C_6
REMARK    5  A    between atoms: C_10  and  C_12
REMARK    6  A    between atoms: N_15  and  S_16
REMARK    7  A    between atoms: S_16  and  C_19
REMARK    8  A    between atoms: C_25  and  O_26
REMARK    9  A    between atoms: O_26  and  C_27
REMARK   10  A    between atoms: C_27  and  C_28
REMARK                            x       y       z     vdW  Elec       q    Type
REMARK                         _______ _______ _______ _____ _____    ______ ____
ROOT
ATOM      1  C   UNL     1       1.078   9.779  18.415  0.00  0.00    +0.000 C 
ATOM      2  C   UNL     1       1.842  11.089  18.558  0.00  0.00    +0.000 C 
ATOM      3  C   UNL     1       1.471  11.898  19.781  0.00  0.00    +0.000 C 
ATOM      4  N   UNL     1       0.022  12.117  19.974  0.00  0.00    +0.000 NA
ATOM      5  C   UNL     1      -0.875  10.961  19.628  0.00  0.00    +0.000 C 
ATOM      6  C   UNL     1      -0.417  10.125  18.430  0.00  0.00    +0.000 C 
ENDROOT
BRANCH   1  11
ATOM      7  C   UNL     1       4.354   5.701  18.273  0.00  0.00    +0.000 C 
ATOM      8  C   UNL     1       3.852   5.885  19.715  0.00  0.00    +0.000 C 
ATOM      9  C   UNL     1       2.411   6.401  19.802  0.00  0.00    +0.000 C 
ATOM     10  N   UNL     1       2.187   7.559  18.925  0.00  0.00    +0.000 N 
ATOM     11  C   UNL     1       1.467   8.662  19.412  0.00  0.00    +0.000 C 
ATOM     12  O   UNL     1       1.106   8.727  20.575  0.00  0.00    +0.000 OA
ATOM     13  C   UNL     1       2.556   7.311  17.532  0.00  0.00    +0.000 C 
ATOM     14  C   UNL     1       4.044   6.969  17.457  0.00  0.00    +0.000 C 
BRANCH   7  15
ATOM     15  C   UNL     1       3.811   4.481  17.534  0.00  0.00    +0.000 C 
ATOM     16  O   UNL     1       4.071   4.238  16.360  0.00  0.00    +0.000 OA
BRANCH  15  17
ATOM     17  O   UNL     1       3.061   3.679  18.332  0.00  0.00    +0.000 OA
BRANCH  17  19
ATOM     18  C   UNL     1       0.978   2.548  18.853  0.00  0.00    +0.000 C 
ATOM     19  C   UNL     1       1.724   3.426  17.862  0.00  0.00    +0.000 C 
ENDBRANCH  17  19
ENDBRANCH  15  17
ENDBRANCH   7  15
ENDBRANCH   1  11
BRANCH   4  20
ATOM     20  S   UNL     1      -0.304  12.701  21.594  0.00  0.00    +0.000 S 
ATOM     21  O   UNL     1      -0.556  11.535  22.412  0.00  0.00    +0.000 OA
ATOM     22  O   UNL     1       0.747  13.624  21.963  0.00  0.00    +0.000 OA
BRANCH  20  23
ATOM     23  C   UNL     1      -1.854  13.592  21.452  0.00  0.00    +0.000 A 
ATOM     24  C   UNL     1      -2.919  13.038  22.193  0.00  0.00    +0.000 A 
ATOM     25  C   UNL     1      -4.155  13.677  22.251  0.00  0.00    +0.000 A 
ATOM     26 CL   UNL     1      -5.461  12.966  23.108  0.00  0.00    +0.000 Cl
ATOM     27  C   UNL     1      -4.333  14.896  21.627  0.00  0.00    +0.000 A 
ATOM     28  C   UNL     1      -3.277  15.468  20.923  0.00  0.00    +0.000 A 
ATOM     29  C   UNL     1      -2.038  14.810  20.762  0.00  0.00    +0.000 A 
BRANCH  29  30
ATOM     30  O   UNL     1      -1.079  15.331  19.906  0.00  0.00    +0.000 OA
BRANCH  30  31
ATOM     31  C   UNL     1      -1.312  16.709  19.537  0.00  0.00    +0.000 C 
ATOM     32  C   UNL     1      -0.661  17.138  18.236  0.00  0.00    +0.000 C 
ENDBRANCH  30  31
ENDBRANCH  29  30
ENDBRANCH  20  23
ENDBRANCH   4  20
TORSDOF 8
ENDMDL
