MODEL 1
REMARK VINA RESULT:      -7.7      0.000      0.000
REMARK  Name = 
REMARK  4 active torsions:
REMARK  status: ('A' for Active; 'I' for Inactive)
REMARK    1  A    between atoms: N_1  and  C_2
REMARK    2  A    between atoms: N_8  and  C_9
REMARK    3  A    between atoms: C_9  and  C_10
REMARK    4  A    between atoms: N_16  and  O_17
REMARK                            x       y       z     vdW  Elec       q    Type
REMARK                         _______ _______ _______ _____ _____    ______ ____
ROOT
ATOM      1  C   UNL     1       6.934   4.727  19.280  0.00  0.00    +0.000 C 
ATOM      2  C   UNL     1       5.487   5.279  19.312  0.00  0.00    +0.000 C 
ATOM      3  C   UNL     1       5.128   5.949  18.050  0.00  0.00    +0.000 A 
ATOM      4  C   UNL     1       5.850   5.919  16.894  0.00  0.00    +0.000 A 
ATOM      5  C   UNL     1       5.080   6.615  15.951  0.00  0.00    +0.000 A 
ATOM      6  N   UNL     1       3.940   7.070  16.483  0.00  0.00    +0.000 NA
ATOM      7  N   UNL     1       3.986   6.651  17.770  0.00  0.00    +0.000 N 
ATOM      8  N   UNL     1       7.057   5.278  16.822  0.00  0.00    +0.000 N 
ATOM      9  C   UNL     1       7.659   4.641  17.885  0.00  0.00    +0.000 C 
ATOM     10  O   UNL     1       8.740   4.047  17.781  0.00  0.00    +0.000 OA
ENDROOT
BRANCH   1  11
ATOM     11  N   UNL     1       7.791   5.440  20.254  0.00  0.00    +0.000 NA
ATOM     12  H   UNL     1       8.102   6.330  19.872  0.00  0.00    +0.000 HD
ATOM     13  H   UNL     1       8.634   4.889  20.441  0.00  0.00    +0.000 HD
ENDBRANCH   1  11
BRANCH   8  14
ATOM     14  O   UNL     1       7.611   5.151  15.532  0.00  0.00    +0.000 OA
ATOM     15  H   UNL     1       6.961   4.579  15.091  0.00  0.00    +0.000 HD
ENDBRANCH   8  14
BRANCH   7  16
ATOM     16  C   UNL     1       2.836   6.872  18.641  0.00  0.00    +0.000 C 
BRANCH  16  17
ATOM     17  C   UNL     1       2.147   5.583  19.019  0.00  0.00    +0.000 A 
ATOM     18  C   UNL     1       1.821   4.633  18.039  0.00  0.00    +0.000 A 
ATOM     19  C   UNL     1       1.218   3.426  18.391  0.00  0.00    +0.000 A 
ATOM     20  C   UNL     1       0.932   3.152  19.727  0.00  0.00    +0.000 A 
ATOM     21  C   UNL     1       1.252   4.086  20.712  0.00  0.00    +0.000 A 
ATOM     22  C   UNL     1       1.857   5.295  20.361  0.00  0.00    +0.000 A 
ENDBRANCH  16  17
ENDBRANCH   7  16
TORSDOF 4
ENDMDL
MODEL 2
REMARK VINA RESULT:      -7.7      0.114      1.113
REMARK  Name = 
REMARK  4 active torsions:
REMARK  status: ('A' for Active; 'I' for Inactive)
REMARK    1  A    between atoms: N_1  and  C_2
REMARK    2  A    between atoms: N_8  and  C_9
REMARK    3  A    between atoms: C_9  and  C_10
REMARK    4  A    between atoms: N_16  and  O_17
REMARK                            x       y       z     vdW  Elec       q    Type
REMARK                         _______ _______ _______ _____ _____    ______ ____
ROOT
ATOM      1  C   UNL     1       6.897   4.682  19.242  0.00  0.00    +0.000 C 
ATOM      2  C   UNL     1       5.443   5.213  19.306  0.00  0.00    +0.000 C 
ATOM      3  C   UNL     1       5.074   5.949  18.085  0.00  0.00    +0.000 A 
ATOM      4  C   UNL     1       5.795   5.995  16.929  0.00  0.00    +0.000 A 
ATOM      5  C   UNL     1       5.015   6.734  16.028  0.00  0.00    +0.000 A 
ATOM      6  N   UNL     1       3.869   7.143  16.585  0.00  0.00    +0.000 NA
ATOM      7  N   UNL     1       3.922   6.650  17.846  0.00  0.00    +0.000 N 
ATOM      8  N   UNL     1       7.010   5.376  16.820  0.00  0.00    +0.000 N 
ATOM      9  C   UNL     1       7.622   4.686  17.845  0.00  0.00    +0.000 C 
ATOM     10  O   UNL     1       8.710   4.114  17.707  0.00  0.00    +0.000 OA
ENDROOT
BRANCH   1  11
ATOM     11  N   UNL     1       7.745   5.350  20.255  0.00  0.00    +0.000 NA
ATOM     12  H   UNL     1       7.866   6.334  20.029  0.00  0.00    +0.000 HD
ATOM     13  H   UNL     1       8.681   4.932  20.253  0.00  0.00    +0.000 HD
ENDBRANCH   1  11
BRANCH   8  14
ATOM     14  O   UNL     1       7.565   5.329  15.525  0.00  0.00    +0.000 OA
ATOM     15  H   UNL     1       7.050   4.616  15.112  0.00  0.00    +0.000 HD
ENDBRANCH   8  14
BRANCH   7  16
ATOM     16  C   UNL     1       2.770   6.806  18.728  0.00  0.00    +0.000 C 
BRANCH  16  17
ATOM     17  C   UNL     1       2.136   5.483  19.081  0.00  0.00    +0.000 A 
ATOM     18  C   UNL     1       1.832   5.170  20.415  0.00  0.00    +0.000 A 
ATOM     19  C   UNL     1       1.212   3.964  20.739  0.00  0.00    +0.000 A 
ATOM     20  C   UNL     1       0.888   3.053  19.734  0.00  0.00    +0.000 A 
ATOM     21  C   UNL     1       1.183   3.352  18.405  0.00  0.00    +0.000 A 
ATOM     22  C   UNL     1       1.802   4.560  18.078  0.00  0.00    +0.000 A 
ENDBRANCH  16  17
ENDBRANCH   7  16
TORSDOF 4
ENDMDL
MODEL 3
REMARK VINA RESULT:      -7.1      1.313      1.620
REMARK  Name = 
REMARK  4 active torsions:
REMARK  status: ('A' for Active; 'I' for Inactive)
REMARK    1  A    between atoms: N_1  and  C_2
REMARK    2  A    between atoms: N_8  and  C_9
REMARK    3  A    between atoms: C_9  and  C_10
REMARK    4  A    between atoms: N_16  and  O_17
REMARK                            x       y       z     vdW  Elec       q    Type
REMARK                         _______ _______ _______ _____ _____    ______ ____
ROOT
ATOM      1  C   UNL     1       6.403   4.750  18.445  0.00  0.00    +0.000 C 
ATOM      2  C   UNL     1       5.076   4.997  19.205  0.00  0.00    +0.000 C 
ATOM      3  C   UNL     1       4.255   6.031  18.552  0.00  0.00    +0.000 A 
ATOM      4  C   UNL     1       4.477   6.571  17.321  0.00  0.00    +0.000 A 
ATOM      5  C   UNL     1       3.400   7.437  17.089  0.00  0.00    +0.000 A 
ATOM      6  N   UNL     1       2.548   7.454  18.120  0.00  0.00    +0.000 NA
ATOM      7  N   UNL     1       3.088   6.585  19.007  0.00  0.00    +0.000 N 
ATOM      8  N   UNL     1       5.568   6.220  16.573  0.00  0.00    +0.000 N 
ATOM      9  C   UNL     1       6.538   5.332  16.988  0.00  0.00    +0.000 C 
ATOM     10  O   UNL     1       7.499   5.014  16.278  0.00  0.00    +0.000 OA
ENDROOT
BRANCH   1  11
ATOM     11  N   UNL     1       7.563   5.165  19.265  0.00  0.00    +0.000 NA
ATOM     12  H   UNL     1       8.182   5.769  18.730  0.00  0.00    +0.000 HD
ATOM     13  H   UNL     1       8.113   4.342  19.529  0.00  0.00    +0.000 HD
ENDBRANCH   1  11
BRANCH   8  14
ATOM     14  O   UNL     1       5.585   6.694  15.246  0.00  0.00    +0.000 OA
ATOM     15  H   UNL     1       6.190   6.066  14.817  0.00  0.00    +0.000 HD
ENDBRANCH   8  14
BRANCH   7  16
ATOM     16  C   UNL     1       2.359   6.257  20.229  0.00  0.00    +0.000 C 
BRANCH  16  17
ATOM     17  C   UNL     1       1.931   4.810  20.270  0.00  0.00    +0.000 A 
ATOM     18  C   UNL     1       1.344   4.206  19.148  0.00  0.00    +0.000 A 
ATOM     19  C   UNL     1       0.982   2.860  19.172  0.00  0.00    +0.000 A 
ATOM     20  C   UNL     1       1.202   2.098  20.318  0.00  0.00    +0.000 A 
ATOM     21  C   UNL     1       1.787   2.685  21.440  0.00  0.00    +0.000 A 
ATOM     22  C   UNL     1       2.151   4.032  21.417  0.00  0.00    +0.000 A 
ENDBRANCH  16  17
ENDBRANCH   7  16
TORSDOF 4
ENDMDL
MODEL 4
REMARK VINA RESULT:      -7.1      1.321      1.945
REMARK  Name = 
REMARK  4 active torsions:
REMARK  status: ('A' for Active; 'I' for Inactive)
REMARK    1  A    between atoms: N_1  and  C_2
REMARK    2  A    between atoms: N_8  and  C_9
REMARK    3  A    between atoms: C_9  and  C_10
REMARK    4  A    between atoms: N_16  and  O_17
REMARK                            x       y       z     vdW  Elec       q    Type
REMARK                         _______ _______ _______ _____ _____    ______ ____
ROOT
ATOM      1  C   UNL     1       6.472   4.718  18.276  0.00  0.00    +0.000 C 
ATOM      2  C   UNL     1       5.178   4.957  19.093  0.00  0.00    +0.000 C 
ATOM      3  C   UNL     1       4.332   5.998  18.486  0.00  0.00    +0.000 A 
ATOM      4  C   UNL     1       4.503   6.552  17.252  0.00  0.00    +0.000 A 
ATOM      5  C   UNL     1       3.418   7.421  17.074  0.00  0.00    +0.000 A 
ATOM      6  N   UNL     1       2.610   7.427  18.141  0.00  0.00    +0.000 NA
ATOM      7  N   UNL     1       3.185   6.548  18.995  0.00  0.00    +0.000 N 
ATOM      8  N   UNL     1       5.562   6.208  16.456  0.00  0.00    +0.000 N 
ATOM      9  C   UNL     1       6.547   5.315  16.821  0.00  0.00    +0.000 C 
ATOM     10  O   UNL     1       7.478   5.005  16.068  0.00  0.00    +0.000 OA
ENDROOT
BRANCH   1  11
ATOM     11  N   UNL     1       7.666   5.123  19.052  0.00  0.00    +0.000 NA
ATOM     12  H   UNL     1       7.410   5.358  20.007  0.00  0.00    +0.000 HD
ATOM     13  H   UNL     1       8.076   5.968  18.641  0.00  0.00    +0.000 HD
ENDBRANCH   1  11
BRANCH   8  14
ATOM     14  O   UNL     1       5.525   6.697  15.134  0.00  0.00    +0.000 OA
ATOM     15  H   UNL     1       4.571   6.810  14.990  0.00  0.00    +0.000 HD
ENDBRANCH   8  14
BRANCH   7  16
ATOM     16  C   UNL     1       2.507   6.207  20.242  0.00  0.00    +0.000 C 
BRANCH  16  17
ATOM     17  C   UNL     1       2.038   4.773  20.265  0.00  0.00    +0.000 A 
ATOM     18  C   UNL     1       2.168   3.998  21.428  0.00  0.00    +0.000 A 
ATOM     19  C   UNL     1       1.701   2.684  21.463  0.00  0.00    +0.000 A 
ATOM     20  C   UNL     1       1.097   2.128  20.336  0.00  0.00    +0.000 A 
ATOM     21  C   UNL     1       0.960   2.887  19.175  0.00  0.00    +0.000 A 
ATOM     22  C   UNL     1       1.425   4.203  19.139  0.00  0.00    +0.000 A 
ENDBRANCH  16  17
ENDBRANCH   7  16
TORSDOF 4
ENDMDL
MODEL 5
REMARK VINA RESULT:      -7.0      2.069      3.211
REMARK  Name = 
REMARK  4 active torsions:
REMARK  status: ('A' for Active; 'I' for Inactive)
REMARK    1  A    between atoms: N_1  and  C_2
REMARK    2  A    between atoms: N_8  and  C_9
REMARK    3  A    between atoms: C_9  and  C_10
REMARK    4  A    between atoms: N_16  and  O_17
REMARK                            x       y       z     vdW  Elec       q    Type
REMARK                         _______ _______ _______ _____ _____    ______ ____
ROOT
ATOM      1  C   UNL     1       6.901   5.891  17.696  0.00  0.00    +0.000 C 
ATOM      2  C   UNL     1       5.682   5.992  18.646  0.00  0.00    +0.000 C 
ATOM      3  C   UNL     1       4.562   5.150  18.192  0.00  0.00    +0.000 A 
ATOM      4  C   UNL     1       4.613   4.215  17.201  0.00  0.00    +0.000 A 
ATOM      5  C   UNL     1       3.347   3.614  17.186  0.00  0.00    +0.000 A 
ATOM      6  N   UNL     1       2.535   4.146  18.106  0.00  0.00    +0.000 NA
ATOM      7  N   UNL     1       3.298   5.085  18.715  0.00  0.00    +0.000 N 
ATOM      8  N   UNL     1       5.752   4.008  16.472  0.00  0.00    +0.000 N 
ATOM      9  C   UNL     1       6.920   4.721  16.642  0.00  0.00    +0.000 C 
ATOM     10  O   UNL     1       7.943   4.492  15.985  0.00  0.00    +0.000 OA
ENDROOT
BRANCH   1  11
ATOM     11  N   UNL     1       7.149   7.185  17.020  0.00  0.00    +0.000 NA
ATOM     12  H   UNL     1       6.733   7.949  17.546  0.00  0.00    +0.000 HD
ATOM     13  H   UNL     1       6.703   7.185  16.098  0.00  0.00    +0.000 HD
ENDBRANCH   1  11
BRANCH   8  14
ATOM     14  O   UNL     1       5.742   2.889  15.616  0.00  0.00    +0.000 OA
ATOM     15  H   UNL     1       6.465   3.099  15.002  0.00  0.00    +0.000 HD
ENDBRANCH   8  14
BRANCH   7  16
ATOM     16  C   UNL     1       2.769   5.805  19.869  0.00  0.00    +0.000 C 
BRANCH  16  17
ATOM     17  C   UNL     1       2.242   7.170  19.501  0.00  0.00    +0.000 A 
ATOM     18  C   UNL     1       2.352   7.648  18.186  0.00  0.00    +0.000 A 
ATOM     19  C   UNL     1       1.833   8.894  17.836  0.00  0.00    +0.000 A 
ATOM     20  C   UNL     1       1.197   9.680  18.795  0.00  0.00    +0.000 A 
ATOM     21  C   UNL     1       1.079   9.217  20.105  0.00  0.00    +0.000 A 
ATOM     22  C   UNL     1       1.597   7.969  20.457  0.00  0.00    +0.000 A 
ENDBRANCH  16  17
ENDBRANCH   7  16
TORSDOF 4
ENDMDL
MODEL 6
REMARK VINA RESULT:      -7.0      4.867      6.347
REMARK  Name = 
REMARK  4 active torsions:
REMARK  status: ('A' for Active; 'I' for Inactive)
REMARK    1  A    between atoms: N_1  and  C_2
REMARK    2  A    between atoms: N_8  and  C_9
REMARK    3  A    between atoms: C_9  and  C_10
REMARK    4  A    between atoms: N_16  and  O_17
REMARK                            x       y       z     vdW  Elec       q    Type
REMARK                         _______ _______ _______ _____ _____    ______ ____
ROOT
ATOM      1  C   UNL     1       0.388   9.333  22.104  0.00  0.00    +0.000 C 
ATOM      2  C   UNL     1       1.399   8.351  21.459  0.00  0.00    +0.000 C 
ATOM      3  C   UNL     1       1.495   8.543  20.002  0.00  0.00    +0.000 A 
ATOM      4  C   UNL     1       0.962   9.577  19.293  0.00  0.00    +0.000 A 
ATOM      5  C   UNL     1       1.383   9.385  17.970  0.00  0.00    +0.000 A 
ATOM      6  N   UNL     1       2.132   8.283  17.845  0.00  0.00    +0.000 NA
ATOM      7  N   UNL     1       2.192   7.781  19.102  0.00  0.00    +0.000 N 
ATOM      8  N   UNL     1       0.206  10.544  19.899  0.00  0.00    +0.000 N 
ATOM      9  C   UNL     1      -0.105  10.555  21.242  0.00  0.00    +0.000 C 
ATOM     10  O   UNL     1      -0.769  11.458  21.766  0.00  0.00    +0.000 OA
ENDROOT
BRANCH   1  11
ATOM     11  N   UNL     1      -0.774   8.602  22.657  0.00  0.00    +0.000 NA
ATOM     12  H   UNL     1      -1.055   7.849  22.033  0.00  0.00    +0.000 HD
ATOM     13  H   UNL     1      -1.577   9.234  22.734  0.00  0.00    +0.000 HD
ENDBRANCH   1  11
BRANCH   8  14
ATOM     14  O   UNL     1      -0.124  11.659  19.102  0.00  0.00    +0.000 OA
ATOM     15  H   UNL     1       0.081  12.399  19.698  0.00  0.00    +0.000 HD
ENDBRANCH   8  14
BRANCH   7  16
ATOM     16  C   UNL     1       3.034   6.621  19.374  0.00  0.00    +0.000 C 
BRANCH  16  17
ATOM     17  C   UNL     1       2.247   5.333  19.390  0.00  0.00    +0.000 A 
ATOM     18  C   UNL     1       1.986   4.641  18.198  0.00  0.00    +0.000 A 
ATOM     19  C   UNL     1       1.291   3.432  18.215  0.00  0.00    +0.000 A 
ATOM     20  C   UNL     1       0.848   2.898  19.424  0.00  0.00    +0.000 A 
ATOM     21  C   UNL     1       1.102   3.575  20.617  0.00  0.00    +0.000 A 
ATOM     22  C   UNL     1       1.799   4.784  20.602  0.00  0.00    +0.000 A 
ENDBRANCH  16  17
ENDBRANCH   7  16
TORSDOF 4
ENDMDL
MODEL 7
REMARK VINA RESULT:      -7.0      2.093      3.388
REMARK  Name = 
REMARK  4 active torsions:
REMARK  status: ('A' for Active; 'I' for Inactive)
REMARK    1  A    between atoms: N_1  and  C_2
REMARK    2  A    between atoms: N_8  and  C_9
REMARK    3  A    between atoms: C_9  and  C_10
REMARK    4  A    between atoms: N_16  and  O_17
REMARK                            x       y       z     vdW  Elec       q    Type
REMARK                         _______ _______ _______ _____ _____    ______ ____
ROOT
ATOM      1  C   UNL     1       6.937   5.910  17.612  0.00  0.00    +0.000 C 
ATOM      2  C   UNL     1       5.736   6.014  18.585  0.00  0.00    +0.000 C 
ATOM      3  C   UNL     1       4.611   5.165  18.159  0.00  0.00    +0.000 A 
ATOM      4  C   UNL     1       4.647   4.221  17.176  0.00  0.00    +0.000 A 
ATOM      5  C   UNL     1       3.383   3.614  17.190  0.00  0.00    +0.000 A 
ATOM      6  N   UNL     1       2.587   4.152  18.121  0.00  0.00    +0.000 NA
ATOM      7  N   UNL     1       3.357   5.099  18.706  0.00  0.00    +0.000 N 
ATOM      8  N   UNL     1       5.773   4.012  16.427  0.00  0.00    +0.000 N 
ATOM      9  C   UNL     1       6.941   4.731  16.569  0.00  0.00    +0.000 C 
ATOM     10  O   UNL     1       7.952   4.500  15.894  0.00  0.00    +0.000 OA
ENDROOT
BRANCH   1  11
ATOM     11  N   UNL     1       7.167   7.199  16.920  0.00  0.00    +0.000 NA
ATOM     12  H   UNL     1       7.548   7.043  15.990  0.00  0.00    +0.000 HD
ATOM     13  H   UNL     1       7.862   7.748  17.434  0.00  0.00    +0.000 HD
ENDBRANCH   1  11
BRANCH   8  14
ATOM     14  O   UNL     1       5.751   2.885  15.581  0.00  0.00    +0.000 OA
ATOM     15  H   UNL     1       5.061   3.129  14.941  0.00  0.00    +0.000 HD
ENDBRANCH   8  14
BRANCH   7  16
ATOM     16  C   UNL     1       2.848   5.827  19.864  0.00  0.00    +0.000 C 
BRANCH  16  17
ATOM     17  C   UNL     1       2.249   7.159  19.485  0.00  0.00    +0.000 A 
ATOM     18  C   UNL     1       1.587   7.943  20.442  0.00  0.00    +0.000 A 
ATOM     19  C   UNL     1       1.065   9.191  20.103  0.00  0.00    +0.000 A 
ATOM     20  C   UNL     1       1.198   9.673  18.801  0.00  0.00    +0.000 A 
ATOM     21  C   UNL     1       1.856   8.905  17.841  0.00  0.00    +0.000 A 
ATOM     22  C   UNL     1       2.380   7.657  18.179  0.00  0.00    +0.000 A 
ENDBRANCH  16  17
ENDBRANCH   7  16
TORSDOF 4
ENDMDL
MODEL 8
REMARK VINA RESULT:      -7.0      4.923      6.497
REMARK  Name = 
REMARK  4 active torsions:
REMARK  status: ('A' for Active; 'I' for Inactive)
REMARK    1  A    between atoms: N_1  and  C_2
REMARK    2  A    between atoms: N_8  and  C_9
REMARK    3  A    between atoms: C_9  and  C_10
REMARK    4  A    between atoms: N_16  and  O_17
REMARK                            x       y       z     vdW  Elec       q    Type
REMARK                         _______ _______ _______ _____ _____    ______ ____
ROOT
ATOM      1  C   UNL     1       0.366   9.388  22.129  0.00  0.00    +0.000 C 
ATOM      2  C   UNL     1       1.390   8.429  21.474  0.00  0.00    +0.000 C 
ATOM      3  C   UNL     1       1.447   8.604  20.012  0.00  0.00    +0.000 A 
ATOM      4  C   UNL     1       0.866   9.613  19.303  0.00  0.00    +0.000 A 
ATOM      5  C   UNL     1       1.262   9.416  17.973  0.00  0.00    +0.000 A 
ATOM      6  N   UNL     1       2.040   8.335  17.844  0.00  0.00    +0.000 NA
ATOM      7  N   UNL     1       2.144   7.852  19.105  0.00  0.00    +0.000 N 
ATOM      8  N   UNL     1       0.096  10.565  19.915  0.00  0.00    +0.000 N 
ATOM      9  C   UNL     1      -0.184  10.583  21.265  0.00  0.00    +0.000 C 
ATOM     10  O   UNL     1      -0.862  11.474  21.793  0.00  0.00    +0.000 OA
ENDROOT
BRANCH   1  11
ATOM     11  N   UNL     1      -0.761   8.630  22.720  0.00  0.00    +0.000 NA
ATOM     12  H   UNL     1      -1.651   9.034  22.437  0.00  0.00    +0.000 HD
ATOM     13  H   UNL     1      -0.722   8.691  23.742  0.00  0.00    +0.000 HD
ENDBRANCH   1  11
BRANCH   8  14
ATOM     14  O   UNL     1      -0.286  11.659  19.113  0.00  0.00    +0.000 OA
ATOM     15  H   UNL     1      -0.697  12.251  19.764  0.00  0.00    +0.000 HD
ENDBRANCH   8  14
BRANCH   7  16
ATOM     16  C   UNL     1       3.027   6.721  19.372  0.00  0.00    +0.000 C 
BRANCH  16  17
ATOM     17  C   UNL     1       2.286   5.406  19.382  0.00  0.00    +0.000 A 
ATOM     18  C   UNL     1       1.794   4.872  20.583  0.00  0.00    +0.000 A 
ATOM     19  C   UNL     1       1.078   3.676  20.589  0.00  0.00    +0.000 A 
ATOM     20  C   UNL     1       0.843   2.996  19.395  0.00  0.00    +0.000 A 
ATOM     21  C   UNL     1       1.324   3.516  18.194  0.00  0.00    +0.000 A 
ATOM     22  C   UNL     1       2.041   4.714  18.186  0.00  0.00    +0.000 A 
ENDBRANCH  16  17
ENDBRANCH   7  16
TORSDOF 4
ENDMDL
MODEL 9
REMARK VINA RESULT:      -6.8      3.676      6.076
REMARK  Name = 
REMARK  4 active torsions:
REMARK  status: ('A' for Active; 'I' for Inactive)
REMARK    1  A    between atoms: N_1  and  C_2
REMARK    2  A    between atoms: N_8  and  C_9
REMARK    3  A    between atoms: C_9  and  C_10
REMARK    4  A    between atoms: N_16  and  O_17
REMARK                            x       y       z     vdW  Elec       q    Type
REMARK                         _______ _______ _______ _____ _____    ______ ____
ROOT
ATOM      1  C   UNL     1       3.088   3.218  18.318  0.00  0.00    +0.000 C 
ATOM      2  C   UNL     1       4.472   3.440  17.659  0.00  0.00    +0.000 C 
ATOM      3  C   UNL     1       4.679   4.848  17.280  0.00  0.00    +0.000 A 
ATOM      4  C   UNL     1       3.888   5.899  17.639  0.00  0.00    +0.000 A 
ATOM      5  C   UNL     1       4.521   7.039  17.126  0.00  0.00    +0.000 A 
ATOM      6  N   UNL     1       5.644   6.728  16.469  0.00  0.00    +0.000 NA
ATOM      7  N   UNL     1       5.725   5.381  16.575  0.00  0.00    +0.000 N 
ATOM      8  N   UNL     1       2.747   5.716  18.373  0.00  0.00    +0.000 N 
ATOM      9  C   UNL     1       2.282   4.486  18.787  0.00  0.00    +0.000 C 
ATOM     10  O   UNL     1       1.261   4.357  19.473  0.00  0.00    +0.000 OA
ENDROOT
BRANCH   1  11
ATOM     11  N   UNL     1       2.231   2.362  17.466  0.00  0.00    +0.000 NA
ATOM     12  H   UNL     1       2.715   2.114  16.606  0.00  0.00    +0.000 HD
ATOM     13  H   UNL     1       1.390   2.877  17.191  0.00  0.00    +0.000 HD
ENDBRANCH   1  11
BRANCH   8  14
ATOM     14  O   UNL     1       2.123   6.889  18.845  0.00  0.00    +0.000 OA
ATOM     15  H   UNL     1       1.913   7.351  18.016  0.00  0.00    +0.000 HD
ENDBRANCH   8  14
BRANCH   7  16
ATOM     16  C   UNL     1       6.904   4.688  16.064  0.00  0.00    +0.000 C 
BRANCH  16  17
ATOM     17  C   UNL     1       6.874   4.537  14.563  0.00  0.00    +0.000 A 
ATOM     18  C   UNL     1       7.738   5.289  13.752  0.00  0.00    +0.000 A 
ATOM     19  C   UNL     1       7.737   5.124  12.367  0.00  0.00    +0.000 A 
ATOM     20  C   UNL     1       6.872   4.206  11.774  0.00  0.00    +0.000 A 
ATOM     21  C   UNL     1       6.010   3.450  12.568  0.00  0.00    +0.000 A 
ATOM     22  C   UNL     1       6.010   3.613  13.954  0.00  0.00    +0.000 A 
ENDBRANCH  16  17
ENDBRANCH   7  16
TORSDOF 4
ENDMDL
