MODEL 1
REMARK VINA RESULT:      -7.8      0.000      0.000
REMARK  Name = 
REMARK  11 active torsions:
REMARK  status: ('A' for Active; 'I' for Inactive)
REMARK    1  A    between atoms: C_1  and  C_2
REMARK    2  A    between atoms: C_2  and  N_3
REMARK    3  A    between atoms: C_4  and  S_5
REMARK    4  A    between atoms: S_5  and  C_6
REMARK    5  A    between atoms: C_6  and  C_7
REMARK    6  A    between atoms: C_14  and  N_15
REMARK    7  A    between atoms: C_16  and  N_17
REMARK    8  A    between atoms: N_17  and  C_18
REMARK    9  A    between atoms: N_17  and  C_25
REMARK   10  A    between atoms: C_18  and  C_19
REMARK   11  A    between atoms: C_25  and  C_26
REMARK                            x       y       z     vdW  Elec       q    Type
REMARK                         _______ _______ _______ _____ _____    ______ ____
ROOT
ATOM      1  N   UNL     1       1.079  10.269  18.871  0.00  0.00    +0.000 N 
ATOM      2  C   UNL     1       0.445  10.061  20.077  0.00  0.00    +0.000 A 
ATOM      3  N   UNL     1       0.655   9.034  20.830  0.00  0.00    +0.000 NA
ATOM      4  C   UNL     1       1.491   8.039  20.385  0.00  0.00    +0.000 A 
ATOM      5  C   UNL     1       1.917   7.960  19.099  0.00  0.00    +0.000 A 
ATOM      6  C   UNL     1       1.844   9.245  18.328  0.00  0.00    +0.000 A 
ATOM      7  O   UNL     1       2.493   9.376  17.287  0.00  0.00    +0.000 OA
ENDROOT
BRANCH   4   8
ATOM      8  N   UNL     1       1.817   7.049  21.292  0.00  0.00    +0.000 N 
ATOM      9  H   UNL     1       1.938   7.385  22.238  0.00  0.00    +0.000 HD
ATOM     10  H   UNL     1       2.554   6.452  20.937  0.00  0.00    +0.000 HD
ENDBRANCH   4   8
BRANCH   1  12
ATOM     11  C   UNL     1       2.231  12.491  18.858  0.00  0.00    +0.000 C 
ATOM     12  C   UNL     1       1.201  11.574  18.216  0.00  0.00    +0.000 C 
ENDBRANCH   1  12
BRANCH   2  13
ATOM     13  S   UNL     1      -0.793  11.226  20.554  0.00  0.00    +0.000 S 
BRANCH  13  14
ATOM     14  C   UNL     1      -0.555  11.348  22.349  0.00  0.00    +0.000 C 
BRANCH  14  15
ATOM     15  C   UNL     1      -1.507  12.332  23.008  0.00  0.00    +0.000 A 
ATOM     16  C   UNL     1      -2.817  11.952  23.346  0.00  0.00    +0.000 A 
ATOM     17  C   UNL     1      -3.680  12.833  24.001  0.00  0.00    +0.000 A 
ATOM     18  C   UNL     1      -3.254  14.121  24.320  0.00  0.00    +0.000 A 
ATOM     19  C   UNL     1      -1.958  14.521  23.976  0.00  0.00    +0.000 A 
ATOM     20  C   UNL     1      -1.098  13.637  23.324  0.00  0.00    +0.000 A 
ENDBRANCH  14  15
ENDBRANCH  13  14
ENDBRANCH   2  13
BRANCH   5  21
ATOM     21  N   UNL     1       2.486   6.835  18.447  0.00  0.00    +0.000 N 
BRANCH  21  22
ATOM     22  C   UNL     1       3.797   6.323  18.893  0.00  0.00    +0.000 C 
BRANCH  22  23
ATOM     23  C   UNL     1       4.779   5.976  17.784  0.00  0.00    +0.000 A 
ATOM     24  C   UNL     1       4.728   6.545  16.506  0.00  0.00    +0.000 A 
ATOM     25  C   UNL     1       5.508   6.042  15.461  0.00  0.00    +0.000 A 
ATOM     26  C   UNL     1       6.428   5.026  15.703  0.00  0.00    +0.000 A 
ATOM     27  C   UNL     1       6.599   4.550  16.999  0.00  0.00    +0.000 A 
ATOM     28  C   UNL     1       5.780   5.021  18.031  0.00  0.00    +0.000 A 
ENDBRANCH  22  23
ENDBRANCH  21  22
BRANCH  21  29
ATOM     29  C   UNL     1       1.608   5.870  17.749  0.00  0.00    +0.000 C 
BRANCH  29  30
ATOM     30  C   UNL     1       1.736   4.454  18.289  0.00  0.00    +0.000 A 
ATOM     31  C   UNL     1       2.369   3.448  17.538  0.00  0.00    +0.000 A 
ATOM     32  C   UNL     1       2.468   2.141  18.019  0.00  0.00    +0.000 A 
ATOM     33  C   UNL     1       1.960   1.827  19.278  0.00  0.00    +0.000 A 
ATOM     34  C   UNL     1       1.353   2.813  20.046  0.00  0.00    +0.000 A 
ATOM     35  C   UNL     1       1.236   4.116  19.553  0.00  0.00    +0.000 A 
ENDBRANCH  29  30
ENDBRANCH  21  29
ENDBRANCH   5  21
TORSDOF 10
ENDMDL
MODEL 2
REMARK VINA RESULT:      -7.8      2.243      3.395
REMARK  Name = 
REMARK  11 active torsions:
REMARK  status: ('A' for Active; 'I' for Inactive)
REMARK    1  A    between atoms: C_1  and  C_2
REMARK    2  A    between atoms: C_2  and  N_3
REMARK    3  A    between atoms: C_4  and  S_5
REMARK    4  A    between atoms: S_5  and  C_6
REMARK    5  A    between atoms: C_6  and  C_7
REMARK    6  A    between atoms: C_14  and  N_15
REMARK    7  A    between atoms: C_16  and  N_17
REMARK    8  A    between atoms: N_17  and  C_18
REMARK    9  A    between atoms: N_17  and  C_25
REMARK   10  A    between atoms: C_18  and  C_19
REMARK   11  A    between atoms: C_25  and  C_26
REMARK                            x       y       z     vdW  Elec       q    Type
REMARK                         _______ _______ _______ _____ _____    ______ ____
ROOT
ATOM      1  N   UNL     1       1.571  10.215  18.366  0.00  0.00    +0.000 N 
ATOM      2  C   UNL     1       0.832  10.234  19.529  0.00  0.00    +0.000 A 
ATOM      3  N   UNL     1       0.873   9.303  20.420  0.00  0.00    +0.000 NA
ATOM      4  C   UNL     1       1.626   8.180  20.179  0.00  0.00    +0.000 A 
ATOM      5  C   UNL     1       2.134   7.886  18.955  0.00  0.00    +0.000 A 
ATOM      6  C   UNL     1       2.259   9.057  18.025  0.00  0.00    +0.000 A 
ATOM      7  O   UNL     1       2.992   8.983  17.036  0.00  0.00    +0.000 OA
ENDROOT
BRANCH   4   8
ATOM      8  N   UNL     1       1.775   7.293  21.228  0.00  0.00    +0.000 N 
ATOM      9  H   UNL     1       1.657   6.324  20.964  0.00  0.00    +0.000 HD
ATOM     10  H   UNL     1       1.256   7.595  22.044  0.00  0.00    +0.000 HD
ENDBRANCH   4   8
BRANCH   1  12
ATOM     11  C   UNL     1       2.713  12.442  18.303  0.00  0.00    +0.000 C 
ATOM     12  C   UNL     1       1.883  11.403  17.565  0.00  0.00    +0.000 C 
ENDBRANCH   1  12
BRANCH   2  13
ATOM     13  S   UNL     1      -0.304  11.569  19.746  0.00  0.00    +0.000 S 
BRANCH  13  14
ATOM     14  C   UNL     1      -1.915  10.742  19.642  0.00  0.00    +0.000 C 
BRANCH  14  15
ATOM     15  C   UNL     1      -2.500  10.758  18.240  0.00  0.00    +0.000 A 
ATOM     16  C   UNL     1      -1.901  10.026  17.200  0.00  0.00    +0.000 A 
ATOM     17  C   UNL     1      -2.463   9.991  15.922  0.00  0.00    +0.000 A 
ATOM     18  C   UNL     1      -3.632  10.701  15.653  0.00  0.00    +0.000 A 
ATOM     19  C   UNL     1      -4.233  11.448  16.672  0.00  0.00    +0.000 A 
ATOM     20  C   UNL     1      -3.670  11.477  17.948  0.00  0.00    +0.000 A 
ENDBRANCH  14  15
ENDBRANCH  13  14
ENDBRANCH   2  13
BRANCH   5  21
ATOM     21  N   UNL     1       2.623   6.634  18.502  0.00  0.00    +0.000 N 
BRANCH  21  22
ATOM     22  C   UNL     1       3.888   6.106  19.051  0.00  0.00    +0.000 C 
BRANCH  22  23
ATOM     23  C   UNL     1       4.970   5.796  18.027  0.00  0.00    +0.000 A 
ATOM     24  C   UNL     1       4.846   6.090  16.664  0.00  0.00    +0.000 A 
ATOM     25  C   UNL     1       5.764   5.595  15.732  0.00  0.00    +0.000 A 
ATOM     26  C   UNL     1       6.879   4.882  16.162  0.00  0.00    +0.000 A 
ATOM     27  C   UNL     1       7.098   4.708  17.526  0.00  0.00    +0.000 A 
ATOM     28  C   UNL     1       6.150   5.161  18.450  0.00  0.00    +0.000 A 
ENDBRANCH  22  23
ENDBRANCH  21  22
BRANCH  21  29
ATOM     29  C   UNL     1       1.682   5.635  17.948  0.00  0.00    +0.000 C 
BRANCH  29  30
ATOM     30  C   UNL     1       1.735   4.301  18.678  0.00  0.00    +0.000 A 
ATOM     31  C   UNL     1       1.167   4.152  19.954  0.00  0.00    +0.000 A 
ATOM     32  C   UNL     1       1.235   2.936  20.637  0.00  0.00    +0.000 A 
ATOM     33  C   UNL     1       1.848   1.838  20.037  0.00  0.00    +0.000 A 
ATOM     34  C   UNL     1       2.393   1.959  18.765  0.00  0.00    +0.000 A 
ATOM     35  C   UNL     1       2.343   3.184  18.091  0.00  0.00    +0.000 A 
ENDBRANCH  29  30
ENDBRANCH  21  29
ENDBRANCH   5  21
TORSDOF 10
ENDMDL
MODEL 3
REMARK VINA RESULT:      -7.7      0.133      1.190
REMARK  Name = 
REMARK  11 active torsions:
REMARK  status: ('A' for Active; 'I' for Inactive)
REMARK    1  A    between atoms: C_1  and  C_2
REMARK    2  A    between atoms: C_2  and  N_3
REMARK    3  A    between atoms: C_4  and  S_5
REMARK    4  A    between atoms: S_5  and  C_6
REMARK    5  A    between atoms: C_6  and  C_7
REMARK    6  A    between atoms: C_14  and  N_15
REMARK    7  A    between atoms: C_16  and  N_17
REMARK    8  A    between atoms: N_17  and  C_18
REMARK    9  A    between atoms: N_17  and  C_25
REMARK   10  A    between atoms: C_18  and  C_19
REMARK   11  A    between atoms: C_25  and  C_26
REMARK                            x       y       z     vdW  Elec       q    Type
REMARK                         _______ _______ _______ _____ _____    ______ ____
ROOT
ATOM      1  N   UNL     1       1.130  10.308  18.835  0.00  0.00    +0.000 N 
ATOM      2  C   UNL     1       0.505  10.126  20.050  0.00  0.00    +0.000 A 
ATOM      3  N   UNL     1       0.702   9.103  20.812  0.00  0.00    +0.000 NA
ATOM      4  C   UNL     1       1.514   8.088  20.370  0.00  0.00    +0.000 A 
ATOM      5  C   UNL     1       1.926   7.986  19.081  0.00  0.00    +0.000 A 
ATOM      6  C   UNL     1       1.871   9.264  18.296  0.00  0.00    +0.000 A 
ATOM      7  O   UNL     1       2.511   9.370  17.248  0.00  0.00    +0.000 OA
ENDROOT
BRANCH   4   8
ATOM      8  N   UNL     1       1.830   7.101  21.285  0.00  0.00    +0.000 N 
ATOM      9  H   UNL     1       2.822   7.010  21.461  0.00  0.00    +0.000 HD
ATOM     10  H   UNL     1       1.335   6.240  21.086  0.00  0.00    +0.000 HD
ENDBRANCH   4   8
BRANCH   1  12
ATOM     11  C   UNL     1       2.279  12.532  18.825  0.00  0.00    +0.000 C 
ATOM     12  C   UNL     1       1.272  11.603  18.165  0.00  0.00    +0.000 C 
ENDBRANCH   1  12
BRANCH   2  13
ATOM     13  S   UNL     1      -0.706  11.320  20.526  0.00  0.00    +0.000 S 
BRANCH  13  14
ATOM     14  C   UNL     1      -0.819  11.079  22.321  0.00  0.00    +0.000 C 
BRANCH  14  15
ATOM     15  C   UNL     1      -1.591  12.184  23.020  0.00  0.00    +0.000 A 
ATOM     16  C   UNL     1      -1.026  13.459  23.195  0.00  0.00    +0.000 A 
ATOM     17  C   UNL     1      -1.749  14.497  23.787  0.00  0.00    +0.000 A 
ATOM     18  C   UNL     1      -3.051  14.276  24.231  0.00  0.00    +0.000 A 
ATOM     19  C   UNL     1      -3.624  13.009  24.080  0.00  0.00    +0.000 A 
ATOM     20  C   UNL     1      -2.899  11.976  23.485  0.00  0.00    +0.000 A 
ENDBRANCH  14  15
ENDBRANCH  13  14
ENDBRANCH   2  13
BRANCH   5  21
ATOM     21  N   UNL     1       2.466   6.843  18.437  0.00  0.00    +0.000 N 
BRANCH  21  22
ATOM     22  C   UNL     1       3.780   6.321  18.863  0.00  0.00    +0.000 C 
BRANCH  22  23
ATOM     23  C   UNL     1       4.743   5.967  17.740  0.00  0.00    +0.000 A 
ATOM     24  C   UNL     1       4.710   6.573  16.479  0.00  0.00    +0.000 A 
ATOM     25  C   UNL     1       5.465   6.069  15.415  0.00  0.00    +0.000 A 
ATOM     26  C   UNL     1       6.344   5.011  15.624  0.00  0.00    +0.000 A 
ATOM     27  C   UNL     1       6.501   4.492  16.906  0.00  0.00    +0.000 A 
ATOM     28  C   UNL     1       5.706   4.966  17.955  0.00  0.00    +0.000 A 
ENDBRANCH  22  23
ENDBRANCH  21  22
BRANCH  21  29
ATOM     29  C   UNL     1       1.562   5.877  17.774  0.00  0.00    +0.000 C 
BRANCH  29  30
ATOM     30  C   UNL     1       1.707   4.462  18.312  0.00  0.00    +0.000 A 
ATOM     31  C   UNL     1       1.220   4.118  19.584  0.00  0.00    +0.000 A 
ATOM     32  C   UNL     1       1.373   2.827  20.092  0.00  0.00    +0.000 A 
ATOM     33  C   UNL     1       1.991   1.848  19.317  0.00  0.00    +0.000 A 
ATOM     34  C   UNL     1       2.457   2.161  18.047  0.00  0.00    +0.000 A 
ATOM     35  C   UNL     1       2.323   3.461  17.549  0.00  0.00    +0.000 A 
ENDBRANCH  29  30
ENDBRANCH  21  29
ENDBRANCH   5  21
TORSDOF 10
ENDMDL
MODEL 4
REMARK VINA RESULT:      -7.7      2.728      9.094
REMARK  Name = 
REMARK  11 active torsions:
REMARK  status: ('A' for Active; 'I' for Inactive)
REMARK    1  A    between atoms: C_1  and  C_2
REMARK    2  A    between atoms: C_2  and  N_3
REMARK    3  A    between atoms: C_4  and  S_5
REMARK    4  A    between atoms: S_5  and  C_6
REMARK    5  A    between atoms: C_6  and  C_7
REMARK    6  A    between atoms: C_14  and  N_15
REMARK    7  A    between atoms: C_16  and  N_17
REMARK    8  A    between atoms: N_17  and  C_18
REMARK    9  A    between atoms: N_17  and  C_25
REMARK   10  A    between atoms: C_18  and  C_19
REMARK   11  A    between atoms: C_25  and  C_26
REMARK                            x       y       z     vdW  Elec       q    Type
REMARK                         _______ _______ _______ _____ _____    ______ ____
ROOT
ATOM      1  N   UNL     1       2.131   6.844  19.793  0.00  0.00    +0.000 N 
ATOM      2  C   UNL     1       2.623   6.892  18.506  0.00  0.00    +0.000 A 
ATOM      3  N   UNL     1       2.640   7.960  17.783  0.00  0.00    +0.000 NA
ATOM      4  C   UNL     1       2.064   9.107  18.273  0.00  0.00    +0.000 A 
ATOM      5  C   UNL     1       1.266   9.116  19.370  0.00  0.00    +0.000 A 
ATOM      6  C   UNL     1       1.441   7.943  20.290  0.00  0.00    +0.000 A 
ATOM      7  O   UNL     1       1.027   8.003  21.450  0.00  0.00    +0.000 OA
ENDROOT
BRANCH   4   8
ATOM      8  N   UNL     1       2.256  10.262  17.539  0.00  0.00    +0.000 N 
ATOM      9  H   UNL     1       2.429  10.097  16.556  0.00  0.00    +0.000 HD
ATOM     10  H   UNL     1       2.902  10.890  18.002  0.00  0.00    +0.000 HD
ENDBRANCH   4   8
BRANCH   1  12
ATOM     11  C   UNL     1       1.534   4.616  20.765  0.00  0.00    +0.000 C 
ATOM     12  C   UNL     1       2.476   5.810  20.772  0.00  0.00    +0.000 C 
ENDBRANCH   1  12
BRANCH   2  13
ATOM     13  S   UNL     1       3.166   5.371  17.790  0.00  0.00    +0.000 S 
BRANCH  13  14
ATOM     14  C   UNL     1       4.519   5.904  16.703  0.00  0.00    +0.000 C 
BRANCH  14  15
ATOM     15  C   UNL     1       5.812   6.171  17.454  0.00  0.00    +0.000 A 
ATOM     16  C   UNL     1       6.636   7.256  17.109  0.00  0.00    +0.000 A 
ATOM     17  C   UNL     1       7.798   7.541  17.829  0.00  0.00    +0.000 A 
ATOM     18  C   UNL     1       8.169   6.735  18.904  0.00  0.00    +0.000 A 
ATOM     19  C   UNL     1       7.369   5.641  19.252  0.00  0.00    +0.000 A 
ATOM     20  C   UNL     1       6.207   5.362  18.531  0.00  0.00    +0.000 A 
ENDBRANCH  14  15
ENDBRANCH  13  14
ENDBRANCH   2  13
BRANCH   5  21
ATOM     21  N   UNL     1       0.363  10.134  19.771  0.00  0.00    +0.000 N 
BRANCH  21  22
ATOM     22  C   UNL     1      -1.088   9.865  19.759  0.00  0.00    +0.000 C 
BRANCH  22  23
ATOM     23  C   UNL     1      -1.841  10.371  18.537  0.00  0.00    +0.000 A 
ATOM     24  C   UNL     1      -2.812  11.377  18.594  0.00  0.00    +0.000 A 
ATOM     25  C   UNL     1      -3.627  11.657  17.493  0.00  0.00    +0.000 A 
ATOM     26  C   UNL     1      -3.413  11.004  16.283  0.00  0.00    +0.000 A 
ATOM     27  C   UNL     1      -2.354  10.109  16.164  0.00  0.00    +0.000 A 
ATOM     28  C   UNL     1      -1.575   9.795  17.283  0.00  0.00    +0.000 A 
ENDBRANCH  22  23
ENDBRANCH  21  22
BRANCH  21  29
ATOM     29  C   UNL     1       0.822  11.206  20.683  0.00  0.00    +0.000 C 
BRANCH  29  30
ATOM     30  C   UNL     1      -0.310  11.828  21.486  0.00  0.00    +0.000 A 
ATOM     31  C   UNL     1      -0.839  13.082  21.138  0.00  0.00    +0.000 A 
ATOM     32  C   UNL     1      -1.862  13.668  21.887  0.00  0.00    +0.000 A 
ATOM     33  C   UNL     1      -2.395  12.989  22.980  0.00  0.00    +0.000 A 
ATOM     34  C   UNL     1      -1.903  11.736  23.324  0.00  0.00    +0.000 A 
ATOM     35  C   UNL     1      -0.863  11.161  22.587  0.00  0.00    +0.000 A 
ENDBRANCH  29  30
ENDBRANCH  21  29
ENDBRANCH   5  21
TORSDOF 10
ENDMDL
MODEL 5
REMARK VINA RESULT:      -7.5      0.176      1.196
REMARK  Name = 
REMARK  11 active torsions:
REMARK  status: ('A' for Active; 'I' for Inactive)
REMARK    1  A    between atoms: C_1  and  C_2
REMARK    2  A    between atoms: C_2  and  N_3
REMARK    3  A    between atoms: C_4  and  S_5
REMARK    4  A    between atoms: S_5  and  C_6
REMARK    5  A    between atoms: C_6  and  C_7
REMARK    6  A    between atoms: C_14  and  N_15
REMARK    7  A    between atoms: C_16  and  N_17
REMARK    8  A    between atoms: N_17  and  C_18
REMARK    9  A    between atoms: N_17  and  C_25
REMARK   10  A    between atoms: C_18  and  C_19
REMARK   11  A    between atoms: C_25  and  C_26
REMARK                            x       y       z     vdW  Elec       q    Type
REMARK                         _______ _______ _______ _____ _____    ______ ____
ROOT
ATOM      1  N   UNL     1       1.186  10.220  18.869  0.00  0.00    +0.000 N 
ATOM      2  C   UNL     1       0.525  10.043  20.065  0.00  0.00    +0.000 A 
ATOM      3  N   UNL     1       0.696   9.021  20.835  0.00  0.00    +0.000 NA
ATOM      4  C   UNL     1       1.517   8.002  20.418  0.00  0.00    +0.000 A 
ATOM      5  C   UNL     1       1.966   7.895  19.143  0.00  0.00    +0.000 A 
ATOM      6  C   UNL     1       1.938   9.172  18.354  0.00  0.00    +0.000 A 
ATOM      7  O   UNL     1       2.609   9.274  17.325  0.00  0.00    +0.000 OA
ENDROOT
BRANCH   4   8
ATOM      8  N   UNL     1       1.802   7.016  21.344  0.00  0.00    +0.000 N 
ATOM      9  H   UNL     1       1.025   6.786  21.948  0.00  0.00    +0.000 HD
ATOM     10  H   UNL     1       2.686   7.189  21.807  0.00  0.00    +0.000 HD
ENDBRANCH   4   8
BRANCH   1  12
ATOM     11  C   UNL     1       2.287  12.467  18.928  0.00  0.00    +0.000 C 
ATOM     12  C   UNL     1       1.352  11.514  18.200  0.00  0.00    +0.000 C 
ENDBRANCH   1  12
BRANCH   2  13
ATOM     13  S   UNL     1      -0.695  11.242  20.503  0.00  0.00    +0.000 S 
BRANCH  13  14
ATOM     14  C   UNL     1      -0.427  11.450  22.286  0.00  0.00    +0.000 C 
BRANCH  14  15
ATOM     15  C   UNL     1      -1.441  12.377  22.934  0.00  0.00    +0.000 A 
ATOM     16  C   UNL     1      -2.762  11.954  23.161  0.00  0.00    +0.000 A 
ATOM     17  C   UNL     1      -3.686  12.779  23.806  0.00  0.00    +0.000 A 
ATOM     18  C   UNL     1      -3.311  14.055  24.224  0.00  0.00    +0.000 A 
ATOM     19  C   UNL     1      -2.005  14.498  23.991  0.00  0.00    +0.000 A 
ATOM     20  C   UNL     1      -1.084  13.669  23.350  0.00  0.00    +0.000 A 
ENDBRANCH  14  15
ENDBRANCH  13  14
ENDBRANCH   2  13
BRANCH   5  21
ATOM     21  N   UNL     1       2.520   6.749  18.516  0.00  0.00    +0.000 N 
BRANCH  21  22
ATOM     22  C   UNL     1       3.820   6.225  18.980  0.00  0.00    +0.000 C 
BRANCH  22  23
ATOM     23  C   UNL     1       4.790   5.806  17.884  0.00  0.00    +0.000 A 
ATOM     24  C   UNL     1       5.844   4.910  18.092  0.00  0.00    +0.000 A 
ATOM     25  C   UNL     1       6.834   4.722  17.122  0.00  0.00    +0.000 A 
ATOM     26  C   UNL     1       6.728   5.353  15.887  0.00  0.00    +0.000 A 
ATOM     27  C   UNL     1       5.608   6.131  15.607  0.00  0.00    +0.000 A 
ATOM     28  C   UNL     1       4.648   6.356  16.599  0.00  0.00    +0.000 A 
ENDBRANCH  22  23
ENDBRANCH  21  22
BRANCH  21  29
ATOM     29  C   UNL     1       1.632   5.784  17.831  0.00  0.00    +0.000 C 
BRANCH  29  30
ATOM     30  C   UNL     1       1.720   4.381  18.412  0.00  0.00    +0.000 A 
ATOM     31  C   UNL     1       1.198   4.091  19.684  0.00  0.00    +0.000 A 
ATOM     32  C   UNL     1       1.298   2.810  20.230  0.00  0.00    +0.000 A 
ATOM     33  C   UNL     1       1.897   1.789  19.496  0.00  0.00    +0.000 A 
ATOM     34  C   UNL     1       2.395   2.050  18.226  0.00  0.00    +0.000 A 
ATOM     35  C   UNL     1       2.314   3.339  17.689  0.00  0.00    +0.000 A 
ENDBRANCH  29  30
ENDBRANCH  21  29
ENDBRANCH   5  21
TORSDOF 10
ENDMDL
MODEL 6
REMARK VINA RESULT:      -7.4      2.331      4.725
REMARK  Name = 
REMARK  11 active torsions:
REMARK  status: ('A' for Active; 'I' for Inactive)
REMARK    1  A    between atoms: C_1  and  C_2
REMARK    2  A    between atoms: C_2  and  N_3
REMARK    3  A    between atoms: C_4  and  S_5
REMARK    4  A    between atoms: S_5  and  C_6
REMARK    5  A    between atoms: C_6  and  C_7
REMARK    6  A    between atoms: C_14  and  N_15
REMARK    7  A    between atoms: C_16  and  N_17
REMARK    8  A    between atoms: N_17  and  C_18
REMARK    9  A    between atoms: N_17  and  C_25
REMARK   10  A    between atoms: C_18  and  C_19
REMARK   11  A    between atoms: C_25  and  C_26
REMARK                            x       y       z     vdW  Elec       q    Type
REMARK                         _______ _______ _______ _____ _____    ______ ____
ROOT
ATOM      1  N   UNL     1       1.474  10.245  18.441  0.00  0.00    +0.000 N 
ATOM      2  C   UNL     1       0.687  10.330  19.569  0.00  0.00    +0.000 A 
ATOM      3  N   UNL     1       0.730   9.482  20.540  0.00  0.00    +0.000 NA
ATOM      4  C   UNL     1       1.539   8.378  20.427  0.00  0.00    +0.000 A 
ATOM      5  C   UNL     1       2.110   8.004  19.254  0.00  0.00    +0.000 A 
ATOM      6  C   UNL     1       2.223   9.095  18.229  0.00  0.00    +0.000 A 
ATOM      7  O   UNL     1       3.000   8.969  17.280  0.00  0.00    +0.000 OA
ENDROOT
BRANCH   4   8
ATOM      8  N   UNL     1       1.681   7.593  21.555  0.00  0.00    +0.000 N 
ATOM      9  H   UNL     1       1.435   8.065  22.415  0.00  0.00    +0.000 HD
ATOM     10  H   UNL     1       2.570   7.106  21.557  0.00  0.00    +0.000 HD
ENDBRANCH   4   8
BRANCH   1  12
ATOM     11  C   UNL     1       2.699  12.409  18.159  0.00  0.00    +0.000 C 
ATOM     12  C   UNL     1       1.768  11.372  17.551  0.00  0.00    +0.000 C 
ENDBRANCH   1  12
BRANCH   2  13
ATOM     13  S   UNL     1      -0.513  11.625  19.624  0.00  0.00    +0.000 S 
BRANCH  13  14
ATOM     14  C   UNL     1      -2.082  10.720  19.515  0.00  0.00    +0.000 C 
BRANCH  14  15
ATOM     15  C   UNL     1      -2.649  10.684  18.106  0.00  0.00    +0.000 A 
ATOM     16  C   UNL     1      -3.796  11.426  17.771  0.00  0.00    +0.000 A 
ATOM     17  C   UNL     1      -4.292  11.443  16.466  0.00  0.00    +0.000 A 
ATOM     18  C   UNL     1      -3.658  10.704  15.468  0.00  0.00    +0.000 A 
ATOM     19  C   UNL     1      -2.525   9.948  15.787  0.00  0.00    +0.000 A 
ATOM     20  C   UNL     1      -2.031   9.936  17.092  0.00  0.00    +0.000 A 
ENDBRANCH  14  15
ENDBRANCH  13  14
ENDBRANCH   2  13
BRANCH   5  21
ATOM     21  N   UNL     1       2.670   6.741  18.932  0.00  0.00    +0.000 N 
BRANCH  21  22
ATOM     22  C   UNL     1       1.887   5.783  18.126  0.00  0.00    +0.000 C 
BRANCH  22  23
ATOM     23  C   UNL     1       1.551   4.467  18.812  0.00  0.00    +0.000 A 
ATOM     24  C   UNL     1       1.311   4.355  20.186  0.00  0.00    +0.000 A 
ATOM     25  C   UNL     1       1.221   3.104  20.804  0.00  0.00    +0.000 A 
ATOM     26  C   UNL     1       1.268   1.943  20.039  0.00  0.00    +0.000 A 
ATOM     27  C   UNL     1       1.356   2.038  18.653  0.00  0.00    +0.000 A 
ATOM     28  C   UNL     1       1.498   3.290  18.045  0.00  0.00    +0.000 A 
ENDBRANCH  22  23
ENDBRANCH  21  22
BRANCH  21  29
ATOM     29  C   UNL     1       4.140   6.576  18.900  0.00  0.00    +0.000 C 
BRANCH  29  30
ATOM     30  C   UNL     1       4.631   5.877  17.641  0.00  0.00    +0.000 A 
ATOM     31  C   UNL     1       4.830   4.486  17.618  0.00  0.00    +0.000 A 
ATOM     32  C   UNL     1       5.304   3.843  16.472  0.00  0.00    +0.000 A 
ATOM     33  C   UNL     1       5.556   4.582  15.319  0.00  0.00    +0.000 A 
ATOM     34  C   UNL     1       5.341   5.954  15.314  0.00  0.00    +0.000 A 
ATOM     35  C   UNL     1       4.888   6.599  16.469  0.00  0.00    +0.000 A 
ENDBRANCH  29  30
ENDBRANCH  21  29
ENDBRANCH   5  21
TORSDOF 10
ENDMDL
MODEL 7
REMARK VINA RESULT:      -7.3      0.567      3.053
REMARK  Name = 
REMARK  11 active torsions:
REMARK  status: ('A' for Active; 'I' for Inactive)
REMARK    1  A    between atoms: C_1  and  C_2
REMARK    2  A    between atoms: C_2  and  N_3
REMARK    3  A    between atoms: C_4  and  S_5
REMARK    4  A    between atoms: S_5  and  C_6
REMARK    5  A    between atoms: C_6  and  C_7
REMARK    6  A    between atoms: C_14  and  N_15
REMARK    7  A    between atoms: C_16  and  N_17
REMARK    8  A    between atoms: N_17  and  C_18
REMARK    9  A    between atoms: N_17  and  C_25
REMARK   10  A    between atoms: C_18  and  C_19
REMARK   11  A    between atoms: C_25  and  C_26
REMARK                            x       y       z     vdW  Elec       q    Type
REMARK                         _______ _______ _______ _____ _____    ______ ____
ROOT
ATOM      1  N   UNL     1       0.666  10.171  19.131  0.00  0.00    +0.000 N 
ATOM      2  C   UNL     1       0.189   9.711  20.339  0.00  0.00    +0.000 A 
ATOM      3  N   UNL     1       0.646   8.663  20.939  0.00  0.00    +0.000 NA
ATOM      4  C   UNL     1       1.604   7.902  20.316  0.00  0.00    +0.000 A 
ATOM      5  C   UNL     1       1.923   8.052  19.005  0.00  0.00    +0.000 A 
ATOM      6  C   UNL     1       1.552   9.380  18.412  0.00  0.00    +0.000 A 
ATOM      7  O   UNL     1       2.072   9.749  17.357  0.00  0.00    +0.000 OA
ENDROOT
BRANCH   4   8
ATOM      8  N   UNL     1       2.182   6.895  21.065  0.00  0.00    +0.000 N 
ATOM      9  H   UNL     1       2.961   7.202  21.631  0.00  0.00    +0.000 HD
ATOM     10  H   UNL     1       2.342   6.065  20.506  0.00  0.00    +0.000 HD
ENDBRANCH   4   8
BRANCH   1  12
ATOM     11  C   UNL     1       1.541  12.516  19.160  0.00  0.00    +0.000 C 
ATOM     12  C   UNL     1       0.493  11.543  18.643  0.00  0.00    +0.000 C 
ENDBRANCH   1  12
BRANCH   2  13
ATOM     13  S   UNL     1      -1.192  10.558  21.043  0.00  0.00    +0.000 S 
BRANCH  13  14
ATOM     14  C   UNL     1      -0.402  11.732  22.179  0.00  0.00    +0.000 C 
BRANCH  14  15
ATOM     15  C   UNL     1      -1.403  12.573  22.952  0.00  0.00    +0.000 A 
ATOM     16  C   UNL     1      -2.677  12.070  23.268  0.00  0.00    +0.000 A 
ATOM     17  C   UNL     1      -3.583  12.815  24.025  0.00  0.00    +0.000 A 
ATOM     18  C   UNL     1      -3.239  14.090  24.471  0.00  0.00    +0.000 A 
ATOM     19  C   UNL     1      -1.981  14.613  24.153  0.00  0.00    +0.000 A 
ATOM     20  C   UNL     1      -1.077  13.863  23.399  0.00  0.00    +0.000 A 
ENDBRANCH  14  15
ENDBRANCH  13  14
ENDBRANCH   2  13
BRANCH   5  21
ATOM     21  N   UNL     1       2.625   7.137  18.178  0.00  0.00    +0.000 N 
BRANCH  21  22
ATOM     22  C   UNL     1       1.882   6.063  17.490  0.00  0.00    +0.000 C 
BRANCH  22  23
ATOM     23  C   UNL     1       2.026   4.673  18.092  0.00  0.00    +0.000 A 
ATOM     24  C   UNL     1       2.638   3.606  17.425  0.00  0.00    +0.000 A 
ATOM     25  C   UNL     1       2.555   2.302  17.922  0.00  0.00    +0.000 A 
ATOM     26  C   UNL     1       1.945   2.060  19.149  0.00  0.00    +0.000 A 
ATOM     27  C   UNL     1       1.463   3.129  19.898  0.00  0.00    +0.000 A 
ATOM     28  C   UNL     1       1.502   4.425  19.372  0.00  0.00    +0.000 A 
ENDBRANCH  22  23
ENDBRANCH  21  22
BRANCH  21  29
ATOM     29  C   UNL     1       3.913   7.536  17.570  0.00  0.00    +0.000 C 
BRANCH  29  30
ATOM     30  C   UNL     1       4.849   6.360  17.338  0.00  0.00    +0.000 A 
ATOM     31  C   UNL     1       5.161   5.930  16.037  0.00  0.00    +0.000 A 
ATOM     32  C   UNL     1       6.000   4.836  15.819  0.00  0.00    +0.000 A 
ATOM     33  C   UNL     1       6.567   4.172  16.905  0.00  0.00    +0.000 A 
ATOM     34  C   UNL     1       6.292   4.598  18.198  0.00  0.00    +0.000 A 
ATOM     35  C   UNL     1       5.433   5.680  18.414  0.00  0.00    +0.000 A 
ENDBRANCH  29  30
ENDBRANCH  21  29
ENDBRANCH   5  21
TORSDOF 10
ENDMDL
MODEL 8
REMARK VINA RESULT:      -7.2      2.660      5.506
REMARK  Name = 
REMARK  11 active torsions:
REMARK  status: ('A' for Active; 'I' for Inactive)
REMARK    1  A    between atoms: C_1  and  C_2
REMARK    2  A    between atoms: C_2  and  N_3
REMARK    3  A    between atoms: C_4  and  S_5
REMARK    4  A    between atoms: S_5  and  C_6
REMARK    5  A    between atoms: C_6  and  C_7
REMARK    6  A    between atoms: C_14  and  N_15
REMARK    7  A    between atoms: C_16  and  N_17
REMARK    8  A    between atoms: N_17  and  C_18
REMARK    9  A    between atoms: N_17  and  C_25
REMARK   10  A    between atoms: C_18  and  C_19
REMARK   11  A    between atoms: C_25  and  C_26
REMARK                            x       y       z     vdW  Elec       q    Type
REMARK                         _______ _______ _______ _____ _____    ______ ____
ROOT
ATOM      1  N   UNL     1       2.814   4.902  19.530  0.00  0.00    +0.000 N 
ATOM      2  C   UNL     1       2.599   6.259  19.424  0.00  0.00    +0.000 A 
ATOM      3  N   UNL     1       3.033   6.981  18.447  0.00  0.00    +0.000 NA
ATOM      4  C   UNL     1       3.827   6.399  17.489  0.00  0.00    +0.000 A 
ATOM      5  C   UNL     1       4.378   5.169  17.641  0.00  0.00    +0.000 A 
ATOM      6  C   UNL     1       3.698   4.291  18.651  0.00  0.00    +0.000 A 
ATOM      7  O   UNL     1       3.894   3.073  18.639  0.00  0.00    +0.000 OA
ENDROOT
BRANCH   4   8
ATOM      8  N   UNL     1       4.123   7.165  16.377  0.00  0.00    +0.000 N 
ATOM      9  H   UNL     1       4.094   6.651  15.507  0.00  0.00    +0.000 HD
ATOM     10  H   UNL     1       4.950   7.731  16.529  0.00  0.00    +0.000 HD
ENDBRANCH   4   8
BRANCH   1  12
ATOM     11  C   UNL     1       0.864   3.334  19.598  0.00  0.00    +0.000 C 
ATOM     12  C   UNL     1       2.005   3.999  20.353  0.00  0.00    +0.000 C 
ENDBRANCH   1  12
BRANCH   2  13
ATOM     13  S   UNL     1       1.766   7.055  20.763  0.00  0.00    +0.000 S 
BRANCH  13  14
ATOM     14  C   UNL     1       1.375   8.688  20.075  0.00  0.00    +0.000 C 
BRANCH  14  15
ATOM     15  C   UNL     1       0.567   9.554  21.026  0.00  0.00    +0.000 A 
ATOM     16  C   UNL     1      -0.014  10.757  20.589  0.00  0.00    +0.000 A 
ATOM     17  C   UNL     1      -0.804  11.531  21.442  0.00  0.00    +0.000 A 
ATOM     18  C   UNL     1      -1.018  11.125  22.757  0.00  0.00    +0.000 A 
ATOM     19  C   UNL     1      -0.434   9.938  23.214  0.00  0.00    +0.000 A 
ATOM     20  C   UNL     1       0.352   9.166  22.358  0.00  0.00    +0.000 A 
ENDBRANCH  14  15
ENDBRANCH  13  14
ENDBRANCH   2  13
BRANCH   5  21
ATOM     21  N   UNL     1       5.456   4.610  16.906  0.00  0.00    +0.000 N 
BRANCH  21  22
ATOM     22  C   UNL     1       6.790   4.513  17.532  0.00  0.00    +0.000 C 
BRANCH  22  23
ATOM     23  C   UNL     1       7.460   5.839  17.860  0.00  0.00    +0.000 A 
ATOM     24  C   UNL     1       8.131   6.085  19.063  0.00  0.00    +0.000 A 
ATOM     25  C   UNL     1       8.541   7.376  19.411  0.00  0.00    +0.000 A 
ATOM     26  C   UNL     1       8.377   8.426  18.513  0.00  0.00    +0.000 A 
ATOM     27  C   UNL     1       7.847   8.172  17.251  0.00  0.00    +0.000 A 
ATOM     28  C   UNL     1       7.392   6.889  16.928  0.00  0.00    +0.000 A 
ENDBRANCH  22  23
ENDBRANCH  21  22
BRANCH  21  29
ATOM     29  C   UNL     1       5.180   3.662  15.804  0.00  0.00    +0.000 C 
BRANCH  29  30
ATOM     30  C   UNL     1       5.937   4.000  14.528  0.00  0.00    +0.000 A 
ATOM     31  C   UNL     1       5.581   3.417  13.300  0.00  0.00    +0.000 A 
ATOM     32  C   UNL     1       6.288   3.705  12.131  0.00  0.00    +0.000 A 
ATOM     33  C   UNL     1       7.347   4.609  12.169  0.00  0.00    +0.000 A 
ATOM     34  C   UNL     1       7.698   5.216  13.368  0.00  0.00    +0.000 A 
ATOM     35  C   UNL     1       7.003   4.909  14.542  0.00  0.00    +0.000 A 
ENDBRANCH  29  30
ENDBRANCH  21  29
ENDBRANCH   5  21
TORSDOF 10
ENDMDL
MODEL 9
REMARK VINA RESULT:      -7.2      1.450      3.923
REMARK  Name = 
REMARK  11 active torsions:
REMARK  status: ('A' for Active; 'I' for Inactive)
REMARK    1  A    between atoms: C_1  and  C_2
REMARK    2  A    between atoms: C_2  and  N_3
REMARK    3  A    between atoms: C_4  and  S_5
REMARK    4  A    between atoms: S_5  and  C_6
REMARK    5  A    between atoms: C_6  and  C_7
REMARK    6  A    between atoms: C_14  and  N_15
REMARK    7  A    between atoms: C_16  and  N_17
REMARK    8  A    between atoms: N_17  and  C_18
REMARK    9  A    between atoms: N_17  and  C_25
REMARK   10  A    between atoms: C_18  and  C_19
REMARK   11  A    between atoms: C_25  and  C_26
REMARK                            x       y       z     vdW  Elec       q    Type
REMARK                         _______ _______ _______ _____ _____    ______ ____
ROOT
ATOM      1  N   UNL     1       0.578   9.120  21.058  0.00  0.00    +0.000 N 
ATOM      2  C   UNL     1       0.792  10.257  20.309  0.00  0.00    +0.000 A 
ATOM      3  N   UNL     1       1.286  10.249  19.117  0.00  0.00    +0.000 NA
ATOM      4  C   UNL     1       1.707   9.058  18.577  0.00  0.00    +0.000 A 
ATOM      5  C   UNL     1       1.856   7.930  19.315  0.00  0.00    +0.000 A 
ATOM      6  C   UNL     1       1.086   7.910  20.604  0.00  0.00    +0.000 A 
ATOM      7  O   UNL     1       0.882   6.841  21.182  0.00  0.00    +0.000 OA
ENDROOT
BRANCH   4   8
ATOM      8  N   UNL     1       2.067   9.073  17.243  0.00  0.00    +0.000 N 
ATOM      9  H   UNL     1       1.831   9.934  16.766  0.00  0.00    +0.000 HD
ATOM     10  H   UNL     1       1.790   8.218  16.776  0.00  0.00    +0.000 HD
ENDBRANCH   4   8
BRANCH   1  12
ATOM     11  C   UNL     1       0.279   9.412  23.526  0.00  0.00    +0.000 C 
ATOM     12  C   UNL     1      -0.347   9.040  22.191  0.00  0.00    +0.000 C 
ENDBRANCH   1  12
BRANCH   2  13
ATOM     13  S   UNL     1       0.458  11.811  21.080  0.00  0.00    +0.000 S 
BRANCH  13  14
ATOM     14  C   UNL     1      -1.095  12.321  20.291  0.00  0.00    +0.000 C 
BRANCH  14  15
ATOM     15  C   UNL     1      -2.226  12.522  21.285  0.00  0.00    +0.000 A 
ATOM     16  C   UNL     1      -3.458  13.062  20.876  0.00  0.00    +0.000 A 
ATOM     17  C   UNL     1      -4.521  13.199  21.770  0.00  0.00    +0.000 A 
ATOM     18  C   UNL     1      -4.370  12.811  23.100  0.00  0.00    +0.000 A 
ATOM     19  C   UNL     1      -3.146  12.287  23.528  0.00  0.00    +0.000 A 
ATOM     20  C   UNL     1      -2.086  12.149  22.631  0.00  0.00    +0.000 A 
ENDBRANCH  14  15
ENDBRANCH  13  14
ENDBRANCH   2  13
BRANCH   5  21
ATOM     21  N   UNL     1       2.582   6.762  18.967  0.00  0.00    +0.000 N 
BRANCH  21  22
ATOM     22  C   UNL     1       2.034   5.841  17.951  0.00  0.00    +0.000 C 
BRANCH  22  23
ATOM     23  C   UNL     1       1.891   4.390  18.387  0.00  0.00    +0.000 A 
ATOM     24  C   UNL     1       1.295   4.004  19.593  0.00  0.00    +0.000 A 
ATOM     25  C   UNL     1       1.380   2.686  20.051  0.00  0.00    +0.000 A 
ATOM     26  C   UNL     1       1.975   1.709  19.259  0.00  0.00    +0.000 A 
ATOM     27  C   UNL     1       2.440   2.044  17.990  0.00  0.00    +0.000 A 
ATOM     28  C   UNL     1       2.400   3.374  17.559  0.00  0.00    +0.000 A 
ENDBRANCH  22  23
ENDBRANCH  21  22
BRANCH  21  29
ATOM     29  C   UNL     1       4.048   6.722  19.164  0.00  0.00    +0.000 C 
BRANCH  29  30
ATOM     30  C   UNL     1       4.790   6.124  17.979  0.00  0.00    +0.000 A 
ATOM     31  C   UNL     1       4.688   6.695  16.699  0.00  0.00    +0.000 A 
ATOM     32  C   UNL     1       5.348   6.135  15.603  0.00  0.00    +0.000 A 
ATOM     33  C   UNL     1       6.148   5.009  15.779  0.00  0.00    +0.000 A 
ATOM     34  C   UNL     1       6.282   4.445  17.041  0.00  0.00    +0.000 A 
ATOM     35  C   UNL     1       5.603   4.994  18.133  0.00  0.00    +0.000 A 
ENDBRANCH  29  30
ENDBRANCH  21  29
ENDBRANCH   5  21
TORSDOF 10
ENDMDL
