MODEL 1
REMARK VINA RESULT:      -6.9      0.000      0.000
REMARK  Name = 
REMARK  2 active torsions:
REMARK  status: ('A' for Active; 'I' for Inactive)
REMARK    1  A    between atoms: N_2  and  C_3
REMARK    2  A    between atoms: C_14  and  N_15
REMARK                            x       y       z     vdW  Elec       q    Type
REMARK                         _______ _______ _______ _____ _____    ______ ____
ROOT
ATOM      1  C   UNL     1       7.481   6.189  17.606  0.00  0.00    +0.000 C 
ATOM      2  C   UNL     1       6.789   5.338  16.581  0.00  0.00    +0.000 A 
ATOM      3  C   UNL     1       7.187   5.025  15.285  0.00  0.00    +0.000 A 
ATOM      4  C   UNL     1       6.314   4.210  14.542  0.00  0.00    +0.000 A 
ATOM      5  C   UNL     1       5.101   3.734  15.076  0.00  0.00    +0.000 A 
ATOM      6  C   UNL     1       4.731   4.060  16.392  0.00  0.00    +0.000 A 
ATOM      7  C   UNL     1       3.559   3.665  17.062  0.00  0.00    +0.000 A 
ATOM      8  C   UNL     1       3.329   4.072  18.391  0.00  0.00    +0.000 A 
ATOM      9  C   UNL     1       4.249   4.871  19.094  0.00  0.00    +0.000 A 
ATOM     10  C   UNL     1       5.400   5.241  18.407  0.00  0.00    +0.000 A 
ATOM     11  C   UNL     1       5.606   4.848  17.099  0.00  0.00    +0.000 A 
ATOM     12  C   UNL     1       6.559   6.067  18.883  0.00  0.00    +0.000 C 
ENDROOT
BRANCH   1  14
ATOM     13  O   UNL     1       8.091   8.354  17.964  0.00  0.00    +0.000 OA
ATOM     14  N   UNL     1       7.524   7.619  17.147  0.00  0.00    +0.000 NA
ENDBRANCH   1  14
BRANCH  12  15
ATOM     15  N   UNL     1       7.296   5.346  19.976  0.00  0.00    +0.000 NA
ATOM     16  O   UNL     1       8.474   5.124  19.678  0.00  0.00    +0.000 OA
ENDBRANCH  12  15
TORSDOF 2
ENDMDL
MODEL 2
REMARK VINA RESULT:      -6.9      0.030      3.311
REMARK  Name = 
REMARK  2 active torsions:
REMARK  status: ('A' for Active; 'I' for Inactive)
REMARK    1  A    between atoms: N_2  and  C_3
REMARK    2  A    between atoms: C_14  and  N_15
REMARK                            x       y       z     vdW  Elec       q    Type
REMARK                         _______ _______ _______ _____ _____    ______ ____
ROOT
ATOM      1  C   UNL     1       6.574   6.061  18.884  0.00  0.00    +0.000 C 
ATOM      2  C   UNL     1       5.406   5.249  18.404  0.00  0.00    +0.000 A 
ATOM      3  C   UNL     1       4.243   4.896  19.081  0.00  0.00    +0.000 A 
ATOM      4  C   UNL     1       3.322   4.104  18.373  0.00  0.00    +0.000 A 
ATOM      5  C   UNL     1       3.560   3.686  17.048  0.00  0.00    +0.000 A 
ATOM      6  C   UNL     1       4.741   4.066  16.388  0.00  0.00    +0.000 A 
ATOM      7  C   UNL     1       5.120   3.730  15.076  0.00  0.00    +0.000 A 
ATOM      8  C   UNL     1       6.342   4.193  14.549  0.00  0.00    +0.000 A 
ATOM      9  C   UNL     1       7.216   5.003  15.297  0.00  0.00    +0.000 A 
ATOM     10  C   UNL     1       6.810   5.323  16.589  0.00  0.00    +0.000 A 
ATOM     11  C   UNL     1       5.618   4.849  17.099  0.00  0.00    +0.000 A 
ATOM     12  C   UNL     1       7.508   6.167  17.614  0.00  0.00    +0.000 C 
ENDROOT
BRANCH   1  14
ATOM     13  O   UNL     1       8.478   5.113  19.700  0.00  0.00    +0.000 OA
ATOM     14  N   UNL     1       7.294   5.331  19.982  0.00  0.00    +0.000 NA
ENDBRANCH   1  14
BRANCH  12  15
ATOM     15  N   UNL     1       7.577   7.595  17.151  0.00  0.00    +0.000 NA
ATOM     16  O   UNL     1       8.102   8.334  17.990  0.00  0.00    +0.000 OA
ENDBRANCH  12  15
TORSDOF 2
ENDMDL
MODEL 3
REMARK VINA RESULT:      -6.8      3.313      5.032
REMARK  Name = 
REMARK  2 active torsions:
REMARK  status: ('A' for Active; 'I' for Inactive)
REMARK    1  A    between atoms: N_2  and  C_3
REMARK    2  A    between atoms: C_14  and  N_15
REMARK                            x       y       z     vdW  Elec       q    Type
REMARK                         _______ _______ _______ _____ _____    ______ ____
ROOT
ATOM      1  C   UNL     1       2.928   3.981  19.705  0.00  0.00    +0.000 C 
ATOM      2  C   UNL     1       2.917   5.383  19.166  0.00  0.00    +0.000 A 
ATOM      3  C   UNL     1       2.197   6.488  19.607  0.00  0.00    +0.000 A 
ATOM      4  C   UNL     1       2.379   7.682  18.885  0.00  0.00    +0.000 A 
ATOM      5  C   UNL     1       3.242   7.759  17.775  0.00  0.00    +0.000 A 
ATOM      6  C   UNL     1       3.963   6.626  17.359  0.00  0.00    +0.000 A 
ATOM      7  C   UNL     1       4.856   6.545  16.276  0.00  0.00    +0.000 A 
ATOM      8  C   UNL     1       5.510   5.331  15.985  0.00  0.00    +0.000 A 
ATOM      9  C   UNL     1       5.306   4.172  16.755  0.00  0.00    +0.000 A 
ATOM     10  C   UNL     1       4.422   4.286  17.823  0.00  0.00    +0.000 A 
ATOM     11  C   UNL     1       3.775   5.477  18.088  0.00  0.00    +0.000 A 
ATOM     12  C   UNL     1       4.012   3.246  18.823  0.00  0.00    +0.000 C 
ENDROOT
BRANCH   1  14
ATOM     13  O   UNL     1       1.677   2.121  19.300  0.00  0.00    +0.000 OA
ATOM     14  N   UNL     1       1.585   3.338  19.499  0.00  0.00    +0.000 NA
ENDBRANCH   1  14
BRANCH  12  15
ATOM     15  N   UNL     1       5.185   2.857  19.678  0.00  0.00    +0.000 NA
ATOM     16  O   UNL     1       4.911   1.942  20.462  0.00  0.00    +0.000 OA
ENDBRANCH  12  15
TORSDOF 2
ENDMDL
MODEL 4
REMARK VINA RESULT:      -6.8      3.373      4.438
REMARK  Name = 
REMARK  2 active torsions:
REMARK  status: ('A' for Active; 'I' for Inactive)
REMARK    1  A    between atoms: N_2  and  C_3
REMARK    2  A    between atoms: C_14  and  N_15
REMARK                            x       y       z     vdW  Elec       q    Type
REMARK                         _______ _______ _______ _____ _____    ______ ____
ROOT
ATOM      1  C   UNL     1       4.005   3.247  18.752  0.00  0.00    +0.000 C 
ATOM      2  C   UNL     1       4.428   4.286  17.754  0.00  0.00    +0.000 A 
ATOM      3  C   UNL     1       5.315   4.172  16.689  0.00  0.00    +0.000 A 
ATOM      4  C   UNL     1       5.530   5.334  15.926  0.00  0.00    +0.000 A 
ATOM      5  C   UNL     1       4.885   6.551  16.221  0.00  0.00    +0.000 A 
ATOM      6  C   UNL     1       3.987   6.632  17.300  0.00  0.00    +0.000 A 
ATOM      7  C   UNL     1       3.271   7.768  17.717  0.00  0.00    +0.000 A 
ATOM      8  C   UNL     1       2.399   7.691  18.822  0.00  0.00    +0.000 A 
ATOM      9  C   UNL     1       2.206   6.495  19.535  0.00  0.00    +0.000 A 
ATOM     10  C   UNL     1       2.923   5.388  19.094  0.00  0.00    +0.000 A 
ATOM     11  C   UNL     1       3.787   5.481  18.020  0.00  0.00    +0.000 A 
ATOM     12  C   UNL     1       2.921   3.987  19.632  0.00  0.00    +0.000 C 
ENDROOT
BRANCH   1  14
ATOM     13  O   UNL     1       4.893   1.927  20.382  0.00  0.00    +0.000 OA
ATOM     14  N   UNL     1       5.172   2.854  19.613  0.00  0.00    +0.000 NA
ENDBRANCH   1  14
BRANCH  12  15
ATOM     15  N   UNL     1       1.576   3.352  19.421  0.00  0.00    +0.000 NA
ATOM     16  O   UNL     1       0.896   3.343  20.452  0.00  0.00    +0.000 OA
ENDBRANCH  12  15
TORSDOF 2
ENDMDL
MODEL 5
REMARK VINA RESULT:      -6.7      3.493      5.460
REMARK  Name = 
REMARK  2 active torsions:
REMARK  status: ('A' for Active; 'I' for Inactive)
REMARK    1  A    between atoms: N_2  and  C_3
REMARK    2  A    between atoms: C_14  and  N_15
REMARK                            x       y       z     vdW  Elec       q    Type
REMARK                         _______ _______ _______ _____ _____    ______ ____
ROOT
ATOM      1  C   UNL     1       2.756   3.149  20.358  0.00  0.00    +0.000 C 
ATOM      2  C   UNL     1       2.609   4.603  20.014  0.00  0.00    +0.000 A 
ATOM      3  C   UNL     1       1.873   5.590  20.662  0.00  0.00    +0.000 A 
ATOM      4  C   UNL     1       1.912   6.875  20.093  0.00  0.00    +0.000 A 
ATOM      5  C   UNL     1       2.653   7.154  18.928  0.00  0.00    +0.000 A 
ATOM      6  C   UNL     1       3.394   6.137  18.300  0.00  0.00    +0.000 A 
ATOM      7  C   UNL     1       4.177   6.258  17.139  0.00  0.00    +0.000 A 
ATOM      8  C   UNL     1       4.868   5.140  16.630  0.00  0.00    +0.000 A 
ATOM      9  C   UNL     1       4.811   3.882  17.254  0.00  0.00    +0.000 A 
ATOM     10  C   UNL     1       4.033   3.796  18.404  0.00  0.00    +0.000 A 
ATOM     11  C   UNL     1       3.347   4.894  18.884  0.00  0.00    +0.000 A 
ATOM     12  C   UNL     1       3.787   2.610  19.290  0.00  0.00    +0.000 C 
ENDROOT
BRANCH   1  14
ATOM     13  O   UNL     1       1.206   2.163  19.010  0.00  0.00    +0.000 OA
ATOM     14  N   UNL     1       1.439   2.443  20.192  0.00  0.00    +0.000 NA
ENDBRANCH   1  14
BRANCH  12  15
ATOM     15  N   UNL     1       5.060   2.200  19.974  0.00  0.00    +0.000 NA
ATOM     16  O   UNL     1       4.873   1.859  21.147  0.00  0.00    +0.000 OA
ENDBRANCH  12  15
TORSDOF 2
ENDMDL
MODEL 6
REMARK VINA RESULT:      -6.7      3.506      4.786
REMARK  Name = 
REMARK  2 active torsions:
REMARK  status: ('A' for Active; 'I' for Inactive)
REMARK    1  A    between atoms: N_2  and  C_3
REMARK    2  A    between atoms: C_14  and  N_15
REMARK                            x       y       z     vdW  Elec       q    Type
REMARK                         _______ _______ _______ _____ _____    ______ ____
ROOT
ATOM      1  C   UNL     1       3.794   2.610  19.413  0.00  0.00    +0.000 C 
ATOM      2  C   UNL     1       4.060   3.665  18.378  0.00  0.00    +0.000 A 
ATOM      3  C   UNL     1       4.779   3.571  17.191  0.00  0.00    +0.000 A 
ATOM      4  C   UNL     1       4.875   4.744  16.422  0.00  0.00    +0.000 A 
ATOM      5  C   UNL     1       4.277   5.954  16.828  0.00  0.00    +0.000 A 
ATOM      6  C   UNL     1       3.549   6.015  18.029  0.00  0.00    +0.000 A 
ATOM      7  C   UNL     1       2.900   7.141  18.566  0.00  0.00    +0.000 A 
ATOM      8  C   UNL     1       2.203   7.044  19.787  0.00  0.00    +0.000 A 
ATOM      9  C   UNL     1       2.122   5.837  20.503  0.00  0.00    +0.000 A 
ATOM     10  C   UNL     1       2.768   4.740  19.943  0.00  0.00    +0.000 A 
ATOM     11  C   UNL     1       3.462   4.853  18.755  0.00  0.00    +0.000 A 
ATOM     12  C   UNL     1       2.851   3.332  20.455  0.00  0.00    +0.000 C 
ENDROOT
BRANCH   1  14
ATOM     13  O   UNL     1       4.893   1.794  21.234  0.00  0.00    +0.000 OA
ATOM     14  N   UNL     1       5.078   2.210  20.084  0.00  0.00    +0.000 NA
ENDBRANCH   1  14
BRANCH  12  15
ATOM     15  N   UNL     1       1.492   2.693  20.438  0.00  0.00    +0.000 NA
ATOM     16  O   UNL     1       1.005   2.597  21.570  0.00  0.00    +0.000 OA
ENDBRANCH  12  15
TORSDOF 2
ENDMDL
MODEL 7
REMARK VINA RESULT:      -6.6      3.484      4.827
REMARK  Name = 
REMARK  2 active torsions:
REMARK  status: ('A' for Active; 'I' for Inactive)
REMARK    1  A    between atoms: N_2  and  C_3
REMARK    2  A    between atoms: C_14  and  N_15
REMARK                            x       y       z     vdW  Elec       q    Type
REMARK                         _______ _______ _______ _____ _____    ______ ____
ROOT
ATOM      1  C   UNL     1       3.829   3.101  19.055  0.00  0.00    +0.000 C 
ATOM      2  C   UNL     1       3.982   4.399  18.316  0.00  0.00    +0.000 A 
ATOM      3  C   UNL     1       4.747   4.684  17.189  0.00  0.00    +0.000 A 
ATOM      4  C   UNL     1       4.706   6.010  16.724  0.00  0.00    +0.000 A 
ATOM      5  C   UNL     1       3.934   7.001  17.362  0.00  0.00    +0.000 A 
ATOM      6  C   UNL     1       3.165   6.680  18.493  0.00  0.00    +0.000 A 
ATOM      7  C   UNL     1       2.349   7.553  19.235  0.00  0.00    +0.000 A 
ATOM      8  C   UNL     1       1.631   7.078  20.351  0.00  0.00    +0.000 A 
ATOM      9  C   UNL     1       1.693   5.734  20.758  0.00  0.00    +0.000 A 
ATOM     10  C   UNL     1       2.503   4.894  20.001  0.00  0.00    +0.000 A 
ATOM     11  C   UNL     1       3.214   5.375  18.919  0.00  0.00    +0.000 A 
ATOM     12  C   UNL     1       2.762   3.426  20.173  0.00  0.00    +0.000 C 
ENDROOT
BRANCH   1  14
ATOM     13  O   UNL     1       4.991   1.825  20.542  0.00  0.00    +0.000 OA
ATOM     14  N   UNL     1       5.133   2.716  19.697  0.00  0.00    +0.000 NA
ENDBRANCH   1  14
BRANCH  12  15
ATOM     15  N   UNL     1       1.504   2.644  19.918  0.00  0.00    +0.000 NA
ATOM     16  O   UNL     1       1.580   1.957  18.894  0.00  0.00    +0.000 OA
ENDBRANCH  12  15
TORSDOF 2
ENDMDL
MODEL 8
REMARK VINA RESULT:      -6.6      2.519      3.667
REMARK  Name = 
REMARK  2 active torsions:
REMARK  status: ('A' for Active; 'I' for Inactive)
REMARK    1  A    between atoms: N_2  and  C_3
REMARK    2  A    between atoms: C_14  and  N_15
REMARK                            x       y       z     vdW  Elec       q    Type
REMARK                         _______ _______ _______ _____ _____    ______ ____
ROOT
ATOM      1  C   UNL     1       5.804   4.211  16.387  0.00  0.00    +0.000 C 
ATOM      2  C   UNL     1       4.489   3.939  17.059  0.00  0.00    +0.000 A 
ATOM      3  C   UNL     1       3.889   2.720  17.356  0.00  0.00    +0.000 A 
ATOM      4  C   UNL     1       2.631   2.777  17.982  0.00  0.00    +0.000 A 
ATOM      5  C   UNL     1       2.008   4.002  18.294  0.00  0.00    +0.000 A 
ATOM      6  C   UNL     1       2.644   5.217  17.990  0.00  0.00    +0.000 A 
ATOM      7  C   UNL     1       2.153   6.511  18.236  0.00  0.00    +0.000 A 
ATOM      8  C   UNL     1       2.914   7.641  17.874  0.00  0.00    +0.000 A 
ATOM      9  C   UNL     1       4.178   7.523  17.269  0.00  0.00    +0.000 A 
ATOM     10  C   UNL     1       4.639   6.230  17.044  0.00  0.00    +0.000 A 
ATOM     11  C   UNL     1       3.876   5.132  17.389  0.00  0.00    +0.000 A 
ATOM     12  C   UNL     1       5.936   5.784  16.436  0.00  0.00    +0.000 C 
ENDROOT
BRANCH   1  14
ATOM     13  O   UNL     1       6.609   4.312  14.258  0.00  0.00    +0.000 OA
ATOM     14  N   UNL     1       5.757   3.752  14.956  0.00  0.00    +0.000 NA
ENDBRANCH   1  14
BRANCH  12  15
ATOM     15  N   UNL     1       7.085   6.170  17.324  0.00  0.00    +0.000 NA
ATOM     16  O   UNL     1       7.772   7.074  16.835  0.00  0.00    +0.000 OA
ENDBRANCH  12  15
TORSDOF 2
ENDMDL
MODEL 9
REMARK VINA RESULT:      -6.6      2.981      5.028
REMARK  Name = 
REMARK  2 active torsions:
REMARK  status: ('A' for Active; 'I' for Inactive)
REMARK    1  A    between atoms: N_2  and  C_3
REMARK    2  A    between atoms: C_14  and  N_15
REMARK                            x       y       z     vdW  Elec       q    Type
REMARK                         _______ _______ _______ _____ _____    ______ ____
ROOT
ATOM      1  C   UNL     1       4.385   3.244  18.558  0.00  0.00    +0.000 C 
ATOM      2  C   UNL     1       3.403   4.022  19.385  0.00  0.00    +0.000 A 
ATOM      3  C   UNL     1       2.664   3.611  20.490  0.00  0.00    +0.000 A 
ATOM      4  C   UNL     1       1.801   4.566  21.056  0.00  0.00    +0.000 A 
ATOM      5  C   UNL     1       1.686   5.871  20.536  0.00  0.00    +0.000 A 
ATOM      6  C   UNL     1       2.453   6.258  19.423  0.00  0.00    +0.000 A 
ATOM      7  C   UNL     1       2.449   7.515  18.793  0.00  0.00    +0.000 A 
ATOM      8  C   UNL     1       3.283   7.755  17.682  0.00  0.00    +0.000 A 
ATOM      9  C   UNL     1       4.143   6.767  17.171  0.00  0.00    +0.000 A 
ATOM     10  C   UNL     1       4.129   5.537  17.820  0.00  0.00    +0.000 A 
ATOM     11  C   UNL     1       3.295   5.310  18.897  0.00  0.00    +0.000 A 
ATOM     12  C   UNL     1       4.932   4.305  17.524  0.00  0.00    +0.000 C 
ENDROOT
BRANCH   1  14
ATOM     13  O   UNL     1       3.779   1.053  18.407  0.00  0.00    +0.000 OA
ATOM     14  N   UNL     1       3.679   2.138  17.823  0.00  0.00    +0.000 NA
ENDBRANCH   1  14
BRANCH  12  15
ATOM     15  N   UNL     1       6.390   4.561  17.782  0.00  0.00    +0.000 NA
ATOM     16  O   UNL     1       6.660   4.559  18.988  0.00  0.00    +0.000 OA
ENDBRANCH  12  15
TORSDOF 2
ENDMDL
