MODEL 1
REMARK VINA RESULT:      -9.4      0.000      0.000
REMARK  Name = 
REMARK  7 active torsions:
REMARK  status: ('A' for Active; 'I' for Inactive)
REMARK    1  A    between atoms: C_1  and  C_2
REMARK    2  A    between atoms: C_4  and  N_5
REMARK    3  A    between atoms: C_8  and  C_9
REMARK    4  A    between atoms: C_8  and  C_24
REMARK    5  A    between atoms: C_9  and  O_10
REMARK    6  A    between atoms: O_10  and  C_11
REMARK    7  A    between atoms: C_24  and  O_26
REMARK                            x       y       z     vdW  Elec       q    Type
REMARK                         _______ _______ _______ _____ _____    ______ ____
ROOT
ATOM      1  C   UNL     1       1.070   5.702  20.529  0.00  0.00    +0.000 C 
ENDROOT
BRANCH   1   5
ATOM      2  N   UNL     1       4.097   4.055  18.094  0.00  0.00    +0.000 N 
ATOM      3  C   UNL     1       2.772   3.921  17.507  0.00  0.00    +0.000 C 
ATOM      4  C   UNL     1       1.845   4.872  18.263  0.00  0.00    +0.000 C 
ATOM      5  C   UNL     1       1.828   4.586  19.782  0.00  0.00    +0.000 C 
ATOM      6  C   UNL     1       3.282   4.528  20.334  0.00  0.00    +0.000 C 
ATOM      7  C   UNL     1       4.212   3.645  19.494  0.00  0.00    +0.000 C 
BRANCH   2  11
ATOM      8  C   UNL     1       6.255   3.967  13.635  0.00  0.00    +0.000 C 
ATOM      9  C   UNL     1       6.302   4.176  15.120  0.00  0.00    +0.000 A 
ATOM     10  C   UNL     1       5.178   3.932  15.910  0.00  0.00    +0.000 A 
ATOM     11  C   UNL     1       5.217   4.170  17.289  0.00  0.00    +0.000 A 
ATOM     12  C   UNL     1       6.428   4.624  17.813  0.00  0.00    +0.000 A 
ATOM     13  C   UNL     1       7.499   4.848  16.961  0.00  0.00    +0.000 A 
ATOM     14  N   UNL     1       7.463   4.637  15.631  0.00  0.00    +0.000 NA
ENDBRANCH   2  11
BRANCH   5  15
ATOM     15  C   UNL     1       1.120   3.258  20.059  0.00  0.00    +0.000 C 
ATOM     16  O   UNL     1       0.423   2.663  19.245  0.00  0.00    +0.000 OA
BRANCH  15  17
ATOM     17  O   UNL     1       1.303   2.773  21.308  0.00  0.00    +0.000 OA
ATOM     18  H   UNL     1       0.593   2.158  21.594  0.00  0.00    +0.000 HD
ENDBRANCH  15  17
ENDBRANCH   5  15
ENDBRANCH   1   5
BRANCH   1  19
ATOM     19  O   UNL     1       1.949   6.817  20.757  0.00  0.00    +0.000 OA
BRANCH  19  20
ATOM     20  C   UNL     1       1.379   8.064  20.740  0.00  0.00    +0.000 A 
ATOM     21  C   UNL     1       1.273   8.683  21.991  0.00  0.00    +0.000 A 
ATOM     22  C   UNL     1       0.678   9.941  22.116  0.00  0.00    +0.000 A 
ATOM     23  C   UNL     1       0.168  10.579  20.985  0.00  0.00    +0.000 A 
ATOM     24  C   UNL     1       0.289   9.979  19.724  0.00  0.00    +0.000 A 
ATOM     25  C   UNL     1       0.907   8.725  19.608  0.00  0.00    +0.000 A 
ATOM     26  C   UNL     1      -0.203  10.739  18.510  0.00  0.00    +0.000 C 
ATOM     27  N   UNL     1      -1.474  11.428  18.755  0.00  0.00    +0.000 N 
ATOM     28  C   UNL     1      -2.335  11.688  17.728  0.00  0.00    +0.000 C 
ATOM     29  N   UNL     1      -2.038  11.797  16.481  0.00  0.00    +0.000 NA
ATOM     30  N   UNL     1      -3.635  11.824  18.064  0.00  0.00    +0.000 N 
ATOM     31  C   UNL     1      -1.762  11.872  20.131  0.00  0.00    +0.000 C 
ATOM     32  C   UNL     1      -0.526  11.911  21.038  0.00  0.00    +0.000 C 
ATOM     33  H   UNL     1      -1.028  11.738  16.360  0.00  0.00    +0.000 HD
ATOM     34  H   UNL     1      -3.953  11.164  18.758  0.00  0.00    +0.000 HD
ATOM     35  H   UNL     1      -4.205  11.779  17.223  0.00  0.00    +0.000 HD
ENDBRANCH  19  20
ENDBRANCH   1  19
TORSDOF 6
ENDMDL
MODEL 2
REMARK VINA RESULT:      -9.1      1.600      2.344
REMARK  Name = 
REMARK  7 active torsions:
REMARK  status: ('A' for Active; 'I' for Inactive)
REMARK    1  A    between atoms: C_1  and  C_2
REMARK    2  A    between atoms: C_4  and  N_5
REMARK    3  A    between atoms: C_8  and  C_9
REMARK    4  A    between atoms: C_8  and  C_24
REMARK    5  A    between atoms: C_9  and  O_10
REMARK    6  A    between atoms: O_10  and  C_11
REMARK    7  A    between atoms: C_24  and  O_26
REMARK                            x       y       z     vdW  Elec       q    Type
REMARK                         _______ _______ _______ _____ _____    ______ ____
ROOT
ATOM      1  C   UNL     1       1.109   5.468  20.472  0.00  0.00    +0.000 C 
ENDROOT
BRANCH   1   5
ATOM      2  N   UNL     1       4.118   3.952  17.932  0.00  0.00    +0.000 N 
ATOM      3  C   UNL     1       2.786   3.830  17.358  0.00  0.00    +0.000 C 
ATOM      4  C   UNL     1       1.861   4.739  18.163  0.00  0.00    +0.000 C 
ATOM      5  C   UNL     1       1.867   4.391  19.669  0.00  0.00    +0.000 C 
ATOM      6  C   UNL     1       3.328   4.324  20.201  0.00  0.00    +0.000 C 
ATOM      7  C   UNL     1       4.255   3.484  19.312  0.00  0.00    +0.000 C 
BRANCH   2  11
ATOM      8  C   UNL     1       6.249   3.919  13.460  0.00  0.00    +0.000 C 
ATOM      9  C   UNL     1       6.295   4.144  14.942  0.00  0.00    +0.000 A 
ATOM     10  C   UNL     1       5.189   3.857  15.742  0.00  0.00    +0.000 A 
ATOM     11  C   UNL     1       5.226   4.110  17.118  0.00  0.00    +0.000 A 
ATOM     12  C   UNL     1       6.418   4.623  17.630  0.00  0.00    +0.000 A 
ATOM     13  C   UNL     1       7.473   4.888  16.769  0.00  0.00    +0.000 A 
ATOM     14  N   UNL     1       7.438   4.663  15.441  0.00  0.00    +0.000 NA
ENDBRANCH   2  11
BRANCH   5  15
ATOM     15  C   UNL     1       1.174   3.047  19.900  0.00  0.00    +0.000 C 
ATOM     16  O   UNL     1       0.563   2.426  19.038  0.00  0.00    +0.000 OA
BRANCH  15  17
ATOM     17  O   UNL     1       1.266   2.577  21.165  0.00  0.00    +0.000 OA
ATOM     18  H   UNL     1       0.401   2.299  21.540  0.00  0.00    +0.000 HD
ENDBRANCH  15  17
ENDBRANCH   5  15
ENDBRANCH   1   5
BRANCH   1  19
ATOM     19  O   UNL     1       1.974   6.590  20.716  0.00  0.00    +0.000 OA
BRANCH  19  20
ATOM     20  C   UNL     1       1.531   7.815  20.287  0.00  0.00    +0.000 A 
ATOM     21  C   UNL     1       1.935   8.171  18.995  0.00  0.00    +0.000 A 
ATOM     22  C   UNL     1       1.582   9.409  18.453  0.00  0.00    +0.000 A 
ATOM     23  C   UNL     1       0.832  10.307  19.213  0.00  0.00    +0.000 A 
ATOM     24  C   UNL     1       0.402   9.952  20.500  0.00  0.00    +0.000 A 
ATOM     25  C   UNL     1       0.746   8.698  21.026  0.00  0.00    +0.000 A 
ATOM     26  C   UNL     1      -0.479  10.920  21.262  0.00  0.00    +0.000 C 
ATOM     27  N   UNL     1      -0.046  12.313  21.110  0.00  0.00    +0.000 N 
ATOM     28  C   UNL     1      -0.313  13.235  22.080  0.00  0.00    +0.000 C 
ATOM     29  N   UNL     1      -1.259  13.189  22.950  0.00  0.00    +0.000 NA
ATOM     30  N   UNL     1       0.521  14.296  22.136  0.00  0.00    +0.000 N 
ATOM     31  C   UNL     1       0.636  12.689  19.859  0.00  0.00    +0.000 C 
ATOM     32  C   UNL     1       0.447  11.675  18.723  0.00  0.00    +0.000 C 
ATOM     33  H   UNL     1      -1.854  12.381  22.770  0.00  0.00    +0.000 HD
ATOM     34  H   UNL     1       1.493  14.064  21.995  0.00  0.00    +0.000 HD
ATOM     35  H   UNL     1       0.381  14.785  23.016  0.00  0.00    +0.000 HD
ENDBRANCH  19  20
ENDBRANCH   1  19
TORSDOF 6
ENDMDL
MODEL 3
REMARK VINA RESULT:      -9.0      2.012      3.110
REMARK  Name = 
REMARK  7 active torsions:
REMARK  status: ('A' for Active; 'I' for Inactive)
REMARK    1  A    between atoms: C_1  and  C_2
REMARK    2  A    between atoms: C_4  and  N_5
REMARK    3  A    between atoms: C_8  and  C_9
REMARK    4  A    between atoms: C_8  and  C_24
REMARK    5  A    between atoms: C_9  and  O_10
REMARK    6  A    between atoms: O_10  and  C_11
REMARK    7  A    between atoms: C_24  and  O_26
REMARK                            x       y       z     vdW  Elec       q    Type
REMARK                         _______ _______ _______ _____ _____    ______ ____
ROOT
ATOM      1  C   UNL     1       3.242   5.410  18.613  0.00  0.00    +0.000 C 
ENDROOT
BRANCH   1   5
ATOM      2  N   UNL     1       6.110   4.424  15.680  0.00  0.00    +0.000 N 
ATOM      3  C   UNL     1       5.630   3.258  16.407  0.00  0.00    +0.000 C 
ATOM      4  C   UNL     1       4.355   3.675  17.137  0.00  0.00    +0.000 C 
ATOM      5  C   UNL     1       4.587   4.879  18.078  0.00  0.00    +0.000 C 
ATOM      6  C   UNL     1       5.298   6.032  17.311  0.00  0.00    +0.000 C 
ATOM      7  C   UNL     1       6.516   5.561  16.507  0.00  0.00    +0.000 C 
BRANCH   2  11
ATOM      8  C   UNL     1       5.804   2.328  11.201  0.00  0.00    +0.000 C 
ATOM      9  C   UNL     1       6.378   3.340  12.148  0.00  0.00    +0.000 A 
ATOM     10  C   UNL     1       6.018   3.339  13.496  0.00  0.00    +0.000 A 
ATOM     11  C   UNL     1       6.526   4.312  14.364  0.00  0.00    +0.000 A 
ATOM     12  C   UNL     1       7.416   5.238  13.818  0.00  0.00    +0.000 A 
ATOM     13  C   UNL     1       7.720   5.177  12.466  0.00  0.00    +0.000 A 
ATOM     14  N   UNL     1       7.221   4.253  11.621  0.00  0.00    +0.000 NA
ENDBRANCH   2  11
BRANCH   5  15
ATOM     15  C   UNL     1       5.443   4.454  19.273  0.00  0.00    +0.000 C 
ATOM     16  O   UNL     1       6.251   5.182  19.838  0.00  0.00    +0.000 OA
BRANCH  15  17
ATOM     17  O   UNL     1       5.260   3.175  19.670  0.00  0.00    +0.000 OA
ATOM     18  H   UNL     1       5.024   2.569  18.932  0.00  0.00    +0.000 HD
ENDBRANCH  15  17
ENDBRANCH   5  15
ENDBRANCH   1   5
BRANCH   1  19
ATOM     19  O   UNL     1       2.910   6.644  17.954  0.00  0.00    +0.000 OA
BRANCH  19  20
ATOM     20  C   UNL     1       2.298   7.605  18.716  0.00  0.00    +0.000 A 
ATOM     21  C   UNL     1       2.051   7.238  20.044  0.00  0.00    +0.000 A 
ATOM     22  C   UNL     1       1.399   8.113  20.916  0.00  0.00    +0.000 A 
ATOM     23  C   UNL     1       0.976   9.360  20.455  0.00  0.00    +0.000 A 
ATOM     24  C   UNL     1       1.238   9.748  19.133  0.00  0.00    +0.000 A 
ATOM     25  C   UNL     1       1.911   8.868  18.272  0.00  0.00    +0.000 A 
ATOM     26  C   UNL     1       0.835  11.140  18.693  0.00  0.00    +0.000 C 
ATOM     27  N   UNL     1      -0.478  11.535  19.211  0.00  0.00    +0.000 N 
ATOM     28  C   UNL     1      -1.247  12.443  18.541  0.00  0.00    +0.000 C 
ATOM     29  N   UNL     1      -0.838  13.344  17.719  0.00  0.00    +0.000 NA
ATOM     30  N   UNL     1      -2.577  12.366  18.756  0.00  0.00    +0.000 N 
ATOM     31  C   UNL     1      -0.912  10.961  20.498  0.00  0.00    +0.000 C 
ATOM     32  C   UNL     1       0.229  10.342  21.314  0.00  0.00    +0.000 C 
ATOM     33  H   UNL     1       0.181  13.344  17.687  0.00  0.00    +0.000 HD
ATOM     34  H   UNL     1      -2.935  11.424  18.800  0.00  0.00    +0.000 HD
ATOM     35  H   UNL     1      -3.062  12.913  18.049  0.00  0.00    +0.000 HD
ENDBRANCH  19  20
ENDBRANCH   1  19
TORSDOF 6
ENDMDL
MODEL 4
REMARK VINA RESULT:      -9.0      6.457      8.704
REMARK  Name = 
REMARK  7 active torsions:
REMARK  status: ('A' for Active; 'I' for Inactive)
REMARK    1  A    between atoms: C_1  and  C_2
REMARK    2  A    between atoms: C_4  and  N_5
REMARK    3  A    between atoms: C_8  and  C_9
REMARK    4  A    between atoms: C_8  and  C_24
REMARK    5  A    between atoms: C_9  and  O_10
REMARK    6  A    between atoms: O_10  and  C_11
REMARK    7  A    between atoms: C_24  and  O_26
REMARK                            x       y       z     vdW  Elec       q    Type
REMARK                         _______ _______ _______ _____ _____    ______ ____
ROOT
ATOM      1  C   UNL     1       8.319   7.506  18.132  0.00  0.00    +0.000 C 
ENDROOT
BRANCH   1   5
ATOM      2  N   UNL     1       4.545   5.704  18.691  0.00  0.00    +0.000 N 
ATOM      3  C   UNL     1       5.647   4.788  18.950  0.00  0.00    +0.000 C 
ATOM      4  C   UNL     1       6.910   5.633  19.098  0.00  0.00    +0.000 C 
ATOM      5  C   UNL     1       7.177   6.508  17.853  0.00  0.00    +0.000 C 
ATOM      6  C   UNL     1       5.900   7.317  17.480  0.00  0.00    +0.000 C 
ATOM      7  C   UNL     1       4.632   6.457  17.439  0.00  0.00    +0.000 C 
BRANCH   2  11
ATOM      8  C   UNL     1       1.210   2.933  21.087  0.00  0.00    +0.000 C 
ATOM      9  C   UNL     1       1.705   4.252  20.574  0.00  0.00    +0.000 A 
ATOM     10  C   UNL     1       2.863   4.327  19.800  0.00  0.00    +0.000 A 
ATOM     11  C   UNL     1       3.341   5.567  19.361  0.00  0.00    +0.000 A 
ATOM     12  C   UNL     1       2.590   6.689  19.710  0.00  0.00    +0.000 A 
ATOM     13  C   UNL     1       1.452   6.533  20.488  0.00  0.00    +0.000 A 
ATOM     14  N   UNL     1       0.995   5.345  20.929  0.00  0.00    +0.000 NA
ENDBRANCH   2  11
BRANCH   5  15
ATOM     15  C   UNL     1       7.590   5.628  16.671  0.00  0.00    +0.000 C 
ATOM     16  O   UNL     1       7.469   5.949  15.494  0.00  0.00    +0.000 OA
BRANCH  15  17
ATOM     17  O   UNL     1       8.097   4.423  17.017  0.00  0.00    +0.000 OA
ATOM     18  H   UNL     1       9.066   4.443  17.184  0.00  0.00    +0.000 HD
ENDBRANCH  15  17
ENDBRANCH   5  15
ENDBRANCH   1   5
BRANCH   1  19
ATOM     19  O   UNL     1       7.871   8.845  17.859  0.00  0.00    +0.000 OA
BRANCH  19  20
ATOM     20  C   UNL     1       8.668   9.866  18.309  0.00  0.00    +0.000 A 
ATOM     21  C   UNL     1       8.989   9.810  19.670  0.00  0.00    +0.000 A 
ATOM     22  C   UNL     1       9.764  10.810  20.261  0.00  0.00    +0.000 A 
ATOM     23  C   UNL     1      10.210  11.885  19.491  0.00  0.00    +0.000 A 
ATOM     24  C   UNL     1       9.914  11.940  18.122  0.00  0.00    +0.000 A 
ATOM     25  C   UNL     1       9.152  10.919  17.535  0.00  0.00    +0.000 A 
ATOM     26  C   UNL     1      10.483  13.079  17.303  0.00  0.00    +0.000 C 
ATOM     27  N   UNL     1      10.422  14.364  18.007  0.00  0.00    +0.000 N 
ATOM     28  C   UNL     1      10.355  15.537  17.312  0.00  0.00    +0.000 C 
ATOM     29  N   UNL     1      10.755  15.745  16.108  0.00  0.00    +0.000 NA
ATOM     30  N   UNL     1       9.791  16.578  17.960  0.00  0.00    +0.000 N 
ATOM     31  C   UNL     1      10.487  14.345  19.480  0.00  0.00    +0.000 C 
ATOM     32  C   UNL     1      11.010  13.024  20.058  0.00  0.00    +0.000 C 
ATOM     33  H   UNL     1      11.215  14.909  15.748  0.00  0.00    +0.000 HD
ATOM     34  H   UNL     1       8.977  16.334  18.504  0.00  0.00    +0.000 HD
ATOM     35  H   UNL     1       9.581  17.314  17.291  0.00  0.00    +0.000 HD
ENDBRANCH  19  20
ENDBRANCH   1  19
TORSDOF 6
ENDMDL
MODEL 5
REMARK VINA RESULT:      -8.8      2.682     10.222
REMARK  Name = 
REMARK  7 active torsions:
REMARK  status: ('A' for Active; 'I' for Inactive)
REMARK    1  A    between atoms: C_1  and  C_2
REMARK    2  A    between atoms: C_4  and  N_5
REMARK    3  A    between atoms: C_8  and  C_9
REMARK    4  A    between atoms: C_8  and  C_24
REMARK    5  A    between atoms: C_9  and  O_10
REMARK    6  A    between atoms: O_10  and  C_11
REMARK    7  A    between atoms: C_24  and  O_26
REMARK                            x       y       z     vdW  Elec       q    Type
REMARK                         _______ _______ _______ _____ _____    ______ ____
ROOT
ATOM      1  C   UNL     1       0.948   9.646  19.754  0.00  0.00    +0.000 C 
ENDROOT
BRANCH   1   5
ATOM      2  N   UNL     1      -2.611  11.774  18.974  0.00  0.00    +0.000 N 
ATOM      3  C   UNL     1      -1.769  11.640  17.795  0.00  0.00    +0.000 C 
ATOM      4  C   UNL     1      -0.741  10.551  18.095  0.00  0.00    +0.000 C 
ATOM      5  C   UNL     1       0.092  10.866  19.358  0.00  0.00    +0.000 C 
ATOM      6  C   UNL     1      -0.848  11.212  20.550  0.00  0.00    +0.000 C 
ATOM      7  C   UNL     1      -1.932  12.234  20.186  0.00  0.00    +0.000 C 
BRANCH   2  11
ATOM      8  C   UNL     1      -7.005  13.477  20.503  0.00  0.00    +0.000 C 
ATOM      9  C   UNL     1      -6.152  12.699  19.546  0.00  0.00    +0.000 A 
ATOM     10  C   UNL     1      -4.784  12.545  19.773  0.00  0.00    +0.000 A 
ATOM     11  C   UNL     1      -3.988  11.853  18.853  0.00  0.00    +0.000 A 
ATOM     12  C   UNL     1      -4.637  11.314  17.741  0.00  0.00    +0.000 A 
ATOM     13  C   UNL     1      -6.000  11.515  17.583  0.00  0.00    +0.000 A 
ATOM     14  N   UNL     1      -6.769  12.195  18.456  0.00  0.00    +0.000 NA
ENDBRANCH   2  11
BRANCH   5  15
ATOM     15  C   UNL     1       1.032  12.043  19.088  0.00  0.00    +0.000 C 
ATOM     16  O   UNL     1       1.192  12.989  19.850  0.00  0.00    +0.000 OA
BRANCH  15  17
ATOM     17  O   UNL     1       1.685  11.981  17.905  0.00  0.00    +0.000 OA
ATOM     18  H   UNL     1       1.542  12.771  17.340  0.00  0.00    +0.000 HD
ENDBRANCH  15  17
ENDBRANCH   5  15
ENDBRANCH   1   5
BRANCH   1  19
ATOM     19  O   UNL     1       1.789   9.265  18.652  0.00  0.00    +0.000 OA
BRANCH  19  20
ATOM     20  C   UNL     1       2.317   8.000  18.688  0.00  0.00    +0.000 A 
ATOM     21  C   UNL     1       1.885   7.209  19.758  0.00  0.00    +0.000 A 
ATOM     22  C   UNL     1       2.376   5.913  19.931  0.00  0.00    +0.000 A 
ATOM     23  C   UNL     1       3.321   5.408  19.037  0.00  0.00    +0.000 A 
ATOM     24  C   UNL     1       3.745   6.183  17.949  0.00  0.00    +0.000 A 
ATOM     25  C   UNL     1       3.229   7.475  17.774  0.00  0.00    +0.000 A 
ATOM     26  C   UNL     1       4.710   5.570  16.955  0.00  0.00    +0.000 C 
ATOM     27  N   UNL     1       5.760   4.779  17.605  0.00  0.00    +0.000 N 
ATOM     28  C   UNL     1       6.977   4.613  17.009  0.00  0.00    +0.000 C 
ATOM     29  N   UNL     1       7.239   4.695  15.753  0.00  0.00    +0.000 NA
ATOM     30  N   UNL     1       8.012   4.354  17.837  0.00  0.00    +0.000 N 
ATOM     31  C   UNL     1       5.438   4.132  18.890  0.00  0.00    +0.000 C 
ATOM     32  C   UNL     1       3.934   4.042  19.176  0.00  0.00    +0.000 C 
ATOM     33  H   UNL     1       6.375   4.831  15.228  0.00  0.00    +0.000 HD
ATOM     34  H   UNL     1       8.002   4.891  18.691  0.00  0.00    +0.000 HD
ATOM     35  H   UNL     1       8.884   4.480  17.331  0.00  0.00    +0.000 HD
ENDBRANCH  19  20
ENDBRANCH   1  19
TORSDOF 6
ENDMDL
MODEL 6
REMARK VINA RESULT:      -8.7      2.277      3.625
REMARK  Name = 
REMARK  7 active torsions:
REMARK  status: ('A' for Active; 'I' for Inactive)
REMARK    1  A    between atoms: C_1  and  C_2
REMARK    2  A    between atoms: C_4  and  N_5
REMARK    3  A    between atoms: C_8  and  C_9
REMARK    4  A    between atoms: C_8  and  C_24
REMARK    5  A    between atoms: C_9  and  O_10
REMARK    6  A    between atoms: O_10  and  C_11
REMARK    7  A    between atoms: C_24  and  O_26
REMARK                            x       y       z     vdW  Elec       q    Type
REMARK                         _______ _______ _______ _____ _____    ______ ____
ROOT
ATOM      1  C   UNL     1       2.931   5.548  18.518  0.00  0.00    +0.000 C 
ENDROOT
BRANCH   1   5
ATOM      2  N   UNL     1       5.916   4.479  15.734  0.00  0.00    +0.000 N 
ATOM      3  C   UNL     1       5.405   3.335  16.474  0.00  0.00    +0.000 C 
ATOM      4  C   UNL     1       4.101   3.772  17.139  0.00  0.00    +0.000 C 
ATOM      5  C   UNL     1       4.296   5.002  18.054  0.00  0.00    +0.000 C 
ATOM      6  C   UNL     1       5.039   6.133  17.285  0.00  0.00    +0.000 C 
ATOM      7  C   UNL     1       6.289   5.639  16.545  0.00  0.00    +0.000 C 
BRANCH   2  11
ATOM      8  C   UNL     1       5.696   2.362  11.261  0.00  0.00    +0.000 C 
ATOM      9  C   UNL     1       6.284   3.347  12.227  0.00  0.00    +0.000 A 
ATOM     10  C   UNL     1       5.862   3.380  13.556  0.00  0.00    +0.000 A 
ATOM     11  C   UNL     1       6.386   4.331  14.441  0.00  0.00    +0.000 A 
ATOM     12  C   UNL     1       7.352   5.198  13.930  0.00  0.00    +0.000 A 
ATOM     13  C   UNL     1       7.715   5.106  12.595  0.00  0.00    +0.000 A 
ATOM     14  N   UNL     1       7.203   4.205  11.734  0.00  0.00    +0.000 NA
ENDBRANCH   2  11
BRANCH   5  15
ATOM     15  C   UNL     1       5.102   4.611  19.295  0.00  0.00    +0.000 C 
ATOM     16  O   UNL     1       5.027   3.522  19.853  0.00  0.00    +0.000 OA
BRANCH  15  17
ATOM     17  O   UNL     1       5.916   5.582  19.766  0.00  0.00    +0.000 OA
ATOM     18  H   UNL     1       6.209   5.429  20.692  0.00  0.00    +0.000 HD
ENDBRANCH  15  17
ENDBRANCH   5  15
ENDBRANCH   1   5
BRANCH   1  19
ATOM     19  O   UNL     1       3.129   6.681  19.381  0.00  0.00    +0.000 OA
BRANCH  19  20
ATOM     20  C   UNL     1       2.231   7.710  19.262  0.00  0.00    +0.000 A 
ATOM     21  C   UNL     1       2.123   8.257  17.978  0.00  0.00    +0.000 A 
ATOM     22  C   UNL     1       1.270   9.335  17.731  0.00  0.00    +0.000 A 
ATOM     23  C   UNL     1       0.531   9.885  18.779  0.00  0.00    +0.000 A 
ATOM     24  C   UNL     1       0.613   9.332  20.065  0.00  0.00    +0.000 A 
ATOM     25  C   UNL     1       1.458   8.235  20.296  0.00  0.00    +0.000 A 
ATOM     26  C   UNL     1      -0.266   9.903  21.157  0.00  0.00    +0.000 C 
ATOM     27  N   UNL     1      -0.341  11.367  21.111  0.00  0.00    +0.000 N 
ATOM     28  C   UNL     1      -0.589  12.088  22.243  0.00  0.00    +0.000 C 
ATOM     29  N   UNL     1      -1.188  11.677  23.304  0.00  0.00    +0.000 NA
ATOM     30  N   UNL     1      -0.139  13.361  22.246  0.00  0.00    +0.000 N 
ATOM     31  C   UNL     1      -0.190  12.022  19.799  0.00  0.00    +0.000 C 
ATOM     32  C   UNL     1      -0.375  11.072  18.609  0.00  0.00    +0.000 C 
ATOM     33  H   UNL     1      -1.534  10.729  23.160  0.00  0.00    +0.000 HD
ATOM     34  H   UNL     1       0.775  13.476  21.834  0.00  0.00    +0.000 HD
ATOM     35  H   UNL     1      -0.165  13.722  23.195  0.00  0.00    +0.000 HD
ENDBRANCH  19  20
ENDBRANCH   1  19
TORSDOF 6
ENDMDL
MODEL 7
REMARK VINA RESULT:      -8.7      1.112      1.278
REMARK  Name = 
REMARK  7 active torsions:
REMARK  status: ('A' for Active; 'I' for Inactive)
REMARK    1  A    between atoms: C_1  and  C_2
REMARK    2  A    between atoms: C_4  and  N_5
REMARK    3  A    between atoms: C_8  and  C_9
REMARK    4  A    between atoms: C_8  and  C_24
REMARK    5  A    between atoms: C_9  and  O_10
REMARK    6  A    between atoms: O_10  and  C_11
REMARK    7  A    between atoms: C_24  and  O_26
REMARK                            x       y       z     vdW  Elec       q    Type
REMARK                         _______ _______ _______ _____ _____    ______ ____
ROOT
ATOM      1  C   UNL     1       1.043   5.333  20.514  0.00  0.00    +0.000 C 
ENDROOT
BRANCH   1   5
ATOM      2  N   UNL     1       4.076   3.892  17.959  0.00  0.00    +0.000 N 
ATOM      3  C   UNL     1       2.753   3.806  17.360  0.00  0.00    +0.000 C 
ATOM      4  C   UNL     1       1.824   4.691  18.189  0.00  0.00    +0.000 C 
ATOM      5  C   UNL     1       1.803   4.282  19.679  0.00  0.00    +0.000 C 
ATOM      6  C   UNL     1       3.256   4.179  20.229  0.00  0.00    +0.000 C 
ATOM      7  C   UNL     1       4.188   3.368  19.321  0.00  0.00    +0.000 C 
BRANCH   2  11
ATOM      8  C   UNL     1       6.286   3.967  13.526  0.00  0.00    +0.000 C 
ATOM      9  C   UNL     1       6.305   4.160  15.013  0.00  0.00    +0.000 A 
ATOM     10  C   UNL     1       5.186   3.850  15.787  0.00  0.00    +0.000 A 
ATOM     11  C   UNL     1       5.198   4.073  17.169  0.00  0.00    +0.000 A 
ATOM     12  C   UNL     1       6.379   4.579  17.713  0.00  0.00    +0.000 A 
ATOM     13  C   UNL     1       7.447   4.867  16.877  0.00  0.00    +0.000 A 
ATOM     14  N   UNL     1       7.437   4.672  15.543  0.00  0.00    +0.000 NA
ENDBRANCH   2  11
BRANCH   5  15
ATOM     15  C   UNL     1       1.095   2.936  19.845  0.00  0.00    +0.000 C 
ATOM     16  O   UNL     1       0.352   2.437  19.007  0.00  0.00    +0.000 OA
BRANCH  15  17
ATOM     17  O   UNL     1       1.335   2.316  21.023  0.00  0.00    +0.000 OA
ATOM     18  H   UNL     1       0.516   2.027  21.483  0.00  0.00    +0.000 HD
ENDBRANCH  15  17
ENDBRANCH   5  15
ENDBRANCH   1   5
BRANCH   1  19
ATOM     19  O   UNL     1       1.892   6.467  20.757  0.00  0.00    +0.000 OA
BRANCH  19  20
ATOM     20  C   UNL     1       1.272   7.679  20.919  0.00  0.00    +0.000 A 
ATOM     21  C   UNL     1       0.194   7.677  21.812  0.00  0.00    +0.000 A 
ATOM     22  C   UNL     1      -0.546   8.839  22.039  0.00  0.00    +0.000 A 
ATOM     23  C   UNL     1      -0.220  10.011  21.355  0.00  0.00    +0.000 A 
ATOM     24  C   UNL     1       0.871  10.031  20.475  0.00  0.00    +0.000 A 
ATOM     25  C   UNL     1       1.621   8.862  20.271  0.00  0.00    +0.000 A 
ATOM     26  C   UNL     1       1.245  11.341  19.813  0.00  0.00    +0.000 C 
ATOM     27  N   UNL     1       0.072  12.102  19.372  0.00  0.00    +0.000 N 
ATOM     28  C   UNL     1       0.161  12.974  18.325  0.00  0.00    +0.000 C 
ATOM     29  N   UNL     1       1.222  13.565  17.900  0.00  0.00    +0.000 NA
ATOM     30  N   UNL     1      -0.987  13.221  17.660  0.00  0.00    +0.000 N 
ATOM     31  C   UNL     1      -1.183  11.932  20.126  0.00  0.00    +0.000 C 
ATOM     32  C   UNL     1      -0.992  11.291  21.506  0.00  0.00    +0.000 C 
ATOM     33  H   UNL     1       2.006  13.350  18.515  0.00  0.00    +0.000 HD
ATOM     34  H   UNL     1      -1.564  12.406  17.515  0.00  0.00    +0.000 HD
ATOM     35  H   UNL     1      -0.772  13.683  16.780  0.00  0.00    +0.000 HD
ENDBRANCH  19  20
ENDBRANCH   1  19
TORSDOF 6
ENDMDL
MODEL 8
REMARK VINA RESULT:      -8.7      2.606     10.160
REMARK  Name = 
REMARK  7 active torsions:
REMARK  status: ('A' for Active; 'I' for Inactive)
REMARK    1  A    between atoms: C_1  and  C_2
REMARK    2  A    between atoms: C_4  and  N_5
REMARK    3  A    between atoms: C_8  and  C_9
REMARK    4  A    between atoms: C_8  and  C_24
REMARK    5  A    between atoms: C_9  and  O_10
REMARK    6  A    between atoms: O_10  and  C_11
REMARK    7  A    between atoms: C_24  and  O_26
REMARK                            x       y       z     vdW  Elec       q    Type
REMARK                         _______ _______ _______ _____ _____    ______ ____
ROOT
ATOM      1  C   UNL     1       1.171   9.655  19.981  0.00  0.00    +0.000 C 
ENDROOT
BRANCH   1   5
ATOM      2  N   UNL     1      -2.246  12.122  19.776  0.00  0.00    +0.000 N 
ATOM      3  C   UNL     1      -1.622  11.920  18.477  0.00  0.00    +0.000 C 
ATOM      4  C   UNL     1      -0.669  10.735  18.612  0.00  0.00    +0.000 C 
ATOM      5  C   UNL     1       0.383  10.955  19.722  0.00  0.00    +0.000 C 
ATOM      6  C   UNL     1      -0.314  11.377  21.049  0.00  0.00    +0.000 C 
ATOM      7  C   UNL     1      -1.339  12.502  20.860  0.00  0.00    +0.000 C 
BRANCH   2  11
ATOM      8  C   UNL     1      -6.853  11.620  18.024  0.00  0.00    +0.000 C 
ATOM      9  C   UNL     1      -5.883  12.072  19.074  0.00  0.00    +0.000 A 
ATOM     10  C   UNL     1      -4.507  11.948  18.876  0.00  0.00    +0.000 A 
ATOM     11  C   UNL     1      -3.610  12.333  19.879  0.00  0.00    +0.000 A 
ATOM     12  C   UNL     1      -4.163  12.865  21.045  0.00  0.00    +0.000 A 
ATOM     13  C   UNL     1      -5.541  12.951  21.169  0.00  0.00    +0.000 A 
ATOM     14  N   UNL     1      -6.411  12.566  20.215  0.00  0.00    +0.000 NA
ENDBRANCH   2  11
BRANCH   5  15
ATOM     15  C   UNL     1       1.376  12.039  19.297  0.00  0.00    +0.000 C 
ATOM     16  O   UNL     1       1.753  12.954  20.021  0.00  0.00    +0.000 OA
BRANCH  15  17
ATOM     17  O   UNL     1       1.813  11.933  18.022  0.00  0.00    +0.000 OA
ATOM     18  H   UNL     1       1.157  12.240  17.358  0.00  0.00    +0.000 HD
ENDBRANCH  15  17
ENDBRANCH   5  15
ENDBRANCH   1   5
BRANCH   1  19
ATOM     19  O   UNL     1       1.667   9.132  18.736  0.00  0.00    +0.000 OA
BRANCH  19  20
ATOM     20  C   UNL     1       2.230   7.883  18.773  0.00  0.00    +0.000 A 
ATOM     21  C   UNL     1       1.841   7.091  19.859  0.00  0.00    +0.000 A 
ATOM     22  C   UNL     1       2.371   5.810  20.033  0.00  0.00    +0.000 A 
ATOM     23  C   UNL     1       3.312   5.322  19.125  0.00  0.00    +0.000 A 
ATOM     24  C   UNL     1       3.692   6.098  18.021  0.00  0.00    +0.000 A 
ATOM     25  C   UNL     1       3.137   7.375  17.845  0.00  0.00    +0.000 A 
ATOM     26  C   UNL     1       4.653   5.503  17.014  0.00  0.00    +0.000 C 
ATOM     27  N   UNL     1       5.737   4.746  17.649  0.00  0.00    +0.000 N 
ATOM     28  C   UNL     1       6.946   4.608  17.030  0.00  0.00    +0.000 C 
ATOM     29  N   UNL     1       7.180   4.685  15.768  0.00  0.00    +0.000 NA
ATOM     30  N   UNL     1       8.004   4.385  17.838  0.00  0.00    +0.000 N 
ATOM     31  C   UNL     1       5.459   4.103  18.946  0.00  0.00    +0.000 C 
ATOM     32  C   UNL     1       3.964   3.975  19.264  0.00  0.00    +0.000 C 
ATOM     33  H   UNL     1       6.303   4.793  15.260  0.00  0.00    +0.000 HD
ATOM     34  H   UNL     1       7.996   4.930  18.688  0.00  0.00    +0.000 HD
ATOM     35  H   UNL     1       8.862   4.530  17.314  0.00  0.00    +0.000 HD
ENDBRANCH  19  20
ENDBRANCH   1  19
TORSDOF 6
ENDMDL
MODEL 9
REMARK VINA RESULT:      -8.6      2.931     10.361
REMARK  Name = 
REMARK  7 active torsions:
REMARK  status: ('A' for Active; 'I' for Inactive)
REMARK    1  A    between atoms: C_1  and  C_2
REMARK    2  A    between atoms: C_4  and  N_5
REMARK    3  A    between atoms: C_8  and  C_9
REMARK    4  A    between atoms: C_8  and  C_24
REMARK    5  A    between atoms: C_9  and  O_10
REMARK    6  A    between atoms: O_10  and  C_11
REMARK    7  A    between atoms: C_24  and  O_26
REMARK                            x       y       z     vdW  Elec       q    Type
REMARK                         _______ _______ _______ _____ _____    ______ ____
ROOT
ATOM      1  C   UNL     1       0.374   9.487  19.024  0.00  0.00    +0.000 C 
ENDROOT
BRANCH   1   5
ATOM      2  N   UNL     1      -1.874  12.099  21.460  0.00  0.00    +0.000 N 
ATOM      3  C   UNL     1      -1.765  12.569  20.086  0.00  0.00    +0.000 C 
ATOM      4  C   UNL     1      -1.289  11.389  19.242  0.00  0.00    +0.000 C 
ATOM      5  C   UNL     1       0.049  10.807  19.753  0.00  0.00    +0.000 C 
ATOM      6  C   UNL     1      -0.041  10.514  21.280  0.00  0.00    +0.000 C 
ATOM      7  C   UNL     1      -0.618  11.683  22.086  0.00  0.00    +0.000 C 
BRANCH   2  11
ATOM      8  C   UNL     1      -6.661  13.314  21.852  0.00  0.00    +0.000 C 
ATOM      9  C   UNL     1      -5.336  12.960  22.458  0.00  0.00    +0.000 A 
ATOM     10  C   UNL     1      -4.210  12.777  21.654  0.00  0.00    +0.000 A 
ATOM     11  C   UNL     1      -2.986  12.405  22.224  0.00  0.00    +0.000 A 
ATOM     12  C   UNL     1      -2.958  12.264  23.612  0.00  0.00    +0.000 A 
ATOM     13  C   UNL     1      -4.121  12.458  24.342  0.00  0.00    +0.000 A 
ATOM     14  N   UNL     1      -5.306  12.799  23.799  0.00  0.00    +0.000 NA
ENDBRANCH   2  11
BRANCH   5  15
ATOM     15  C   UNL     1       1.187  11.794  19.487  0.00  0.00    +0.000 C 
ATOM     16  O   UNL     1       1.867  12.319  20.361  0.00  0.00    +0.000 OA
BRANCH  15  17
ATOM     17  O   UNL     1       1.393  12.075  18.180  0.00  0.00    +0.000 OA
ATOM     18  H   UNL     1       0.845  12.823  17.852  0.00  0.00    +0.000 HD
ENDBRANCH  15  17
ENDBRANCH   5  15
ENDBRANCH   1   5
BRANCH   1  19
ATOM     19  O   UNL     1       1.797   9.365  18.855  0.00  0.00    +0.000 OA
BRANCH  19  20
ATOM     20  C   UNL     1       2.309   8.094  18.847  0.00  0.00    +0.000 A 
ATOM     21  C   UNL     1       1.868   7.272  19.890  0.00  0.00    +0.000 A 
ATOM     22  C   UNL     1       2.343   5.964  20.017  0.00  0.00    +0.000 A 
ATOM     23  C   UNL     1       3.280   5.478  19.106  0.00  0.00    +0.000 A 
ATOM     24  C   UNL     1       3.713   6.284  18.044  0.00  0.00    +0.000 A 
ATOM     25  C   UNL     1       3.213   7.589  17.914  0.00  0.00    +0.000 A 
ATOM     26  C   UNL     1       4.669   5.694  17.029  0.00  0.00    +0.000 C 
ATOM     27  N   UNL     1       5.709   4.868  17.650  0.00  0.00    +0.000 N 
ATOM     28  C   UNL     1       6.924   4.707  17.047  0.00  0.00    +0.000 C 
ATOM     29  N   UNL     1       7.186   4.829  15.794  0.00  0.00    +0.000 NA
ATOM     30  N   UNL     1       7.956   4.407  17.864  0.00  0.00    +0.000 N 
ATOM     31  C   UNL     1       5.380   4.181  18.912  0.00  0.00    +0.000 C 
ATOM     32  C   UNL     1       3.876   4.101  19.197  0.00  0.00    +0.000 C 
ATOM     33  H   UNL     1       6.324   4.994  15.275  0.00  0.00    +0.000 HD
ATOM     34  H   UNL     1       7.953   4.915  18.736  0.00  0.00    +0.000 HD
ATOM     35  H   UNL     1       8.829   4.539  17.362  0.00  0.00    +0.000 HD
ENDBRANCH  19  20
ENDBRANCH   1  19
TORSDOF 6
ENDMDL
