MODEL 1
REMARK VINA RESULT:      -8.3      0.000      0.000
REMARK  Name = 
REMARK  8 active torsions:
REMARK  status: ('A' for Active; 'I' for Inactive)
REMARK    1  A    between atoms: C_1  and  C_2
REMARK    2  A    between atoms: C_2  and  C_3
REMARK    3  A    between atoms: C_3  and  C_4
REMARK    4  A    between atoms: C_9  and  N_10
REMARK    5  A    between atoms: C_13  and  N_14
REMARK    6  A    between atoms: C_22  and  C_23
REMARK    7  A    between atoms: C_22  and  C_24
REMARK    8  A    between atoms: C_29  and  C_30
REMARK                            x       y       z     vdW  Elec       q    Type
REMARK                         _______ _______ _______ _____ _____    ______ ____
ROOT
ATOM      1  C   UNL     1       0.096  12.439  19.102  0.00  0.00    +0.000 A 
ATOM      2  C   UNL     1       0.816  11.360  18.537  0.00  0.00    +0.000 A 
ATOM      3  C   UNL     1       1.037  10.170  19.243  0.00  0.00    +0.000 A 
ATOM      4  C   UNL     1       0.613  10.050  20.572  0.00  0.00    +0.000 A 
ATOM      5  C   UNL     1      -0.041  11.144  21.117  0.00  0.00    +0.000 A 
ATOM      6  C   UNL     1      -0.415  12.293  20.408  0.00  0.00    +0.000 A 
ATOM      7  C   UNL     1       0.766   8.812  21.456  0.00  0.00    +0.000 C 
ATOM      8  C   UNL     1       1.641   9.179  22.676  0.00  0.00    +0.000 C 
ATOM      9  C   UNL     1      -0.633   8.328  21.928  0.00  0.00    +0.000 C 
ATOM     10  C   UNL     1       1.431   7.735  20.667  0.00  0.00    +0.000 A 
ATOM     11  N   UNL     1       1.705   6.472  21.121  0.00  0.00    +0.000 N 
ATOM     12  C   UNL     1       2.333   5.757  20.127  0.00  0.00    +0.000 A 
ATOM     13  C   UNL     1       2.812   4.445  20.127  0.00  0.00    +0.000 A 
ATOM     14  C   UNL     1       3.419   3.983  18.948  0.00  0.00    +0.000 A 
ATOM     15  C   UNL     1       3.532   4.805  17.819  0.00  0.00    +0.000 A 
ATOM     16  C   UNL     1       3.040   6.101  17.842  0.00  0.00    +0.000 A 
ATOM     17  C   UNL     1       2.439   6.592  19.014  0.00  0.00    +0.000 A 
ATOM     18  C   UNL     1       1.865   7.832  19.360  0.00  0.00    +0.000 A 
ATOM     19  C   UNL     1       1.727   9.034  18.566  0.00  0.00    +0.000 C 
ATOM     20  O   UNL     1       2.123   9.136  17.415  0.00  0.00    +0.000 OA
ATOM     21  H   UNL     1       1.500   6.116  22.044  0.00  0.00    +0.000 HD
ENDROOT
BRANCH   6  22
ATOM     22  N   UNL     1      -1.364  13.156  21.009  0.00  0.00    +0.000 N 
ATOM     23  C   UNL     1      -2.638  13.230  20.247  0.00  0.00    +0.000 C 
ATOM     24  C   UNL     1      -3.519  14.333  20.779  0.00  0.00    +0.000 C 
ATOM     25  C   UNL     1      -3.850  14.165  22.276  0.00  0.00    +0.000 C 
ATOM     26  C   UNL     1      -2.498  13.966  23.018  0.00  0.00    +0.000 C 
ATOM     27  C   UNL     1      -1.610  12.868  22.427  0.00  0.00    +0.000 C 
BRANCH  25  28
ATOM     28  N   UNL     1      -4.823  13.114  22.688  0.00  0.00    +0.000 NA
ATOM     29  C   UNL     1      -5.909  12.770  21.738  0.00  0.00    +0.000 C 
ATOM     30  C   UNL     1      -7.040  13.811  21.637  0.00  0.00    +0.000 C 
ATOM     31  O   UNL     1      -7.646  14.023  22.917  0.00  0.00    +0.000 OA
ATOM     32  C   UNL     1      -6.659  14.484  23.845  0.00  0.00    +0.000 C 
ATOM     33  C   UNL     1      -5.498  13.472  23.976  0.00  0.00    +0.000 C 
ENDBRANCH  25  28
ENDBRANCH   6  22
BRANCH  14  34
ATOM     34  C   UNL     1       3.941   2.666  18.902  0.00  0.00    +0.000 C 
ATOM     35  N   UNL     1       4.357   1.576  18.852  0.00  0.00    +0.000 NA
ENDBRANCH  14  34
BRANCH   1  36
ATOM     36  C   UNL     1      -0.088  13.677  18.244  0.00  0.00    +0.000 C 
BRANCH  36  38
ATOM     37  C   UNL     1      -0.361  16.091  18.964  0.00  0.00    +0.000 C 
ATOM     38  C   UNL     1       0.600  14.917  18.835  0.00  0.00    +0.000 C 
ENDBRANCH  36  38
ENDBRANCH   1  36
TORSDOF 5
ENDMDL
MODEL 2
REMARK VINA RESULT:      -7.6      1.964      2.484
REMARK  Name = 
REMARK  8 active torsions:
REMARK  status: ('A' for Active; 'I' for Inactive)
REMARK    1  A    between atoms: C_1  and  C_2
REMARK    2  A    between atoms: C_2  and  C_3
REMARK    3  A    between atoms: C_3  and  C_4
REMARK    4  A    between atoms: C_9  and  N_10
REMARK    5  A    between atoms: C_13  and  N_14
REMARK    6  A    between atoms: C_22  and  C_23
REMARK    7  A    between atoms: C_22  and  C_24
REMARK    8  A    between atoms: C_29  and  C_30
REMARK                            x       y       z     vdW  Elec       q    Type
REMARK                         _______ _______ _______ _____ _____    ______ ____
ROOT
ATOM      1  C   UNL     1       0.828  12.517  18.964  0.00  0.00    +0.000 A 
ATOM      2  C   UNL     1       1.457  11.368  18.430  0.00  0.00    +0.000 A 
ATOM      3  C   UNL     1       1.485  10.151  19.125  0.00  0.00    +0.000 A 
ATOM      4  C   UNL     1       0.952  10.066  20.417  0.00  0.00    +0.000 A 
ATOM      5  C   UNL     1       0.392  11.223  20.936  0.00  0.00    +0.000 A 
ATOM      6  C   UNL     1       0.208  12.416  20.226  0.00  0.00    +0.000 A 
ATOM      7  C   UNL     1       0.893   8.808  21.284  0.00  0.00    +0.000 C 
ATOM      8  C   UNL     1       1.712   9.053  22.571  0.00  0.00    +0.000 C 
ATOM      9  C   UNL     1      -0.584   8.486  21.643  0.00  0.00    +0.000 C 
ATOM     10  C   UNL     1       1.484   7.669  20.522  0.00  0.00    +0.000 A 
ATOM     11  N   UNL     1       1.575   6.377  20.968  0.00  0.00    +0.000 N 
ATOM     12  C   UNL     1       2.187   5.606  20.007  0.00  0.00    +0.000 A 
ATOM     13  C   UNL     1       2.508   4.247  20.014  0.00  0.00    +0.000 A 
ATOM     14  C   UNL     1       3.144   3.730  18.873  0.00  0.00    +0.000 A 
ATOM     15  C   UNL     1       3.435   4.548  17.773  0.00  0.00    +0.000 A 
ATOM     16  C   UNL     1       3.098   5.893  17.787  0.00  0.00    +0.000 A 
ATOM     17  C   UNL     1       2.473   6.436  18.922  0.00  0.00    +0.000 A 
ATOM     18  C   UNL     1       2.024   7.731  19.252  0.00  0.00    +0.000 A 
ATOM     19  C   UNL     1       2.086   8.951  18.476  0.00  0.00    +0.000 C 
ATOM     20  O   UNL     1       2.576   9.019  17.359  0.00  0.00    +0.000 OA
ATOM     21  H   UNL     1       1.261   6.037  21.866  0.00  0.00    +0.000 HD
ENDROOT
BRANCH   6  22
ATOM     22  N   UNL     1      -0.675  13.378  20.775  0.00  0.00    +0.000 N 
ATOM     23  C   UNL     1      -1.676  12.780  21.697  0.00  0.00    +0.000 C 
ATOM     24  C   UNL     1      -2.738  13.787  22.063  0.00  0.00    +0.000 C 
ATOM     25  C   UNL     1      -2.158  15.055  22.723  0.00  0.00    +0.000 C 
ATOM     26  C   UNL     1      -1.031  15.575  21.786  0.00  0.00    +0.000 C 
ATOM     27  C   UNL     1       0.006  14.518  21.399  0.00  0.00    +0.000 C 
BRANCH  25  28
ATOM     28  N   UNL     1      -1.666  14.979  24.128  0.00  0.00    +0.000 NA
ATOM     29  C   UNL     1      -2.677  14.987  25.213  0.00  0.00    +0.000 C 
ATOM     30  C   UNL     1      -3.326  16.355  25.490  0.00  0.00    +0.000 C 
ATOM     31  O   UNL     1      -2.330  17.327  25.830  0.00  0.00    +0.000 OA
ATOM     32  C   UNL     1      -1.397  17.454  24.752  0.00  0.00    +0.000 C 
ATOM     33  C   UNL     1      -0.722  16.100  24.434  0.00  0.00    +0.000 C 
ENDBRANCH  25  28
ENDBRANCH   6  22
BRANCH  14  34
ATOM     34  C   UNL     1       3.510   2.362  18.837  0.00  0.00    +0.000 C 
ATOM     35  N   UNL     1       3.829   1.239  18.804  0.00  0.00    +0.000 NA
ENDBRANCH  14  34
BRANCH   1  36
ATOM     36  C   UNL     1       0.855  13.779  18.121  0.00  0.00    +0.000 C 
BRANCH  36  38
ATOM     37  C   UNL     1       1.823  16.074  18.588  0.00  0.00    +0.000 C 
ATOM     38  C   UNL     1       2.134  14.606  18.329  0.00  0.00    +0.000 C 
ENDBRANCH  36  38
ENDBRANCH   1  36
TORSDOF 5
ENDMDL
MODEL 3
REMARK VINA RESULT:      -7.6      1.166      1.404
REMARK  Name = 
REMARK  8 active torsions:
REMARK  status: ('A' for Active; 'I' for Inactive)
REMARK    1  A    between atoms: C_1  and  C_2
REMARK    2  A    between atoms: C_2  and  C_3
REMARK    3  A    between atoms: C_3  and  C_4
REMARK    4  A    between atoms: C_9  and  N_10
REMARK    5  A    between atoms: C_13  and  N_14
REMARK    6  A    between atoms: C_22  and  C_23
REMARK    7  A    between atoms: C_22  and  C_24
REMARK    8  A    between atoms: C_29  and  C_30
REMARK                            x       y       z     vdW  Elec       q    Type
REMARK                         _______ _______ _______ _____ _____    ______ ____
ROOT
ATOM      1  C   UNL     1       0.953  12.587  18.951  0.00  0.00    +0.000 A 
ATOM      2  C   UNL     1       1.572  11.422  18.437  0.00  0.00    +0.000 A 
ATOM      3  C   UNL     1       1.568  10.212  19.144  0.00  0.00    +0.000 A 
ATOM      4  C   UNL     1       1.013  10.148  20.428  0.00  0.00    +0.000 A 
ATOM      5  C   UNL     1       0.464  11.319  20.927  0.00  0.00    +0.000 A 
ATOM      6  C   UNL     1       0.312  12.508  20.204  0.00  0.00    +0.000 A 
ATOM      7  C   UNL     1       0.920   8.900  21.306  0.00  0.00    +0.000 C 
ATOM      8  C   UNL     1       1.722   9.144  22.604  0.00  0.00    +0.000 C 
ATOM      9  C   UNL     1      -0.567   8.605  21.644  0.00  0.00    +0.000 C 
ATOM     10  C   UNL     1       1.505   7.744  20.565  0.00  0.00    +0.000 A 
ATOM     11  N   UNL     1       1.567   6.455  21.025  0.00  0.00    +0.000 N 
ATOM     12  C   UNL     1       2.181   5.664  20.081  0.00  0.00    +0.000 A 
ATOM     13  C   UNL     1       2.480   4.301  20.106  0.00  0.00    +0.000 A 
ATOM     14  C   UNL     1       3.125   3.763  18.980  0.00  0.00    +0.000 A 
ATOM     15  C   UNL     1       3.447   4.564  17.877  0.00  0.00    +0.000 A 
ATOM     16  C   UNL     1       3.132   5.915  17.873  0.00  0.00    +0.000 A 
ATOM     17  C   UNL     1       2.498   6.479  18.993  0.00  0.00    +0.000 A 
ATOM     18  C   UNL     1       2.065   7.785  19.303  0.00  0.00    +0.000 A 
ATOM     19  C   UNL     1       2.160   8.996  18.516  0.00  0.00    +0.000 C 
ATOM     20  O   UNL     1       2.669   9.045  17.407  0.00  0.00    +0.000 OA
ATOM     21  H   UNL     1       1.233   6.129  21.920  0.00  0.00    +0.000 HD
ENDROOT
BRANCH   6  22
ATOM     22  N   UNL     1      -0.565  13.489  20.729  0.00  0.00    +0.000 N 
ATOM     23  C   UNL     1      -1.975  13.027  20.789  0.00  0.00    +0.000 C 
ATOM     24  C   UNL     1      -2.902  14.171  21.120  0.00  0.00    +0.000 C 
ATOM     25  C   UNL     1      -2.552  14.858  22.456  0.00  0.00    +0.000 C 
ATOM     26  C   UNL     1      -1.038  15.212  22.397  0.00  0.00    +0.000 C 
ATOM     27  C   UNL     1      -0.131  14.039  22.018  0.00  0.00    +0.000 C 
BRANCH  25  28
ATOM     28  N   UNL     1      -2.868  14.160  23.733  0.00  0.00    +0.000 NA
ATOM     29  C   UNL     1      -3.639  12.894  23.654  0.00  0.00    +0.000 C 
ATOM     30  C   UNL     1      -5.138  13.062  23.346  0.00  0.00    +0.000 C 
ATOM     31  O   UNL     1      -5.768  13.881  24.338  0.00  0.00    +0.000 OA
ATOM     32  C   UNL     1      -5.142  15.168  24.364  0.00  0.00    +0.000 C 
ATOM     33  C   UNL     1      -3.631  15.050  24.665  0.00  0.00    +0.000 C 
ENDBRANCH  25  28
ENDBRANCH   6  22
BRANCH  14  34
ATOM     34  C   UNL     1       3.469   2.388  18.963  0.00  0.00    +0.000 C 
ATOM     35  N   UNL     1       3.770   1.260  18.949  0.00  0.00    +0.000 NA
ENDBRANCH  14  34
BRANCH   1  36
ATOM     36  C   UNL     1       1.014  13.839  18.096  0.00  0.00    +0.000 C 
BRANCH  36  38
ATOM     37  C   UNL     1       3.327  14.872  18.040  0.00  0.00    +0.000 C 
ATOM     38  C   UNL     1       1.946  14.913  18.680  0.00  0.00    +0.000 C 
ENDBRANCH  36  38
ENDBRANCH   1  36
TORSDOF 5
ENDMDL
MODEL 4
REMARK VINA RESULT:      -7.0      1.719      2.157
REMARK  Name = 
REMARK  8 active torsions:
REMARK  status: ('A' for Active; 'I' for Inactive)
REMARK    1  A    between atoms: C_1  and  C_2
REMARK    2  A    between atoms: C_2  and  C_3
REMARK    3  A    between atoms: C_3  and  C_4
REMARK    4  A    between atoms: C_9  and  N_10
REMARK    5  A    between atoms: C_13  and  N_14
REMARK    6  A    between atoms: C_22  and  C_23
REMARK    7  A    between atoms: C_22  and  C_24
REMARK    8  A    between atoms: C_29  and  C_30
REMARK                            x       y       z     vdW  Elec       q    Type
REMARK                         _______ _______ _______ _____ _____    ______ ____
ROOT
ATOM      1  C   UNL     1       0.195  12.708  19.459  0.00  0.00    +0.000 A 
ATOM      2  C   UNL     1       0.851  11.633  18.814  0.00  0.00    +0.000 A 
ATOM      3  C   UNL     1       1.048  10.400  19.449  0.00  0.00    +0.000 A 
ATOM      4  C   UNL     1       0.665  10.227  20.785  0.00  0.00    +0.000 A 
ATOM      5  C   UNL     1       0.075  11.315  21.408  0.00  0.00    +0.000 A 
ATOM      6  C   UNL     1      -0.276  12.513  20.774  0.00  0.00    +0.000 A 
ATOM      7  C   UNL     1       0.799   8.940  21.599  0.00  0.00    +0.000 C 
ATOM      8  C   UNL     1       1.729   9.207  22.803  0.00  0.00    +0.000 C 
ATOM      9  C   UNL     1      -0.601   8.485  22.095  0.00  0.00    +0.000 C 
ATOM     10  C   UNL     1       1.392   7.880  20.732  0.00  0.00    +0.000 A 
ATOM     11  N   UNL     1       1.631   6.586  21.110  0.00  0.00    +0.000 N 
ATOM     12  C   UNL     1       2.195   5.900  20.059  0.00  0.00    +0.000 A 
ATOM     13  C   UNL     1       2.621   4.573  19.974  0.00  0.00    +0.000 A 
ATOM     14  C   UNL     1       3.169   4.150  18.752  0.00  0.00    +0.000 A 
ATOM     15  C   UNL     1       3.276   5.026  17.663  0.00  0.00    +0.000 A 
ATOM     16  C   UNL     1       2.838   6.337  17.770  0.00  0.00    +0.000 A 
ATOM     17  C   UNL     1       2.297   6.788  18.986  0.00  0.00    +0.000 A 
ATOM     18  C   UNL     1       1.786   8.030  19.416  0.00  0.00    +0.000 A 
ATOM     19  C   UNL     1       1.669   9.276  18.690  0.00  0.00    +0.000 C 
ATOM     20  O   UNL     1       2.029   9.423  17.533  0.00  0.00    +0.000 OA
ATOM     21  H   UNL     1       1.443   6.190  22.020  0.00  0.00    +0.000 HD
ENDROOT
BRANCH   6  22
ATOM     22  N   UNL     1      -1.169  13.379  21.452  0.00  0.00    +0.000 N 
ATOM     23  C   UNL     1      -0.655  14.770  21.552  0.00  0.00    +0.000 C 
ATOM     24  C   UNL     1      -1.511  15.593  22.483  0.00  0.00    +0.000 C 
ATOM     25  C   UNL     1      -2.990  15.645  22.047  0.00  0.00    +0.000 C 
ATOM     26  C   UNL     1      -3.449  14.175  21.833  0.00  0.00    +0.000 C 
ATOM     27  C   UNL     1      -2.535  13.356  20.917  0.00  0.00    +0.000 C 
BRANCH  25  28
ATOM     28  N   UNL     1      -3.368  16.479  20.871  0.00  0.00    +0.000 NA
ATOM     29  C   UNL     1      -3.235  17.951  20.999  0.00  0.00    +0.000 C 
ATOM     30  C   UNL     1      -4.316  18.631  21.859  0.00  0.00    +0.000 C 
ATOM     31  O   UNL     1      -5.621  18.367  21.331  0.00  0.00    +0.000 OA
ATOM     32  C   UNL     1      -5.852  16.954  21.308  0.00  0.00    +0.000 C 
ATOM     33  C   UNL     1      -4.785  16.227  20.459  0.00  0.00    +0.000 C 
ENDBRANCH  25  28
ENDBRANCH   6  22
BRANCH  14  34
ATOM     34  C   UNL     1       3.635   2.819  18.620  0.00  0.00    +0.000 C 
ATOM     35  N   UNL     1       4.024   1.722  18.529  0.00  0.00    +0.000 NA
ENDBRANCH  14  34
BRANCH   1  36
ATOM     36  C   UNL     1       0.032  13.996  18.673  0.00  0.00    +0.000 C 
BRANCH  36  38
ATOM     37  C   UNL     1       1.128  16.275  18.823  0.00  0.00    +0.000 C 
ATOM     38  C   UNL     1       1.341  14.791  18.558  0.00  0.00    +0.000 C 
ENDBRANCH  36  38
ENDBRANCH   1  36
TORSDOF 5
ENDMDL
MODEL 5
REMARK VINA RESULT:      -6.9      4.595      7.135
REMARK  Name = 
REMARK  8 active torsions:
REMARK  status: ('A' for Active; 'I' for Inactive)
REMARK    1  A    between atoms: C_1  and  C_2
REMARK    2  A    between atoms: C_2  and  C_3
REMARK    3  A    between atoms: C_3  and  C_4
REMARK    4  A    between atoms: C_9  and  N_10
REMARK    5  A    between atoms: C_13  and  N_14
REMARK    6  A    between atoms: C_22  and  C_23
REMARK    7  A    between atoms: C_22  and  C_24
REMARK    8  A    between atoms: C_29  and  C_30
REMARK                            x       y       z     vdW  Elec       q    Type
REMARK                         _______ _______ _______ _____ _____    ______ ____
ROOT
ATOM      1  C   UNL     1      -1.161  11.585  18.975  0.00  0.00    +0.000 A 
ATOM      2  C   UNL     1       0.167  11.863  18.572  0.00  0.00    +0.000 A 
ATOM      3  C   UNL     1       0.779  13.094  18.846  0.00  0.00    +0.000 A 
ATOM      4  C   UNL     1       0.052  14.119  19.463  0.00  0.00    +0.000 A 
ATOM      5  C   UNL     1      -1.263  13.837  19.796  0.00  0.00    +0.000 A 
ATOM      6  C   UNL     1      -1.870  12.580  19.678  0.00  0.00    +0.000 A 
ATOM      7  C   UNL     1       0.589  15.501  19.840  0.00  0.00    +0.000 C 
ATOM      8  C   UNL     1      -0.212  16.573  19.068  0.00  0.00    +0.000 C 
ATOM      9  C   UNL     1       0.441  15.721  21.371  0.00  0.00    +0.000 C 
ATOM     10  C   UNL     1       2.030  15.578  19.459  0.00  0.00    +0.000 A 
ATOM     11  N   UNL     1       2.851  16.654  19.672  0.00  0.00    +0.000 N 
ATOM     12  C   UNL     1       4.105  16.374  19.180  0.00  0.00    +0.000 A 
ATOM     13  C   UNL     1       5.258  17.161  19.156  0.00  0.00    +0.000 A 
ATOM     14  C   UNL     1       6.408  16.599  18.576  0.00  0.00    +0.000 A 
ATOM     15  C   UNL     1       6.394  15.300  18.051  0.00  0.00    +0.000 A 
ATOM     16  C   UNL     1       5.238  14.535  18.095  0.00  0.00    +0.000 A 
ATOM     17  C   UNL     1       4.072  15.080  18.659  0.00  0.00    +0.000 A 
ATOM     18  C   UNL     1       2.764  14.584  18.842  0.00  0.00    +0.000 A 
ATOM     19  C   UNL     1       2.209  13.300  18.475  0.00  0.00    +0.000 C 
ATOM     20  O   UNL     1       2.845  12.421  17.914  0.00  0.00    +0.000 OA
ATOM     21  H   UNL     1       2.584  17.527  20.105  0.00  0.00    +0.000 HD
ENDROOT
BRANCH   6  22
ATOM     22  N   UNL     1      -3.089  12.371  20.369  0.00  0.00    +0.000 N 
ATOM     23  C   UNL     1      -3.164  13.130  21.644  0.00  0.00    +0.000 C 
ATOM     24  C   UNL     1      -4.358  12.695  22.458  0.00  0.00    +0.000 C 
ATOM     25  C   UNL     1      -5.692  12.868  21.704  0.00  0.00    +0.000 C 
ATOM     26  C   UNL     1      -5.524  12.166  20.326  0.00  0.00    +0.000 C 
ATOM     27  C   UNL     1      -4.282  12.599  19.545  0.00  0.00    +0.000 C 
BRANCH  25  28
ATOM     28  N   UNL     1      -6.247  14.238  21.519  0.00  0.00    +0.000 NA
ATOM     29  C   UNL     1      -5.566  15.357  22.218  0.00  0.00    +0.000 C 
ATOM     30  C   UNL     1      -5.824  15.431  23.734  0.00  0.00    +0.000 C 
ATOM     31  O   UNL     1      -7.225  15.552  24.003  0.00  0.00    +0.000 OA
ATOM     32  C   UNL     1      -7.916  14.423  23.460  0.00  0.00    +0.000 C 
ATOM     33  C   UNL     1      -7.684  14.304  21.937  0.00  0.00    +0.000 C 
ENDBRANCH  25  28
ENDBRANCH   6  22
BRANCH  14  34
ATOM     34  C   UNL     1       7.599  17.363  18.507  0.00  0.00    +0.000 C 
ATOM     35  N   UNL     1       8.591  17.976  18.448  0.00  0.00    +0.000 NA
ENDBRANCH  14  34
BRANCH   1  36
ATOM     36  C   UNL     1      -1.719  10.217  18.629  0.00  0.00    +0.000 C 
BRANCH  36  38
ATOM     37  C   UNL     1      -3.034  10.619  16.501  0.00  0.00    +0.000 C 
ATOM     38  C   UNL     1      -1.799   9.973  17.114  0.00  0.00    +0.000 C 
ENDBRANCH  36  38
ENDBRANCH   1  36
TORSDOF 5
ENDMDL
MODEL 6
REMARK VINA RESULT:      -6.9      1.613      2.177
REMARK  Name = 
REMARK  8 active torsions:
REMARK  status: ('A' for Active; 'I' for Inactive)
REMARK    1  A    between atoms: C_1  and  C_2
REMARK    2  A    between atoms: C_2  and  C_3
REMARK    3  A    between atoms: C_3  and  C_4
REMARK    4  A    between atoms: C_9  and  N_10
REMARK    5  A    between atoms: C_13  and  N_14
REMARK    6  A    between atoms: C_22  and  C_23
REMARK    7  A    between atoms: C_22  and  C_24
REMARK    8  A    between atoms: C_29  and  C_30
REMARK                            x       y       z     vdW  Elec       q    Type
REMARK                         _______ _______ _______ _____ _____    ______ ____
ROOT
ATOM      1  C   UNL     1      -0.816  13.057  20.379  0.00  0.00    +0.000 A 
ATOM      2  C   UNL     1       0.039  12.306  19.538  0.00  0.00    +0.000 A 
ATOM      3  C   UNL     1       0.489  11.027  19.895  0.00  0.00    +0.000 A 
ATOM      4  C   UNL     1       0.161  10.490  21.145  0.00  0.00    +0.000 A 
ATOM      5  C   UNL     1      -0.632  11.271  21.970  0.00  0.00    +0.000 A 
ATOM      6  C   UNL     1      -1.226  12.485  21.600  0.00  0.00    +0.000 A 
ATOM      7  C   UNL     1       0.561   9.107  21.662  0.00  0.00    +0.000 C 
ATOM      8  C   UNL     1       1.428   9.282  22.929  0.00  0.00    +0.000 C 
ATOM      9  C   UNL     1      -0.712   8.282  21.996  0.00  0.00    +0.000 C 
ATOM     10  C   UNL     1       1.350   8.407  20.606  0.00  0.00    +0.000 A 
ATOM     11  N   UNL     1       1.851   7.136  20.701  0.00  0.00    +0.000 N 
ATOM     12  C   UNL     1       2.532   6.828  19.546  0.00  0.00    +0.000 A 
ATOM     13  C   UNL     1       3.218   5.665  19.188  0.00  0.00    +0.000 A 
ATOM     14  C   UNL     1       3.829   5.642  17.924  0.00  0.00    +0.000 A 
ATOM     15  C   UNL     1       3.746   6.741  17.058  0.00  0.00    +0.000 A 
ATOM     16  C   UNL     1       3.052   7.881  17.433  0.00  0.00    +0.000 A 
ATOM     17  C   UNL     1       2.442   7.933  18.698  0.00  0.00    +0.000 A 
ATOM     18  C   UNL     1       1.693   8.920  19.370  0.00  0.00    +0.000 A 
ATOM     19  C   UNL     1       1.318  10.248  18.931  0.00  0.00    +0.000 C 
ATOM     20  O   UNL     1       1.631  10.716  17.848  0.00  0.00    +0.000 OA
ATOM     21  H   UNL     1       1.755   6.519  21.495  0.00  0.00    +0.000 HD
ENDROOT
BRANCH   6  22
ATOM     22  N   UNL     1      -2.269  12.982  22.419  0.00  0.00    +0.000 N 
ATOM     23  C   UNL     1      -1.915  14.261  23.089  0.00  0.00    +0.000 C 
ATOM     24  C   UNL     1      -2.945  14.626  24.129  0.00  0.00    +0.000 C 
ATOM     25  C   UNL     1      -4.367  14.755  23.544  0.00  0.00    +0.000 C 
ATOM     26  C   UNL     1      -4.646  13.448  22.748  0.00  0.00    +0.000 C 
ATOM     27  C   UNL     1      -3.561  13.085  21.731  0.00  0.00    +0.000 C 
BRANCH  25  28
ATOM     28  N   UNL     1      -4.701  15.946  22.713  0.00  0.00    +0.000 NA
ATOM     29  C   UNL     1      -4.502  17.286  23.318  0.00  0.00    +0.000 C 
ATOM     30  C   UNL     1      -5.554  17.691  24.366  0.00  0.00    +0.000 C 
ATOM     31  O   UNL     1      -6.868  17.674  23.795  0.00  0.00    +0.000 OA
ATOM     32  C   UNL     1      -7.163  16.360  23.311  0.00  0.00    +0.000 C 
ATOM     33  C   UNL     1      -6.127  15.907  22.257  0.00  0.00    +0.000 C 
ENDBRANCH  25  28
ENDBRANCH   6  22
BRANCH  14  34
ATOM     34  C   UNL     1       4.555   4.494  17.520  0.00  0.00    +0.000 C 
ATOM     35  N   UNL     1       5.146   3.539  17.203  0.00  0.00    +0.000 NA
ENDBRANCH  14  34
BRANCH   1  36
ATOM     36  C   UNL     1      -1.244  14.427  19.888  0.00  0.00    +0.000 C 
BRANCH  36  38
ATOM     37  C   UNL     1      -0.478  16.548  18.733  0.00  0.00    +0.000 C 
ATOM     38  C   UNL     1      -0.226  15.059  18.926  0.00  0.00    +0.000 C 
ENDBRANCH  36  38
ENDBRANCH   1  36
TORSDOF 5
ENDMDL
MODEL 7
REMARK VINA RESULT:      -6.9      2.579     10.652
REMARK  Name = 
REMARK  8 active torsions:
REMARK  status: ('A' for Active; 'I' for Inactive)
REMARK    1  A    between atoms: C_1  and  C_2
REMARK    2  A    between atoms: C_2  and  C_3
REMARK    3  A    between atoms: C_3  and  C_4
REMARK    4  A    between atoms: C_9  and  N_10
REMARK    5  A    between atoms: C_13  and  N_14
REMARK    6  A    between atoms: C_22  and  C_23
REMARK    7  A    between atoms: C_22  and  C_24
REMARK    8  A    between atoms: C_29  and  C_30
REMARK                            x       y       z     vdW  Elec       q    Type
REMARK                         _______ _______ _______ _____ _____    ______ ____
ROOT
ATOM      1  C   UNL     1       2.048   6.757  20.355  0.00  0.00    +0.000 A 
ATOM      2  C   UNL     1       1.249   7.525  21.235  0.00  0.00    +0.000 A 
ATOM      3  C   UNL     1       0.726   8.770  20.860  0.00  0.00    +0.000 A 
ATOM      4  C   UNL     1       1.052   9.325  19.617  0.00  0.00    +0.000 A 
ATOM      5  C   UNL     1       1.882   8.574  18.799  0.00  0.00    +0.000 A 
ATOM      6  C   UNL     1       2.307   7.267  19.067  0.00  0.00    +0.000 A 
ATOM      7  C   UNL     1       0.544  10.658  19.066  0.00  0.00    +0.000 C 
ATOM      8  C   UNL     1       1.752  11.591  18.830  0.00  0.00    +0.000 C 
ATOM      9  C   UNL     1      -0.216  10.419  17.732  0.00  0.00    +0.000 C 
ATOM     10  C   UNL     1      -0.379  11.272  20.065  0.00  0.00    +0.000 A 
ATOM     11  N   UNL     1      -1.050  12.455  19.904  0.00  0.00    +0.000 N 
ATOM     12  C   UNL     1      -1.796  12.713  21.031  0.00  0.00    +0.000 A 
ATOM     13  C   UNL     1      -2.624  13.795  21.334  0.00  0.00    +0.000 A 
ATOM     14  C   UNL     1      -3.263  13.785  22.585  0.00  0.00    +0.000 A 
ATOM     15  C   UNL     1      -3.078  12.728  23.486  0.00  0.00    +0.000 A 
ATOM     16  C   UNL     1      -2.257  11.660  23.158  0.00  0.00    +0.000 A 
ATOM     17  C   UNL     1      -1.597  11.652  21.917  0.00  0.00    +0.000 A 
ATOM     18  C   UNL     1      -0.708  10.748  21.300  0.00  0.00    +0.000 A 
ATOM     19  C   UNL     1      -0.180   9.495  21.796  0.00  0.00    +0.000 C 
ATOM     20  O   UNL     1      -0.452   9.033  22.893  0.00  0.00    +0.000 OA
ATOM     21  H   UNL     1      -1.000  13.059  19.096  0.00  0.00    +0.000 HD
ENDROOT
BRANCH   6  22
ATOM     22  N   UNL     1       2.855   6.521  17.995  0.00  0.00    +0.000 N 
ATOM     23  C   UNL     1       4.232   6.952  17.639  0.00  0.00    +0.000 C 
ATOM     24  C   UNL     1       4.681   6.307  16.351  0.00  0.00    +0.000 C 
ATOM     25  C   UNL     1       4.649   4.766  16.410  0.00  0.00    +0.000 C 
ATOM     26  C   UNL     1       3.230   4.365  16.905  0.00  0.00    +0.000 C 
ATOM     27  C   UNL     1       2.789   5.068  18.191  0.00  0.00    +0.000 C 
BRANCH  25  28
ATOM     28  N   UNL     1       5.691   4.050  17.197  0.00  0.00    +0.000 NA
ATOM     29  C   UNL     1       5.605   4.118  18.676  0.00  0.00    +0.000 C 
ATOM     30  C   UNL     1       6.030   5.463  19.293  0.00  0.00    +0.000 C 
ATOM     31  O   UNL     1       7.378   5.781  18.931  0.00  0.00    +0.000 OA
ATOM     32  C   UNL     1       7.487   5.858  17.506  0.00  0.00    +0.000 C 
ATOM     33  C   UNL     1       7.065   4.528  16.841  0.00  0.00    +0.000 C 
ENDBRANCH  25  28
ENDBRANCH   6  22
BRANCH  14  34
ATOM     34  C   UNL     1      -4.098  14.870  22.951  0.00  0.00    +0.000 C 
ATOM     35  N   UNL     1      -4.772  15.771  23.263  0.00  0.00    +0.000 NA
ENDBRANCH  14  34
BRANCH   1  36
ATOM     36  C   UNL     1       2.556   5.421  20.866  0.00  0.00    +0.000 C 
BRANCH  36  38
ATOM     37  C   UNL     1       1.930   3.090  21.638  0.00  0.00    +0.000 C 
ATOM     38  C   UNL     1       1.456   4.350  20.926  0.00  0.00    +0.000 C 
ENDBRANCH  36  38
ENDBRANCH   1  36
TORSDOF 5
ENDMDL
MODEL 8
REMARK VINA RESULT:      -6.8      1.145      1.325
REMARK  Name = 
REMARK  8 active torsions:
REMARK  status: ('A' for Active; 'I' for Inactive)
REMARK    1  A    between atoms: C_1  and  C_2
REMARK    2  A    between atoms: C_2  and  C_3
REMARK    3  A    between atoms: C_3  and  C_4
REMARK    4  A    between atoms: C_9  and  N_10
REMARK    5  A    between atoms: C_13  and  N_14
REMARK    6  A    between atoms: C_22  and  C_23
REMARK    7  A    between atoms: C_22  and  C_24
REMARK    8  A    between atoms: C_29  and  C_30
REMARK                            x       y       z     vdW  Elec       q    Type
REMARK                         _______ _______ _______ _____ _____    ______ ____
ROOT
ATOM      1  C   UNL     1      -0.043  13.220  20.328  0.00  0.00    +0.000 A 
ATOM      2  C   UNL     1       0.727  12.347  19.524  0.00  0.00    +0.000 A 
ATOM      3  C   UNL     1       0.965  11.017  19.897  0.00  0.00    +0.000 A 
ATOM      4  C   UNL     1       0.506  10.540  21.131  0.00  0.00    +0.000 A 
ATOM      5  C   UNL     1      -0.197  11.435  21.922  0.00  0.00    +0.000 A 
ATOM      6  C   UNL     1      -0.586  12.721  21.529  0.00  0.00    +0.000 A 
ATOM      7  C   UNL     1       0.673   9.116  21.662  0.00  0.00    +0.000 C 
ATOM      8  C   UNL     1       1.500   9.165  22.966  0.00  0.00    +0.000 C 
ATOM      9  C   UNL     1      -0.723   8.491  21.938  0.00  0.00    +0.000 C 
ATOM     10  C   UNL     1       1.394   8.301  20.641  0.00  0.00    +0.000 A 
ATOM     11  N   UNL     1       1.695   6.970  20.755  0.00  0.00    +0.000 N 
ATOM     12  C   UNL     1       2.373   6.558  19.630  0.00  0.00    +0.000 A 
ATOM     13  C   UNL     1       2.893   5.305  19.301  0.00  0.00    +0.000 A 
ATOM     14  C   UNL     1       3.549   5.186  18.065  0.00  0.00    +0.000 A 
ATOM     15  C   UNL     1       3.669   6.280  17.199  0.00  0.00    +0.000 A 
ATOM     16  C   UNL     1       3.136   7.513  17.545  0.00  0.00    +0.000 A 
ATOM     17  C   UNL     1       2.486   7.661  18.782  0.00  0.00    +0.000 A 
ATOM     18  C   UNL     1       1.863   8.752  19.422  0.00  0.00    +0.000 A 
ATOM     19  C   UNL     1       1.710  10.118  18.970  0.00  0.00    +0.000 C 
ATOM     20  O   UNL     1       2.137  10.530  17.903  0.00  0.00    +0.000 OA
ATOM     21  H   UNL     1       1.474   6.378  21.542  0.00  0.00    +0.000 HD
ENDROOT
BRANCH   6  22
ATOM     22  N   UNL     1      -1.579  13.373  22.302  0.00  0.00    +0.000 N 
ATOM     23  C   UNL     1      -2.348  14.376  21.521  0.00  0.00    +0.000 C 
ATOM     24  C   UNL     1      -3.218  15.211  22.429  0.00  0.00    +0.000 C 
ATOM     25  C   UNL     1      -4.210  14.363  23.253  0.00  0.00    +0.000 C 
ATOM     26  C   UNL     1      -3.378  13.251  23.952  0.00  0.00    +0.000 C 
ATOM     27  C   UNL     1      -2.475  12.451  23.010  0.00  0.00    +0.000 C 
BRANCH  25  28
ATOM     28  N   UNL     1      -5.394  13.770  22.571  0.00  0.00    +0.000 NA
ATOM     29  C   UNL     1      -6.029  14.556  21.485  0.00  0.00    +0.000 C 
ATOM     30  C   UNL     1      -6.871  15.756  21.955  0.00  0.00    +0.000 C 
ATOM     31  O   UNL     1      -7.916  15.326  22.834  0.00  0.00    +0.000 OA
ATOM     32  C   UNL     1      -7.346  14.672  23.972  0.00  0.00    +0.000 C 
ATOM     33  C   UNL     1      -6.485  13.460  23.549  0.00  0.00    +0.000 C 
ENDBRANCH  25  28
ENDBRANCH   6  22
BRANCH  14  34
ATOM     34  C   UNL     1       4.113   3.940  17.691  0.00  0.00    +0.000 C 
ATOM     35  N   UNL     1       4.577   2.920  17.366  0.00  0.00    +0.000 NA
ENDBRANCH  14  34
BRANCH   1  36
ATOM     36  C   UNL     1      -0.240  14.637  19.821  0.00  0.00    +0.000 C 
BRANCH  36  38
ATOM     37  C   UNL     1       2.043  15.548  19.206  0.00  0.00    +0.000 C 
ATOM     38  C   UNL     1       0.723  15.000  18.680  0.00  0.00    +0.000 C 
ENDBRANCH  36  38
ENDBRANCH   1  36
TORSDOF 5
ENDMDL
MODEL 9
REMARK VINA RESULT:      -6.3      2.131      2.927
REMARK  Name = 
REMARK  8 active torsions:
REMARK  status: ('A' for Active; 'I' for Inactive)
REMARK    1  A    between atoms: C_1  and  C_2
REMARK    2  A    between atoms: C_2  and  C_3
REMARK    3  A    between atoms: C_3  and  C_4
REMARK    4  A    between atoms: C_9  and  N_10
REMARK    5  A    between atoms: C_13  and  N_14
REMARK    6  A    between atoms: C_22  and  C_23
REMARK    7  A    between atoms: C_22  and  C_24
REMARK    8  A    between atoms: C_29  and  C_30
REMARK                            x       y       z     vdW  Elec       q    Type
REMARK                         _______ _______ _______ _____ _____    ______ ____
ROOT
ATOM      1  C   UNL     1       0.278  12.345  19.200  0.00  0.00    +0.000 A 
ATOM      2  C   UNL     1       0.959  11.259  18.601  0.00  0.00    +0.000 A 
ATOM      3  C   UNL     1       1.164  10.051  19.280  0.00  0.00    +0.000 A 
ATOM      4  C   UNL     1       0.764   9.918  20.615  0.00  0.00    +0.000 A 
ATOM      5  C   UNL     1       0.149  11.017  21.194  0.00  0.00    +0.000 A 
ATOM      6  C   UNL     1      -0.210  12.187  20.514  0.00  0.00    +0.000 A 
ATOM      7  C   UNL     1       0.905   8.660  21.474  0.00  0.00    +0.000 C 
ATOM      8  C   UNL     1       1.813   8.982  22.682  0.00  0.00    +0.000 C 
ATOM      9  C   UNL     1      -0.496   8.201  21.966  0.00  0.00    +0.000 C 
ATOM     10  C   UNL     1       1.526   7.581  20.652  0.00  0.00    +0.000 A 
ATOM     11  N   UNL     1       1.778   6.304  21.078  0.00  0.00    +0.000 N 
ATOM     12  C   UNL     1       2.367   5.592  20.058  0.00  0.00    +0.000 A 
ATOM     13  C   UNL     1       2.813   4.269  20.025  0.00  0.00    +0.000 A 
ATOM     14  C   UNL     1       3.385   3.814  18.825  0.00  0.00    +0.000 A 
ATOM     15  C   UNL     1       3.495   4.654  17.709  0.00  0.00    +0.000 A 
ATOM     16  C   UNL     1       3.037   5.962  17.765  0.00  0.00    +0.000 A 
ATOM     17  C   UNL     1       2.472   6.445  18.958  0.00  0.00    +0.000 A 
ATOM     18  C   UNL     1       1.936   7.692  19.338  0.00  0.00    +0.000 A 
ATOM     19  C   UNL     1       1.812   8.912  18.569  0.00  0.00    +0.000 C 
ATOM     20  O   UNL     1       2.188   9.025  17.412  0.00  0.00    +0.000 OA
ATOM     21  H   UNL     1       1.582   5.937  21.998  0.00  0.00    +0.000 HD
ENDROOT
BRANCH   6  22
ATOM     22  N   UNL     1      -1.125  13.062  21.149  0.00  0.00    +0.000 N 
ATOM     23  C   UNL     1      -0.536  13.754  22.326  0.00  0.00    +0.000 C 
ATOM     24  C   UNL     1      -1.601  14.480  23.110  0.00  0.00    +0.000 C 
ATOM     25  C   UNL     1      -2.366  15.517  22.263  0.00  0.00    +0.000 C 
ATOM     26  C   UNL     1      -2.856  14.780  20.984  0.00  0.00    +0.000 C 
ATOM     27  C   UNL     1      -1.760  14.019  20.235  0.00  0.00    +0.000 C 
BRANCH  25  28
ATOM     28  N   UNL     1      -1.689  16.792  21.895  0.00  0.00    +0.000 NA
ATOM     29  C   UNL     1      -0.306  17.005  22.389  0.00  0.00    +0.000 C 
ATOM     30  C   UNL     1      -0.194  17.349  23.885  0.00  0.00    +0.000 C 
ATOM     31  O   UNL     1      -0.940  18.533  24.188  0.00  0.00    +0.000 OA
ATOM     32  C   UNL     1      -2.316  18.333  23.849  0.00  0.00    +0.000 C 
ATOM     33  C   UNL     1      -2.479  17.979  22.354  0.00  0.00    +0.000 C 
ENDBRANCH  25  28
ENDBRANCH   6  22
BRANCH  14  34
ATOM     34  C   UNL     1       3.872   2.486  18.745  0.00  0.00    +0.000 C 
ATOM     35  N   UNL     1       4.258   1.385  18.686  0.00  0.00    +0.000 NA
ENDBRANCH  14  34
BRANCH   1  36
ATOM     36  C   UNL     1       0.108  13.603  18.369  0.00  0.00    +0.000 C 
BRANCH  36  38
ATOM     37  C   UNL     1       2.519  14.312  18.692  0.00  0.00    +0.000 C 
ATOM     38  C   UNL     1       1.059  14.732  18.796  0.00  0.00    +0.000 C 
ENDBRANCH  36  38
ENDBRANCH   1  36
TORSDOF 5
ENDMDL
