MODEL 1
REMARK VINA RESULT:      -8.4      0.000      0.000
REMARK  Name = 
REMARK  12 active torsions:
REMARK  status: ('A' for Active; 'I' for Inactive)
REMARK    1  A    between atoms: C_1  and  C_2
REMARK    2  A    between atoms: C_2  and  C_3
REMARK    3  A    between atoms: C_3  and  C_4
REMARK    4  A    between atoms: C_6  and  C_7
REMARK    5  A    between atoms: C_10  and  O_11
REMARK    6  A    between atoms: C_16  and  O_17
REMARK    7  A    between atoms: O_17  and  C_18
REMARK    8  A    between atoms: C_18  and  C_19
REMARK    9  A    between atoms: C_19  and  C_20
REMARK   10  A    between atoms: C_20  and  O_21
REMARK   11  A    between atoms: O_21  and  C_22
REMARK   12  A    between atoms: C_26  and  C_27
REMARK                            x       y       z     vdW  Elec       q    Type
REMARK                         _______ _______ _______ _____ _____    ______ ____
ROOT
ATOM      1  O   UNL     1       1.485   8.470  21.476  0.00  0.00    +0.000 OA
ENDROOT
BRANCH   1   7
ATOM      2  C   UNL     1       0.390  10.598  20.782  0.00  0.00    +0.000 A 
ATOM      3  C   UNL     1      -0.552  11.576  21.186  0.00  0.00    +0.000 A 
ATOM      4  C   UNL     1      -1.213  11.543  22.421  0.00  0.00    +0.000 A 
ATOM      5  C   UNL     1      -0.957  10.465  23.265  0.00  0.00    +0.000 A 
ATOM      6  C   UNL     1      -0.048   9.472  22.878  0.00  0.00    +0.000 A 
ATOM      7  C   UNL     1       0.654   9.539  21.664  0.00  0.00    +0.000 A 
BRANCH   4   8
ATOM      8  C   UNL     1      -2.114  12.705  22.808  0.00  0.00    +0.000 C 
ATOM      9  C   UNL     1      -3.304  12.286  23.689  0.00  0.00    +0.000 C 
ATOM     10  C   UNL     1      -4.160  13.490  24.090  0.00  0.00    +0.000 C 
ATOM     11  C   UNL     1      -3.317  14.573  24.759  0.00  0.00    +0.000 C 
ATOM     12  C   UNL     1      -2.182  15.023  23.843  0.00  0.00    +0.000 C 
ATOM     13  C   UNL     1      -1.298  13.845  23.444  0.00  0.00    +0.000 C 
BRANCH  11  14
ATOM     14  O   UNL     1      -4.137  15.687  25.095  0.00  0.00    +0.000 OA
ATOM     15  H   UNL     1      -5.054  15.475  24.853  0.00  0.00    +0.000 HD
ENDBRANCH  11  14
ENDBRANCH   4   8
BRANCH   2  16
ATOM     16  C   UNL     1       1.040  10.847  19.439  0.00  0.00    +0.000 C 
BRANCH  16  18
ATOM     17  C   UNL     1       2.161  12.923  18.499  0.00  0.00    +0.000 C 
ATOM     18  C   UNL     1       0.847  12.232  18.808  0.00  0.00    +0.000 C 
ENDBRANCH  16  18
ENDBRANCH   2  16
ENDBRANCH   1   7
BRANCH   1  19
ATOM     19  C   UNL     1       1.161   7.442  20.548  0.00  0.00    +0.000 C 
BRANCH  19  20
ATOM     20  C   UNL     1       2.292   6.464  20.319  0.00  0.00    +0.000 C 
BRANCH  20  21
ATOM     21  C   UNL     1       1.843   5.072  20.701  0.00  0.00    +0.000 C 
BRANCH  21  22
ATOM     22  O   UNL     1       2.967   4.204  20.613  0.00  0.00    +0.000 OA
BRANCH  22  23
ATOM     23  C   UNL     1       3.544   4.120  19.376  0.00  0.00    +0.000 A 
ATOM     24  C   UNL     1       2.735   3.560  18.394  0.00  0.00    +0.000 A 
ATOM     25  C   UNL     1       3.220   3.401  17.097  0.00  0.00    +0.000 A 
ATOM     26  C   UNL     1       4.520   3.803  16.783  0.00  0.00    +0.000 A 
ATOM     27  C   UNL     1       5.351   4.378  17.757  0.00  0.00    +0.000 A 
ATOM     28  C   UNL     1       4.842   4.531  19.056  0.00  0.00    +0.000 A 
BRANCH  27  29
ATOM     29  C   UNL     1       6.773   4.769  17.413  0.00  0.00    +0.000 C 
ATOM     30  O   UNL     1       7.408   5.516  18.470  0.00  0.00    +0.000 OA
ATOM     31  C   UNL     1       7.819   6.718  17.986  0.00  0.00    +0.000 C 
ATOM     32  O   UNL     1       8.381   7.567  18.656  0.00  0.00    +0.000 OA
ATOM     33  N   UNL     1       7.530   6.818  16.681  0.00  0.00    +0.000 N 
ATOM     34  C   UNL     1       6.900   5.711  16.241  0.00  0.00    +0.000 C 
ATOM     35  O   UNL     1       6.535   5.521  15.093  0.00  0.00    +0.000 OA
ATOM     36  H   UNL     1       7.753   7.620  16.116  0.00  0.00    +0.000 HD
ENDBRANCH  27  29
ENDBRANCH  22  23
ENDBRANCH  21  22
ENDBRANCH  20  21
ENDBRANCH  19  20
ENDBRANCH   1  19
TORSDOF 11
ENDMDL
MODEL 2
REMARK VINA RESULT:      -8.3      2.038      2.480
REMARK  Name = 
REMARK  12 active torsions:
REMARK  status: ('A' for Active; 'I' for Inactive)
REMARK    1  A    between atoms: C_1  and  C_2
REMARK    2  A    between atoms: C_2  and  C_3
REMARK    3  A    between atoms: C_3  and  C_4
REMARK    4  A    between atoms: C_6  and  C_7
REMARK    5  A    between atoms: C_10  and  O_11
REMARK    6  A    between atoms: C_16  and  O_17
REMARK    7  A    between atoms: O_17  and  C_18
REMARK    8  A    between atoms: C_18  and  C_19
REMARK    9  A    between atoms: C_19  and  C_20
REMARK   10  A    between atoms: C_20  and  O_21
REMARK   11  A    between atoms: O_21  and  C_22
REMARK   12  A    between atoms: C_26  and  C_27
REMARK                            x       y       z     vdW  Elec       q    Type
REMARK                         _______ _______ _______ _____ _____    ______ ____
ROOT
ATOM      1  O   UNL     1       0.381   9.783  17.863  0.00  0.00    +0.000 OA
ENDROOT
BRANCH   1   7
ATOM      2  C   UNL     1      -1.464  11.364  18.414  0.00  0.00    +0.000 A 
ATOM      3  C   UNL     1      -2.029  12.132  19.462  0.00  0.00    +0.000 A 
ATOM      4  C   UNL     1      -1.484  12.191  20.752  0.00  0.00    +0.000 A 
ATOM      5  C   UNL     1      -0.356  11.416  21.015  0.00  0.00    +0.000 A 
ATOM      6  C   UNL     1       0.207  10.630  20.001  0.00  0.00    +0.000 A 
ATOM      7  C   UNL     1      -0.310  10.618  18.696  0.00  0.00    +0.000 A 
BRANCH   4   8
ATOM      8  C   UNL     1      -2.097  13.137  21.771  0.00  0.00    +0.000 C 
ATOM      9  C   UNL     1      -3.511  12.722  22.215  0.00  0.00    +0.000 C 
ATOM     10  C   UNL     1      -4.073  13.676  23.271  0.00  0.00    +0.000 C 
ATOM     11  C   UNL     1      -3.125  13.810  24.461  0.00  0.00    +0.000 C 
ATOM     12  C   UNL     1      -1.748  14.287  24.008  0.00  0.00    +0.000 C 
ATOM     13  C   UNL     1      -1.153  13.341  22.969  0.00  0.00    +0.000 C 
BRANCH  11  14
ATOM     14  O   UNL     1      -3.665  14.722  25.411  0.00  0.00    +0.000 OA
ATOM     15  H   UNL     1      -3.858  14.233  26.228  0.00  0.00    +0.000 HD
ENDBRANCH  11  14
ENDBRANCH   4   8
BRANCH   2  16
ATOM     16  C   UNL     1      -2.166  11.484  17.079  0.00  0.00    +0.000 C 
BRANCH  16  18
ATOM     17  C   UNL     1      -3.694   9.512  17.557  0.00  0.00    +0.000 C 
ATOM     18  C   UNL     1      -3.585  10.907  16.974  0.00  0.00    +0.000 C 
ENDBRANCH  16  18
ENDBRANCH   2  16
ENDBRANCH   1   7
BRANCH   1  19
ATOM     19  C   UNL     1       1.743   9.458  18.114  0.00  0.00    +0.000 C 
BRANCH  19  20
ATOM     20  C   UNL     1       2.011   7.969  18.124  0.00  0.00    +0.000 C 
BRANCH  20  21
ATOM     21  C   UNL     1       2.301   7.516  19.537  0.00  0.00    +0.000 C 
BRANCH  21  22
ATOM     22  O   UNL     1       1.989   6.131  19.631  0.00  0.00    +0.000 OA
BRANCH  22  23
ATOM     23  C   UNL     1       2.653   5.322  18.751  0.00  0.00    +0.000 A 
ATOM     24  C   UNL     1       1.848   4.408  18.081  0.00  0.00    +0.000 A 
ATOM     25  C   UNL     1       2.412   3.514  17.174  0.00  0.00    +0.000 A 
ATOM     26  C   UNL     1       3.789   3.535  16.937  0.00  0.00    +0.000 A 
ATOM     27  C   UNL     1       4.619   4.455  17.595  0.00  0.00    +0.000 A 
ATOM     28  C   UNL     1       4.029   5.348  18.503  0.00  0.00    +0.000 A 
BRANCH  27  29
ATOM     29  C   UNL     1       6.114   4.437  17.361  0.00  0.00    +0.000 C 
ATOM     30  O   UNL     1       6.860   4.249  18.580  0.00  0.00    +0.000 OA
ATOM     31  C   UNL     1       7.715   5.293  18.750  0.00  0.00    +0.000 C 
ATOM     32  O   UNL     1       8.467   5.410  19.701  0.00  0.00    +0.000 OA
ATOM     33  N   UNL     1       7.614   6.148  17.722  0.00  0.00    +0.000 N 
ATOM     34  C   UNL     1       6.684   5.734  16.840  0.00  0.00    +0.000 C 
ATOM     35  O   UNL     1       6.396   6.309  15.804  0.00  0.00    +0.000 OA
ATOM     36  H   UNL     1       8.162   6.988  17.636  0.00  0.00    +0.000 HD
ENDBRANCH  27  29
ENDBRANCH  22  23
ENDBRANCH  21  22
ENDBRANCH  20  21
ENDBRANCH  19  20
ENDBRANCH   1  19
TORSDOF 11
ENDMDL
MODEL 3
REMARK VINA RESULT:      -8.3      1.194      1.656
REMARK  Name = 
REMARK  12 active torsions:
REMARK  status: ('A' for Active; 'I' for Inactive)
REMARK    1  A    between atoms: C_1  and  C_2
REMARK    2  A    between atoms: C_2  and  C_3
REMARK    3  A    between atoms: C_3  and  C_4
REMARK    4  A    between atoms: C_6  and  C_7
REMARK    5  A    between atoms: C_10  and  O_11
REMARK    6  A    between atoms: C_16  and  O_17
REMARK    7  A    between atoms: O_17  and  C_18
REMARK    8  A    between atoms: C_18  and  C_19
REMARK    9  A    between atoms: C_19  and  C_20
REMARK   10  A    between atoms: C_20  and  O_21
REMARK   11  A    between atoms: O_21  and  C_22
REMARK   12  A    between atoms: C_26  and  C_27
REMARK                            x       y       z     vdW  Elec       q    Type
REMARK                         _______ _______ _______ _____ _____    ______ ____
ROOT
ATOM      1  O   UNL     1       1.697   7.614  20.598  0.00  0.00    +0.000 OA
ENDROOT
BRANCH   1   7
ATOM      2  C   UNL     1       0.414   9.714  20.206  0.00  0.00    +0.000 A 
ATOM      3  C   UNL     1      -0.297  10.751  20.860  0.00  0.00    +0.000 A 
ATOM      4  C   UNL     1      -0.423  10.837  22.253  0.00  0.00    +0.000 A 
ATOM      5  C   UNL     1       0.145   9.821  23.019  0.00  0.00    +0.000 A 
ATOM      6  C   UNL     1       0.832   8.772  22.394  0.00  0.00    +0.000 A 
ATOM      7  C   UNL     1       1.004   8.721  21.002  0.00  0.00    +0.000 A 
BRANCH   4   8
ATOM      8  C   UNL     1      -1.103  12.053  22.859  0.00  0.00    +0.000 C 
ATOM      9  C   UNL     1      -0.547  13.388  22.333  0.00  0.00    +0.000 C 
ATOM     10  C   UNL     1      -1.288  14.584  22.936  0.00  0.00    +0.000 C 
ATOM     11  C   UNL     1      -2.795  14.474  22.714  0.00  0.00    +0.000 C 
ATOM     12  C   UNL     1      -3.338  13.174  23.302  0.00  0.00    +0.000 C 
ATOM     13  C   UNL     1      -2.632  11.962  22.702  0.00  0.00    +0.000 C 
BRANCH  11  14
ATOM     14  O   UNL     1      -3.455  15.586  23.308  0.00  0.00    +0.000 OA
ATOM     15  H   UNL     1      -3.262  15.583  24.260  0.00  0.00    +0.000 HD
ENDBRANCH  11  14
ENDBRANCH   4   8
BRANCH   2  16
ATOM     16  C   UNL     1       0.487   9.835  18.700  0.00  0.00    +0.000 C 
BRANCH  16  18
ATOM     17  C   UNL     1       2.382   8.555  17.594  0.00  0.00    +0.000 C 
ATOM     18  C   UNL     1       1.884   9.907  18.066  0.00  0.00    +0.000 C 
ENDBRANCH  16  18
ENDBRANCH   2  16
ENDBRANCH   1   7
BRANCH   1  19
ATOM     19  C   UNL     1       1.144   6.310  20.734  0.00  0.00    +0.000 C 
BRANCH  19  20
ATOM     20  C   UNL     1       2.144   5.283  21.217  0.00  0.00    +0.000 C 
BRANCH  20  21
ATOM     21  C   UNL     1       1.666   3.898  20.847  0.00  0.00    +0.000 C 
BRANCH  21  22
ATOM     22  O   UNL     1       2.801   3.120  20.482  0.00  0.00    +0.000 OA
BRANCH  22  23
ATOM     23  C   UNL     1       3.380   3.456  19.289  0.00  0.00    +0.000 A 
ATOM     24  C   UNL     1       2.561   3.288  18.179  0.00  0.00    +0.000 A 
ATOM     25  C   UNL     1       3.046   3.576  16.905  0.00  0.00    +0.000 A 
ATOM     26  C   UNL     1       4.356   4.032  16.742  0.00  0.00    +0.000 A 
ATOM     27  C   UNL     1       5.197   4.217  17.850  0.00  0.00    +0.000 A 
ATOM     28  C   UNL     1       4.688   3.923  19.125  0.00  0.00    +0.000 A 
BRANCH  27  29
ATOM     29  C   UNL     1       6.628   4.670  17.656  0.00  0.00    +0.000 C 
ATOM     30  O   UNL     1       6.901   5.926  18.309  0.00  0.00    +0.000 OA
ATOM     31  C   UNL     1       7.344   6.825  17.389  0.00  0.00    +0.000 C 
ATOM     32  O   UNL     1       7.643   7.976  17.650  0.00  0.00    +0.000 OA
ATOM     33  N   UNL     1       7.413   6.254  16.178  0.00  0.00    +0.000 N 
ATOM     34  C   UNL     1       7.004   4.971  16.225  0.00  0.00    +0.000 C 
ATOM     35  O   UNL     1       6.978   4.208  15.275  0.00  0.00    +0.000 OA
ATOM     36  H   UNL     1       7.726   6.732  15.350  0.00  0.00    +0.000 HD
ENDBRANCH  27  29
ENDBRANCH  22  23
ENDBRANCH  21  22
ENDBRANCH  20  21
ENDBRANCH  19  20
ENDBRANCH   1  19
TORSDOF 11
ENDMDL
MODEL 4
REMARK VINA RESULT:      -8.2      2.882      4.298
REMARK  Name = 
REMARK  12 active torsions:
REMARK  status: ('A' for Active; 'I' for Inactive)
REMARK    1  A    between atoms: C_1  and  C_2
REMARK    2  A    between atoms: C_2  and  C_3
REMARK    3  A    between atoms: C_3  and  C_4
REMARK    4  A    between atoms: C_6  and  C_7
REMARK    5  A    between atoms: C_10  and  O_11
REMARK    6  A    between atoms: C_16  and  O_17
REMARK    7  A    between atoms: O_17  and  C_18
REMARK    8  A    between atoms: C_18  and  C_19
REMARK    9  A    between atoms: C_19  and  C_20
REMARK   10  A    between atoms: C_20  and  O_21
REMARK   11  A    between atoms: O_21  and  C_22
REMARK   12  A    between atoms: C_26  and  C_27
REMARK                            x       y       z     vdW  Elec       q    Type
REMARK                         _______ _______ _______ _____ _____    ______ ____
ROOT
ATOM      1  O   UNL     1       0.724  10.442  18.082  0.00  0.00    +0.000 OA
ENDROOT
BRANCH   1   7
ATOM      2  C   UNL     1      -1.604  11.242  18.463  0.00  0.00    +0.000 A 
ATOM      3  C   UNL     1      -2.464  11.820  19.429  0.00  0.00    +0.000 A 
ATOM      4  C   UNL     1      -2.040  12.188  20.713  0.00  0.00    +0.000 A 
ATOM      5  C   UNL     1      -0.716  11.925  21.060  0.00  0.00    +0.000 A 
ATOM      6  C   UNL     1       0.147  11.332  20.129  0.00  0.00    +0.000 A 
ATOM      7  C   UNL     1      -0.268  11.017  18.825  0.00  0.00    +0.000 A 
BRANCH   4   8
ATOM      8  C   UNL     1      -3.011  12.910  21.633  0.00  0.00    +0.000 C 
ATOM      9  C   UNL     1      -4.485  12.729  21.227  0.00  0.00    +0.000 C 
ATOM     10  C   UNL     1      -5.429  13.435  22.203  0.00  0.00    +0.000 C 
ATOM     11  C   UNL     1      -5.181  12.986  23.641  0.00  0.00    +0.000 C 
ATOM     12  C   UNL     1      -3.730  13.235  24.047  0.00  0.00    +0.000 C 
ATOM     13  C   UNL     1      -2.766  12.524  23.103  0.00  0.00    +0.000 C 
BRANCH  11  14
ATOM     14  O   UNL     1      -6.056  13.679  24.524  0.00  0.00    +0.000 OA
ATOM     15  H   UNL     1      -6.815  13.104  24.715  0.00  0.00    +0.000 HD
ENDBRANCH  11  14
ENDBRANCH   4   8
BRANCH   2  16
ATOM     16  C   UNL     1      -2.238  10.976  17.115  0.00  0.00    +0.000 C 
BRANCH  16  18
ATOM     17  C   UNL     1      -4.258  11.044  15.578  0.00  0.00    +0.000 C 
ATOM     18  C   UNL     1      -3.760  11.142  17.006  0.00  0.00    +0.000 C 
ENDBRANCH  16  18
ENDBRANCH   2  16
ENDBRANCH   1   7
BRANCH   1  19
ATOM     19  C   UNL     1       1.658   9.545  18.672  0.00  0.00    +0.000 C 
BRANCH  19  20
ATOM     20  C   UNL     1       1.955   8.337  17.810  0.00  0.00    +0.000 C 
BRANCH  20  21
ATOM     21  C   UNL     1       3.143   7.592  18.374  0.00  0.00    +0.000 C 
BRANCH  21  22
ATOM     22  O   UNL     1       4.115   7.464  17.344  0.00  0.00    +0.000 OA
BRANCH  22  23
ATOM     23  C   UNL     1       4.415   6.180  16.980  0.00  0.00    +0.000 A 
ATOM     24  C   UNL     1       5.305   6.069  15.918  0.00  0.00    +0.000 A 
ATOM     25  C   UNL     1       5.670   4.812  15.442  0.00  0.00    +0.000 A 
ATOM     26  C   UNL     1       5.141   3.661  16.030  0.00  0.00    +0.000 A 
ATOM     27  C   UNL     1       4.248   3.749  17.108  0.00  0.00    +0.000 A 
ATOM     28  C   UNL     1       3.895   5.025  17.574  0.00  0.00    +0.000 A 
BRANCH  27  29
ATOM     29  C   UNL     1       3.649   2.495  17.708  0.00  0.00    +0.000 C 
ATOM     30  O   UNL     1       2.236   2.381  17.448  0.00  0.00    +0.000 OA
ATOM     31  C   UNL     1       1.566   2.292  18.628  0.00  0.00    +0.000 C 
ATOM     32  O   UNL     1       0.355   2.197  18.721  0.00  0.00    +0.000 OA
ATOM     33  N   UNL     1       2.429   2.310  19.654  0.00  0.00    +0.000 N 
ATOM     34  C   UNL     1       3.698   2.433  19.215  0.00  0.00    +0.000 C 
ATOM     35  O   UNL     1       4.686   2.460  19.928  0.00  0.00    +0.000 OA
ATOM     36  H   UNL     1       2.155   2.245  20.620  0.00  0.00    +0.000 HD
ENDBRANCH  27  29
ENDBRANCH  22  23
ENDBRANCH  21  22
ENDBRANCH  20  21
ENDBRANCH  19  20
ENDBRANCH   1  19
TORSDOF 11
ENDMDL
MODEL 5
REMARK VINA RESULT:      -8.2      4.386     11.842
REMARK  Name = 
REMARK  12 active torsions:
REMARK  status: ('A' for Active; 'I' for Inactive)
REMARK    1  A    between atoms: C_1  and  C_2
REMARK    2  A    between atoms: C_2  and  C_3
REMARK    3  A    between atoms: C_3  and  C_4
REMARK    4  A    between atoms: C_6  and  C_7
REMARK    5  A    between atoms: C_10  and  O_11
REMARK    6  A    between atoms: C_16  and  O_17
REMARK    7  A    between atoms: O_17  and  C_18
REMARK    8  A    between atoms: C_18  and  C_19
REMARK    9  A    between atoms: C_19  and  C_20
REMARK   10  A    between atoms: C_20  and  O_21
REMARK   11  A    between atoms: O_21  and  C_22
REMARK   12  A    between atoms: C_26  and  C_27
REMARK                            x       y       z     vdW  Elec       q    Type
REMARK                         _______ _______ _______ _____ _____    ______ ____
ROOT
ATOM      1  O   UNL     1       0.539   9.987  19.103  0.00  0.00    +0.000 OA
ENDROOT
BRANCH   1   7
ATOM      2  C   UNL     1       1.708   7.921  19.860  0.00  0.00    +0.000 A 
ATOM      3  C   UNL     1       2.633   6.927  19.459  0.00  0.00    +0.000 A 
ATOM      4  C   UNL     1       3.277   6.933  18.214  0.00  0.00    +0.000 A 
ATOM      5  C   UNL     1       2.948   7.948  17.318  0.00  0.00    +0.000 A 
ATOM      6  C   UNL     1       2.018   8.930  17.684  0.00  0.00    +0.000 A 
ATOM      7  C   UNL     1       1.418   8.951  18.953  0.00  0.00    +0.000 A 
BRANCH   4   8
ATOM      8  C   UNL     1       4.341   5.886  17.927  0.00  0.00    +0.000 C 
ATOM      9  C   UNL     1       5.031   6.075  16.565  0.00  0.00    +0.000 C 
ATOM     10  C   UNL     1       6.123   5.028  16.336  0.00  0.00    +0.000 C 
ATOM     11  C   UNL     1       7.133   5.017  17.481  0.00  0.00    +0.000 C 
ATOM     12  C   UNL     1       6.438   4.762  18.816  0.00  0.00    +0.000 C 
ATOM     13  C   UNL     1       5.357   5.806  19.081  0.00  0.00    +0.000 C 
BRANCH  11  14
ATOM     14  O   UNL     1       8.119   4.017  17.250  0.00  0.00    +0.000 OA
ATOM     15  H   UNL     1       8.890   4.439  16.837  0.00  0.00    +0.000 HD
ENDBRANCH  11  14
ENDBRANCH   4   8
BRANCH   2  16
ATOM     16  C   UNL     1       1.171   7.771  21.266  0.00  0.00    +0.000 C 
BRANCH  16  18
ATOM     17  C   UNL     1      -0.161   9.401  22.687  0.00  0.00    +0.000 C 
ATOM     18  C   UNL     1       1.211   9.009  22.173  0.00  0.00    +0.000 C 
ENDBRANCH  16  18
ENDBRANCH   2  16
ENDBRANCH   1   7
BRANCH   1  19
ATOM     19  C   UNL     1      -0.261  10.434  18.014  0.00  0.00    +0.000 C 
BRANCH  19  20
ATOM     20  C   UNL     1      -1.745  10.392  18.306  0.00  0.00    +0.000 C 
BRANCH  20  21
ATOM     21  C   UNL     1      -2.381  11.697  17.884  0.00  0.00    +0.000 C 
BRANCH  21  22
ATOM     22  O   UNL     1      -3.714  11.426  17.467  0.00  0.00    +0.000 OA
BRANCH  22  23
ATOM     23  C   UNL     1      -4.670  11.572  18.435  0.00  0.00    +0.000 A 
ATOM     24  C   UNL     1      -5.862  10.905  18.179  0.00  0.00    +0.000 A 
ATOM     25  C   UNL     1      -6.919  10.995  19.082  0.00  0.00    +0.000 A 
ATOM     26  C   UNL     1      -6.783  11.758  20.244  0.00  0.00    +0.000 A 
ATOM     27  C   UNL     1      -5.586  12.433  20.526  0.00  0.00    +0.000 A 
ATOM     28  C   UNL     1      -4.532  12.327  19.605  0.00  0.00    +0.000 A 
BRANCH  27  29
ATOM     29  C   UNL     1      -5.467  13.291  21.767  0.00  0.00    +0.000 C 
ATOM     30  O   UNL     1      -4.741  12.632  22.824  0.00  0.00    +0.000 OA
ATOM     31  C   UNL     1      -5.525  12.560  23.932  0.00  0.00    +0.000 C 
ATOM     32  O   UNL     1      -5.180  12.045  24.980  0.00  0.00    +0.000 OA
ATOM     33  N   UNL     1      -6.710  13.145  23.702  0.00  0.00    +0.000 N 
ATOM     34  C   UNL     1      -6.780  13.611  22.439  0.00  0.00    +0.000 C 
ATOM     35  O   UNL     1      -7.734  14.201  21.962  0.00  0.00    +0.000 OA
ATOM     36  H   UNL     1      -7.442  13.217  24.387  0.00  0.00    +0.000 HD
ENDBRANCH  27  29
ENDBRANCH  22  23
ENDBRANCH  21  22
ENDBRANCH  20  21
ENDBRANCH  19  20
ENDBRANCH   1  19
TORSDOF 11
ENDMDL
MODEL 6
REMARK VINA RESULT:      -8.1      3.656     11.609
REMARK  Name = 
REMARK  12 active torsions:
REMARK  status: ('A' for Active; 'I' for Inactive)
REMARK    1  A    between atoms: C_1  and  C_2
REMARK    2  A    between atoms: C_2  and  C_3
REMARK    3  A    between atoms: C_3  and  C_4
REMARK    4  A    between atoms: C_6  and  C_7
REMARK    5  A    between atoms: C_10  and  O_11
REMARK    6  A    between atoms: C_16  and  O_17
REMARK    7  A    between atoms: O_17  and  C_18
REMARK    8  A    between atoms: C_18  and  C_19
REMARK    9  A    between atoms: C_19  and  C_20
REMARK   10  A    between atoms: C_20  and  O_21
REMARK   11  A    between atoms: O_21  and  C_22
REMARK   12  A    between atoms: C_26  and  C_27
REMARK                            x       y       z     vdW  Elec       q    Type
REMARK                         _______ _______ _______ _____ _____    ______ ____
ROOT
ATOM      1  O   UNL     1       0.081  10.695  19.566  0.00  0.00    +0.000 OA
ENDROOT
BRANCH   1   7
ATOM      2  C   UNL     1       1.304   8.654  20.307  0.00  0.00    +0.000 A 
ATOM      3  C   UNL     1       2.124   7.593  19.852  0.00  0.00    +0.000 A 
ATOM      4  C   UNL     1       2.556   7.469  18.525  0.00  0.00    +0.000 A 
ATOM      5  C   UNL     1       2.111   8.419  17.607  0.00  0.00    +0.000 A 
ATOM      6  C   UNL     1       1.280   9.465  18.028  0.00  0.00    +0.000 A 
ATOM      7  C   UNL     1       0.896   9.616  19.370  0.00  0.00    +0.000 A 
BRANCH   4   8
ATOM      8  C   UNL     1       3.531   6.360  18.165  0.00  0.00    +0.000 C 
ATOM      9  C   UNL     1       4.687   6.832  17.265  0.00  0.00    +0.000 C 
ATOM     10  C   UNL     1       5.667   5.697  16.963  0.00  0.00    +0.000 C 
ATOM     11  C   UNL     1       6.181   5.050  18.247  0.00  0.00    +0.000 C 
ATOM     12  C   UNL     1       5.024   4.528  19.095  0.00  0.00    +0.000 C 
ATOM     13  C   UNL     1       4.041   5.646  19.430  0.00  0.00    +0.000 C 
BRANCH  11  14
ATOM     14  O   UNL     1       7.068   3.983  17.932  0.00  0.00    +0.000 OA
ATOM     15  H   UNL     1       7.888   4.107  18.439  0.00  0.00    +0.000 HD
ENDBRANCH  11  14
ENDBRANCH   4   8
BRANCH   2  16
ATOM     16  C   UNL     1       1.000   8.643  21.789  0.00  0.00    +0.000 C 
BRANCH  16  18
ATOM     17  C   UNL     1      -0.664  10.005  23.140  0.00  0.00    +0.000 C 
ATOM     18  C   UNL     1      -0.465   8.825  22.210  0.00  0.00    +0.000 C 
ENDBRANCH  16  18
ENDBRANCH   2  16
ENDBRANCH   1   7
BRANCH   1  19
ATOM     19  C   UNL     1      -1.126  10.847  18.828  0.00  0.00    +0.000 C 
BRANCH  19  20
ATOM     20  C   UNL     1      -1.275  12.216  18.201  0.00  0.00    +0.000 C 
BRANCH  20  21
ATOM     21  C   UNL     1      -0.058  13.054  18.521  0.00  0.00    +0.000 C 
BRANCH  21  22
ATOM     22  O   UNL     1      -0.504  14.296  19.056  0.00  0.00    +0.000 OA
BRANCH  22  23
ATOM     23  C   UNL     1      -1.051  14.230  20.307  0.00  0.00    +0.000 A 
ATOM     24  C   UNL     1      -0.173  13.825  21.305  0.00  0.00    +0.000 A 
ATOM     25  C   UNL     1      -0.619  13.699  22.619  0.00  0.00    +0.000 A 
ATOM     26  C   UNL     1      -1.951  13.976  22.934  0.00  0.00    +0.000 A 
ATOM     27  C   UNL     1      -2.854  14.394  21.943  0.00  0.00    +0.000 A 
ATOM     28  C   UNL     1      -2.382  14.517  20.627  0.00  0.00    +0.000 A 
BRANCH  27  29
ATOM     29  C   UNL     1      -4.304  14.650  22.291  0.00  0.00    +0.000 C 
ATOM     30  O   UNL     1      -4.509  15.950  22.877  0.00  0.00    +0.000 OA
ATOM     31  C   UNL     1      -5.082  15.807  24.101  0.00  0.00    +0.000 C 
ATOM     32  O   UNL     1      -5.362  16.737  24.837  0.00  0.00    +0.000 OA
ATOM     33  N   UNL     1      -5.300  14.510  24.364  0.00  0.00    +0.000 N 
ATOM     34  C   UNL     1      -4.868  13.734  23.350  0.00  0.00    +0.000 C 
ATOM     35  O   UNL     1      -4.955  12.519  23.312  0.00  0.00    +0.000 OA
ATOM     36  H   UNL     1      -5.725  14.173  25.211  0.00  0.00    +0.000 HD
ENDBRANCH  27  29
ENDBRANCH  22  23
ENDBRANCH  21  22
ENDBRANCH  20  21
ENDBRANCH  19  20
ENDBRANCH   1  19
TORSDOF 11
ENDMDL
MODEL 7
REMARK VINA RESULT:      -8.0      1.282      1.578
REMARK  Name = 
REMARK  12 active torsions:
REMARK  status: ('A' for Active; 'I' for Inactive)
REMARK    1  A    between atoms: C_1  and  C_2
REMARK    2  A    between atoms: C_2  and  C_3
REMARK    3  A    between atoms: C_3  and  C_4
REMARK    4  A    between atoms: C_6  and  C_7
REMARK    5  A    between atoms: C_10  and  O_11
REMARK    6  A    between atoms: C_16  and  O_17
REMARK    7  A    between atoms: O_17  and  C_18
REMARK    8  A    between atoms: C_18  and  C_19
REMARK    9  A    between atoms: C_19  and  C_20
REMARK   10  A    between atoms: C_20  and  O_21
REMARK   11  A    between atoms: O_21  and  C_22
REMARK   12  A    between atoms: C_26  and  C_27
REMARK                            x       y       z     vdW  Elec       q    Type
REMARK                         _______ _______ _______ _____ _____    ______ ____
ROOT
ATOM      1  O   UNL     1       1.564   8.354  21.265  0.00  0.00    +0.000 OA
ENDROOT
BRANCH   1   7
ATOM      2  C   UNL     1       0.478  10.410  20.369  0.00  0.00    +0.000 A 
ATOM      3  C   UNL     1      -0.475  11.414  20.667  0.00  0.00    +0.000 A 
ATOM      4  C   UNL     1      -1.166  11.482  21.885  0.00  0.00    +0.000 A 
ATOM      5  C   UNL     1      -0.926  10.479  22.823  0.00  0.00    +0.000 A 
ATOM      6  C   UNL     1      -0.005   9.462  22.541  0.00  0.00    +0.000 A 
ATOM      7  C   UNL     1       0.725   9.431  21.343  0.00  0.00    +0.000 A 
BRANCH   4   8
ATOM      8  C   UNL     1      -2.079  12.667  22.151  0.00  0.00    +0.000 C 
ATOM      9  C   UNL     1      -3.223  12.797  21.130  0.00  0.00    +0.000 C 
ATOM     10  C   UNL     1      -4.142  13.975  21.460  0.00  0.00    +0.000 C 
ATOM     11  C   UNL     1      -4.671  13.885  22.890  0.00  0.00    +0.000 C 
ATOM     12  C   UNL     1      -3.522  13.824  23.892  0.00  0.00    +0.000 C 
ATOM     13  C   UNL     1      -2.600  12.644  23.600  0.00  0.00    +0.000 C 
BRANCH  11  14
ATOM     14  O   UNL     1      -5.500  15.007  23.172  0.00  0.00    +0.000 OA
ATOM     15  H   UNL     1      -6.202  14.722  23.780  0.00  0.00    +0.000 HD
ENDBRANCH  11  14
ENDBRANCH   4   8
BRANCH   2  16
ATOM     16  C   UNL     1       1.159  10.548  19.025  0.00  0.00    +0.000 C 
BRANCH  16  18
ATOM     17  C   UNL     1       2.249   8.643  17.748  0.00  0.00    +0.000 C 
ATOM     18  C   UNL     1       0.967   9.408  18.016  0.00  0.00    +0.000 C 
ENDBRANCH  16  18
ENDBRANCH   2  16
ENDBRANCH   1   7
BRANCH   1  19
ATOM     19  C   UNL     1       1.052   7.034  21.123  0.00  0.00    +0.000 C 
BRANCH  19  20
ATOM     20  C   UNL     1       1.955   6.126  20.318  0.00  0.00    +0.000 C 
BRANCH  20  21
ATOM     21  C   UNL     1       2.368   4.943  21.164  0.00  0.00    +0.000 C 
BRANCH  21  22
ATOM     22  O   UNL     1       2.322   3.778  20.348  0.00  0.00    +0.000 OA
BRANCH  22  23
ATOM     23  C   UNL     1       2.968   3.880  19.147  0.00  0.00    +0.000 A 
ATOM     24  C   UNL     1       2.189   3.561  18.040  0.00  0.00    +0.000 A 
ATOM     25  C   UNL     1       2.741   3.606  16.762  0.00  0.00    +0.000 A 
ATOM     26  C   UNL     1       4.079   3.971  16.591  0.00  0.00    +0.000 A 
ATOM     27  C   UNL     1       4.880   4.306  17.693  0.00  0.00    +0.000 A 
ATOM     28  C   UNL     1       4.304   4.256  18.972  0.00  0.00    +0.000 A 
BRANCH  27  29
ATOM     29  C   UNL     1       6.339   4.658  17.497  0.00  0.00    +0.000 C 
ATOM     30  O   UNL     1       7.143   4.332  18.648  0.00  0.00    +0.000 OA
ATOM     31  C   UNL     1       7.768   5.454  19.093  0.00  0.00    +0.000 C 
ATOM     32  O   UNL     1       8.508   5.486  20.061  0.00  0.00    +0.000 OA
ATOM     33  N   UNL     1       7.463   6.498  18.309  0.00  0.00    +0.000 N 
ATOM     34  C   UNL     1       6.614   6.132  17.329  0.00  0.00    +0.000 C 
ATOM     35  O   UNL     1       6.182   6.874  16.462  0.00  0.00    +0.000 OA
ATOM     36  H   UNL     1       7.823   7.428  18.446  0.00  0.00    +0.000 HD
ENDBRANCH  27  29
ENDBRANCH  22  23
ENDBRANCH  21  22
ENDBRANCH  20  21
ENDBRANCH  19  20
ENDBRANCH   1  19
TORSDOF 11
ENDMDL
MODEL 8
REMARK VINA RESULT:      -8.0      4.753     11.408
REMARK  Name = 
REMARK  12 active torsions:
REMARK  status: ('A' for Active; 'I' for Inactive)
REMARK    1  A    between atoms: C_1  and  C_2
REMARK    2  A    between atoms: C_2  and  C_3
REMARK    3  A    between atoms: C_3  and  C_4
REMARK    4  A    between atoms: C_6  and  C_7
REMARK    5  A    between atoms: C_10  and  O_11
REMARK    6  A    between atoms: C_16  and  O_17
REMARK    7  A    between atoms: O_17  and  C_18
REMARK    8  A    between atoms: C_18  and  C_19
REMARK    9  A    between atoms: C_19  and  C_20
REMARK   10  A    between atoms: C_20  and  O_21
REMARK   11  A    between atoms: O_21  and  C_22
REMARK   12  A    between atoms: C_26  and  C_27
REMARK                            x       y       z     vdW  Elec       q    Type
REMARK                         _______ _______ _______ _____ _____    ______ ____
ROOT
ATOM      1  O   UNL     1       1.099   8.008  21.094  0.00  0.00    +0.000 OA
ENDROOT
BRANCH   1   7
ATOM      2  C   UNL     1       2.202   5.967  20.186  0.00  0.00    +0.000 A 
ATOM      3  C   UNL     1       2.949   5.470  19.090  0.00  0.00    +0.000 A 
ATOM      4  C   UNL     1       3.353   6.268  18.011  0.00  0.00    +0.000 A 
ATOM      5  C   UNL     1       2.956   7.604  18.007  0.00  0.00    +0.000 A 
ATOM      6  C   UNL     1       2.197   8.112  19.069  0.00  0.00    +0.000 A 
ATOM      7  C   UNL     1       1.843   7.323  20.174  0.00  0.00    +0.000 A 
BRANCH   4   8
ATOM      8  C   UNL     1       4.253   5.666  16.943  0.00  0.00    +0.000 C 
ATOM      9  C   UNL     1       4.866   6.716  16.000  0.00  0.00    +0.000 C 
ATOM     10  C   UNL     1       5.796   6.072  14.969  0.00  0.00    +0.000 C 
ATOM     11  C   UNL     1       6.872   5.224  15.644  0.00  0.00    +0.000 C 
ATOM     12  C   UNL     1       6.244   4.146  16.523  0.00  0.00    +0.000 C 
ATOM     13  C   UNL     1       5.326   4.762  17.576  0.00  0.00    +0.000 C 
BRANCH  11  14
ATOM     14  O   UNL     1       7.703   4.620  14.659  0.00  0.00    +0.000 OA
ATOM     15  H   UNL     1       8.034   5.319  14.069  0.00  0.00    +0.000 HD
ENDBRANCH  11  14
ENDBRANCH   4   8
BRANCH   2  16
ATOM     16  C   UNL     1       1.919   4.961  21.280  0.00  0.00    +0.000 C 
BRANCH  16  18
ATOM     17  C   UNL     1       0.736   3.057  20.086  0.00  0.00    +0.000 C 
ATOM     18  C   UNL     1       1.948   3.475  20.896  0.00  0.00    +0.000 C 
ENDBRANCH  16  18
ENDBRANCH   2  16
ENDBRANCH   1   7
BRANCH   1  19
ATOM     19  C   UNL     1      -0.025   8.785  20.697  0.00  0.00    +0.000 C 
BRANCH  19  20
ATOM     20  C   UNL     1       0.146  10.265  20.962  0.00  0.00    +0.000 C 
BRANCH  20  21
ATOM     21  C   UNL     1      -0.094  11.039  19.687  0.00  0.00    +0.000 C 
BRANCH  21  22
ATOM     22  O   UNL     1      -1.413  11.570  19.732  0.00  0.00    +0.000 OA
BRANCH  22  23
ATOM     23  C   UNL     1      -2.219  11.221  18.684  0.00  0.00    +0.000 A 
ATOM     24  C   UNL     1      -1.602  10.447  17.708  0.00  0.00    +0.000 A 
ATOM     25  C   UNL     1      -2.314  10.048  16.580  0.00  0.00    +0.000 A 
ATOM     26  C   UNL     1      -3.650  10.425  16.426  0.00  0.00    +0.000 A 
ATOM     27  C   UNL     1      -4.296  11.199  17.403  0.00  0.00    +0.000 A 
ATOM     28  C   UNL     1      -3.561  11.589  18.533  0.00  0.00    +0.000 A 
BRANCH  27  29
ATOM     29  C   UNL     1      -5.731  11.638  17.203  0.00  0.00    +0.000 C 
ATOM     30  O   UNL     1      -5.871  13.072  17.190  0.00  0.00    +0.000 OA
ATOM     31  C   UNL     1      -6.741  13.449  18.164  0.00  0.00    +0.000 C 
ATOM     32  O   UNL     1      -7.048  14.605  18.396  0.00  0.00    +0.000 OA
ATOM     33  N   UNL     1      -7.213  12.371  18.808  0.00  0.00    +0.000 N 
ATOM     34  C   UNL     1      -6.670  11.240  18.315  0.00  0.00    +0.000 C 
ATOM     35  O   UNL     1      -6.930  10.113  18.700  0.00  0.00    +0.000 OA
ATOM     36  H   UNL     1      -7.880  12.414  19.560  0.00  0.00    +0.000 HD
ENDBRANCH  27  29
ENDBRANCH  22  23
ENDBRANCH  21  22
ENDBRANCH  20  21
ENDBRANCH  19  20
ENDBRANCH   1  19
TORSDOF 11
ENDMDL
MODEL 9
REMARK VINA RESULT:      -8.0      2.122      2.621
REMARK  Name = 
REMARK  12 active torsions:
REMARK  status: ('A' for Active; 'I' for Inactive)
REMARK    1  A    between atoms: C_1  and  C_2
REMARK    2  A    between atoms: C_2  and  C_3
REMARK    3  A    between atoms: C_3  and  C_4
REMARK    4  A    between atoms: C_6  and  C_7
REMARK    5  A    between atoms: C_10  and  O_11
REMARK    6  A    between atoms: C_16  and  O_17
REMARK    7  A    between atoms: O_17  and  C_18
REMARK    8  A    between atoms: C_18  and  C_19
REMARK    9  A    between atoms: C_19  and  C_20
REMARK   10  A    between atoms: C_20  and  O_21
REMARK   11  A    between atoms: O_21  and  C_22
REMARK   12  A    between atoms: C_26  and  C_27
REMARK                            x       y       z     vdW  Elec       q    Type
REMARK                         _______ _______ _______ _____ _____    ______ ____
ROOT
ATOM      1  O   UNL     1       1.767  10.045  17.657  0.00  0.00    +0.000 OA
ENDROOT
BRANCH   1   7
ATOM      2  C   UNL     1      -0.615  10.411  18.291  0.00  0.00    +0.000 A 
ATOM      3  C   UNL     1      -1.453  10.989  19.276  0.00  0.00    +0.000 A 
ATOM      4  C   UNL     1      -0.965  11.695  20.383  0.00  0.00    +0.000 A 
ATOM      5  C   UNL     1       0.417  11.787  20.535  0.00  0.00    +0.000 A 
ATOM      6  C   UNL     1       1.267  11.204  19.587  0.00  0.00    +0.000 A 
ATOM      7  C   UNL     1       0.772  10.546  18.450  0.00  0.00    +0.000 A 
BRANCH   4   8
ATOM      8  C   UNL     1      -1.950  12.378  21.318  0.00  0.00    +0.000 C 
ATOM      9  C   UNL     1      -1.369  12.665  22.713  0.00  0.00    +0.000 C 
ATOM     10  C   UNL     1      -2.378  13.390  23.606  0.00  0.00    +0.000 C 
ATOM     11  C   UNL     1      -2.897  14.662  22.939  0.00  0.00    +0.000 C 
ATOM     12  C   UNL     1      -3.530  14.348  21.586  0.00  0.00    +0.000 C 
ATOM     13  C   UNL     1      -2.538  13.643  20.666  0.00  0.00    +0.000 C 
BRANCH  11  14
ATOM     14  O   UNL     1      -3.851  15.298  23.783  0.00  0.00    +0.000 OA
ATOM     15  H   UNL     1      -3.439  16.090  24.167  0.00  0.00    +0.000 HD
ENDBRANCH  11  14
ENDBRANCH   4   8
BRANCH   2  16
ATOM     16  C   UNL     1      -1.338   9.745  17.141  0.00  0.00    +0.000 C 
BRANCH  16  18
ATOM     17  C   UNL     1      -3.243  10.091  15.497  0.00  0.00    +0.000 C 
ATOM     18  C   UNL     1      -2.824  10.079  16.954  0.00  0.00    +0.000 C 
ENDBRANCH  16  18
ENDBRANCH   2  16
ENDBRANCH   1   7
BRANCH   1  19
ATOM     19  C   UNL     1       2.358   8.780  17.932  0.00  0.00    +0.000 C 
BRANCH  19  20
ATOM     20  C   UNL     1       1.446   7.848  18.700  0.00  0.00    +0.000 C 
BRANCH  20  21
ATOM     21  C   UNL     1       2.190   7.275  19.884  0.00  0.00    +0.000 C 
BRANCH  21  22
ATOM     22  O   UNL     1       2.025   5.862  19.870  0.00  0.00    +0.000 OA
BRANCH  22  23
ATOM     23  C   UNL     1       2.748   5.200  18.916  0.00  0.00    +0.000 A 
ATOM     24  C   UNL     1       2.017   4.290  18.161  0.00  0.00    +0.000 A 
ATOM     25  C   UNL     1       2.647   3.538  17.172  0.00  0.00    +0.000 A 
ATOM     26  C   UNL     1       4.015   3.696  16.939  0.00  0.00    +0.000 A 
ATOM     27  C   UNL     1       4.771   4.615  17.683  0.00  0.00    +0.000 A 
ATOM     28  C   UNL     1       4.115   5.364  18.673  0.00  0.00    +0.000 A 
BRANCH  27  29
ATOM     29  C   UNL     1       6.260   4.746  17.450  0.00  0.00    +0.000 C 
ATOM     30  O   UNL     1       7.035   4.334  18.593  0.00  0.00    +0.000 OA
ATOM     31  C   UNL     1       7.827   5.365  18.995  0.00  0.00    +0.000 C 
ATOM     32  O   UNL     1       8.585   5.312  19.947  0.00  0.00    +0.000 OA
ATOM     33  N   UNL     1       7.658   6.422  18.187  0.00  0.00    +0.000 N 
ATOM     34  C   UNL     1       6.742   6.160  17.235  0.00  0.00    +0.000 C 
ATOM     35  O   UNL     1       6.403   6.934  16.356  0.00  0.00    +0.000 OA
ATOM     36  H   UNL     1       8.152   7.292  18.292  0.00  0.00    +0.000 HD
ENDBRANCH  27  29
ENDBRANCH  22  23
ENDBRANCH  21  22
ENDBRANCH  20  21
ENDBRANCH  19  20
ENDBRANCH   1  19
TORSDOF 11
ENDMDL
