MODEL 1
REMARK VINA RESULT:      -5.8      0.000      0.000
REMARK  Name = 
REMARK  7 active torsions:
REMARK  status: ('A' for Active; 'I' for Inactive)
REMARK    1  A    between atoms: C_1  and  O_2
REMARK    2  A    between atoms: O_2  and  C_3
REMARK    3  A    between atoms: C_4  and  C_5
REMARK    4  A    between atoms: C_10  and  C_11
REMARK    5  A    between atoms: C_11  and  O_12
REMARK    6  A    between atoms: C_13  and  C_14
REMARK    7  A    between atoms: N_15  and  C_16
REMARK                            x       y       z     vdW  Elec       q    Type
REMARK                         _______ _______ _______ _____ _____    ______ ____
ROOT
ATOM      1  C   UNL     1       2.908   7.350  18.607  0.00  0.00    +0.000 C 
ATOM      2  C   UNL     1       2.192   6.995  19.701  0.00  0.00    +0.000 C 
ATOM      3  C   UNL     1       1.488   7.973  20.598  0.00  0.00    +0.000 C 
ATOM      4  C   UNL     1       2.039   5.556  20.118  0.00  0.00    +0.000 C 
ATOM      5  O   UNL     1       1.363   5.256  21.096  0.00  0.00    +0.000 OA
ATOM      6  C   UNL     1       2.724   4.600  19.289  0.00  0.00    +0.000 A 
ATOM      7  C   UNL     1       3.465   4.948  18.184  0.00  0.00    +0.000 A 
ATOM      8  C   UNL     1       4.000   3.755  17.609  0.00  0.00    +0.000 A 
ATOM      9  C   UNL     1       3.568   2.703  18.413  0.00  0.00    +0.000 A 
ATOM     10  C   UNL     1       3.852   1.243  18.298  0.00  0.00    +0.000 C 
ATOM     11  N   UNL     1       2.789   3.233  19.427  0.00  0.00    +0.000 N 
ATOM     12  C   UNL     1       2.139   2.490  20.490  0.00  0.00    +0.000 C 
ATOM     13  C   UNL     1       3.639   6.322  17.758  0.00  0.00    +0.000 C 
ATOM     14  O   UNL     1       4.348   6.607  16.800  0.00  0.00    +0.000 OA
ENDROOT
BRANCH   1  16
ATOM     15  C   UNL     1       1.882   9.297  17.641  0.00  0.00    +0.000 C 
ATOM     16  O   UNL     1       3.001   8.711  18.303  0.00  0.00    +0.000 OA
ENDBRANCH   1  16
BRANCH   8  17
ATOM     17  C   UNL     1       4.854   3.701  16.379  0.00  0.00    +0.000 C 
BRANCH  17  18
ATOM     18  O   UNL     1       6.216   4.004  16.667  0.00  0.00    +0.000 OA
ATOM     19  H   UNL     1       6.241   4.973  16.806  0.00  0.00    +0.000 HD
ENDBRANCH  17  18
ENDBRANCH   8  17
TORSDOF 3
ENDMDL
MODEL 2
REMARK VINA RESULT:      -5.8      1.690      4.456
REMARK  Name = 
REMARK  7 active torsions:
REMARK  status: ('A' for Active; 'I' for Inactive)
REMARK    1  A    between atoms: C_1  and  O_2
REMARK    2  A    between atoms: O_2  and  C_3
REMARK    3  A    between atoms: C_4  and  C_5
REMARK    4  A    between atoms: C_10  and  C_11
REMARK    5  A    between atoms: C_11  and  O_12
REMARK    6  A    between atoms: C_13  and  C_14
REMARK    7  A    between atoms: N_15  and  C_16
REMARK                            x       y       z     vdW  Elec       q    Type
REMARK                         _______ _______ _______ _____ _____    ______ ____
ROOT
ATOM      1  C   UNL     1       3.799   3.433  19.349  0.00  0.00    +0.000 C 
ATOM      2  C   UNL     1       2.926   3.767  20.330  0.00  0.00    +0.000 C 
ATOM      3  C   UNL     1       2.469   2.821  21.404  0.00  0.00    +0.000 C 
ATOM      4  C   UNL     1       2.328   5.145  20.427  0.00  0.00    +0.000 C 
ATOM      5  O   UNL     1       1.562   5.432  21.341  0.00  0.00    +0.000 OA
ATOM      6  C   UNL     1       2.731   6.064  19.395  0.00  0.00    +0.000 A 
ATOM      7  C   UNL     1       3.605   5.734  18.387  0.00  0.00    +0.000 A 
ATOM      8  C   UNL     1       3.774   6.878  17.548  0.00  0.00    +0.000 A 
ATOM      9  C   UNL     1       2.965   7.879  18.081  0.00  0.00    +0.000 A 
ATOM     10  C   UNL     1       2.731   9.269  17.593  0.00  0.00    +0.000 C 
ATOM     11  N   UNL     1       2.342   7.370  19.207  0.00  0.00    +0.000 N 
ATOM     12  C   UNL     1       1.411   8.074  20.068  0.00  0.00    +0.000 C 
ATOM     13  C   UNL     1       4.193   4.416  18.258  0.00  0.00    +0.000 C 
ATOM     14  O   UNL     1       4.928   4.135  17.318  0.00  0.00    +0.000 OA
ENDROOT
BRANCH   1  16
ATOM     15  C   UNL     1       3.668   1.214  18.435  0.00  0.00    +0.000 C 
ATOM     16  O   UNL     1       4.294   2.127  19.334  0.00  0.00    +0.000 OA
ENDBRANCH   1  16
BRANCH   8  17
ATOM     17  C   UNL     1       4.660   6.937  16.341  0.00  0.00    +0.000 C 
BRANCH  17  18
ATOM     18  O   UNL     1       6.039   6.948  16.697  0.00  0.00    +0.000 OA
ATOM     19  H   UNL     1       6.336   7.869  16.548  0.00  0.00    +0.000 HD
ENDBRANCH  17  18
ENDBRANCH   8  17
TORSDOF 3
ENDMDL
MODEL 3
REMARK VINA RESULT:      -5.6      1.663      4.332
REMARK  Name = 
REMARK  7 active torsions:
REMARK  status: ('A' for Active; 'I' for Inactive)
REMARK    1  A    between atoms: C_1  and  O_2
REMARK    2  A    between atoms: O_2  and  C_3
REMARK    3  A    between atoms: C_4  and  C_5
REMARK    4  A    between atoms: C_10  and  C_11
REMARK    5  A    between atoms: C_11  and  O_12
REMARK    6  A    between atoms: C_13  and  C_14
REMARK    7  A    between atoms: N_15  and  C_16
REMARK                            x       y       z     vdW  Elec       q    Type
REMARK                         _______ _______ _______ _____ _____    ______ ____
ROOT
ATOM      1  C   UNL     1       5.420   6.095  16.816  0.00  0.00    +0.000 C 
ATOM      2  C   UNL     1       5.557   4.783  16.508  0.00  0.00    +0.000 C 
ATOM      3  C   UNL     1       6.599   4.245  15.568  0.00  0.00    +0.000 C 
ATOM      4  C   UNL     1       4.655   3.729  17.095  0.00  0.00    +0.000 C 
ATOM      5  O   UNL     1       4.817   2.545  16.824  0.00  0.00    +0.000 OA
ATOM      6  C   UNL     1       3.632   4.221  17.979  0.00  0.00    +0.000 A 
ATOM      7  C   UNL     1       3.473   5.551  18.290  0.00  0.00    +0.000 A 
ATOM      8  C   UNL     1       2.367   5.673  19.186  0.00  0.00    +0.000 A 
ATOM      9  C   UNL     1       1.873   4.385  19.380  0.00  0.00    +0.000 A 
ATOM     10  C   UNL     1       0.710   3.928  20.194  0.00  0.00    +0.000 C 
ATOM     11  N   UNL     1       2.656   3.513  18.643  0.00  0.00    +0.000 N 
ATOM     12  C   UNL     1       2.493   2.075  18.556  0.00  0.00    +0.000 C 
ATOM     13  C   UNL     1       4.317   6.591  17.738  0.00  0.00    +0.000 C 
ATOM     14  O   UNL     1       4.119   7.773  17.991  0.00  0.00    +0.000 OA
ENDROOT
BRANCH   1  16
ATOM     15  C   UNL     1       7.384   7.464  17.012  0.00  0.00    +0.000 C 
ATOM     16  O   UNL     1       6.297   7.000  16.215  0.00  0.00    +0.000 OA
ENDBRANCH   1  16
BRANCH   8  17
ATOM     17  C   UNL     1       1.875   6.960  19.774  0.00  0.00    +0.000 C 
BRANCH  17  18
ATOM     18  O   UNL     1       1.931   6.948  21.198  0.00  0.00    +0.000 OA
ATOM     19  H   UNL     1       2.008   6.003  21.444  0.00  0.00    +0.000 HD
ENDBRANCH  17  18
ENDBRANCH   8  17
TORSDOF 3
ENDMDL
MODEL 4
REMARK VINA RESULT:      -5.6      1.731      3.752
REMARK  Name = 
REMARK  7 active torsions:
REMARK  status: ('A' for Active; 'I' for Inactive)
REMARK    1  A    between atoms: C_1  and  O_2
REMARK    2  A    between atoms: O_2  and  C_3
REMARK    3  A    between atoms: C_4  and  C_5
REMARK    4  A    between atoms: C_10  and  C_11
REMARK    5  A    between atoms: C_11  and  O_12
REMARK    6  A    between atoms: C_13  and  C_14
REMARK    7  A    between atoms: N_15  and  C_16
REMARK                            x       y       z     vdW  Elec       q    Type
REMARK                         _______ _______ _______ _____ _____    ______ ____
ROOT
ATOM      1  C   UNL     1       4.801   4.956  16.454  0.00  0.00    +0.000 C 
ATOM      2  C   UNL     1       4.402   6.134  16.990  0.00  0.00    +0.000 C 
ATOM      3  C   UNL     1       4.800   7.480  16.452  0.00  0.00    +0.000 C 
ATOM      4  C   UNL     1       3.505   6.195  18.198  0.00  0.00    +0.000 C 
ATOM      5  O   UNL     1       3.134   7.273  18.648  0.00  0.00    +0.000 OA
ATOM      6  C   UNL     1       3.128   4.920  18.748  0.00  0.00    +0.000 A 
ATOM      7  C   UNL     1       3.537   3.718  18.222  0.00  0.00    +0.000 A 
ATOM      8  C   UNL     1       2.980   2.669  19.016  0.00  0.00    +0.000 A 
ATOM      9  C   UNL     1       2.250   3.287  20.028  0.00  0.00    +0.000 A 
ATOM     10  C   UNL     1       1.487   2.676  21.155  0.00  0.00    +0.000 C 
ATOM     11  N   UNL     1       2.346   4.655  19.848  0.00  0.00    +0.000 N 
ATOM     12  C   UNL     1       1.737   5.677  20.678  0.00  0.00    +0.000 C 
ATOM     13  C   UNL     1       4.405   3.622  17.066  0.00  0.00    +0.000 C 
ATOM     14  O   UNL     1       4.796   2.537  16.651  0.00  0.00    +0.000 OA
ENDROOT
BRANCH   1  16
ATOM     15  C   UNL     1       7.026   4.760  15.570  0.00  0.00    +0.000 C 
ATOM     16  O   UNL     1       5.640   4.999  15.338  0.00  0.00    +0.000 OA
ENDBRANCH   1  16
BRANCH   8  17
ATOM     17  C   UNL     1       3.176   1.204  18.766  0.00  0.00    +0.000 C 
BRANCH  17  18
ATOM     18  O   UNL     1       4.532   0.810  18.958  0.00  0.00    +0.000 OA
ATOM     19  H   UNL     1       4.547   0.357  19.826  0.00  0.00    +0.000 HD
ENDBRANCH  17  18
ENDBRANCH   8  17
TORSDOF 3
ENDMDL
MODEL 5
REMARK VINA RESULT:      -5.5      1.304      3.591
REMARK  Name = 
REMARK  7 active torsions:
REMARK  status: ('A' for Active; 'I' for Inactive)
REMARK    1  A    between atoms: C_1  and  O_2
REMARK    2  A    between atoms: O_2  and  C_3
REMARK    3  A    between atoms: C_4  and  C_5
REMARK    4  A    between atoms: C_10  and  C_11
REMARK    5  A    between atoms: C_11  and  O_12
REMARK    6  A    between atoms: C_13  and  C_14
REMARK    7  A    between atoms: N_15  and  C_16
REMARK                            x       y       z     vdW  Elec       q    Type
REMARK                         _______ _______ _______ _____ _____    ______ ____
ROOT
ATOM      1  C   UNL     1       1.952   7.468  19.575  0.00  0.00    +0.000 C 
ATOM      2  C   UNL     1       2.682   7.652  18.449  0.00  0.00    +0.000 C 
ATOM      3  C   UNL     1       2.749   8.951  17.696  0.00  0.00    +0.000 C 
ATOM      4  C   UNL     1       3.505   6.547  17.844  0.00  0.00    +0.000 C 
ATOM      5  O   UNL     1       4.180   6.746  16.841  0.00  0.00    +0.000 OA
ATOM      6  C   UNL     1       3.438   5.284  18.533  0.00  0.00    +0.000 A 
ATOM      7  C   UNL     1       2.692   5.080  19.669  0.00  0.00    +0.000 A 
ATOM      8  C   UNL     1       2.858   3.720  20.075  0.00  0.00    +0.000 A 
ATOM      9  C   UNL     1       3.707   3.131  19.141  0.00  0.00    +0.000 A 
ATOM     10  C   UNL     1       4.194   1.724  19.057  0.00  0.00    +0.000 C 
ATOM     11  N   UNL     1       4.055   4.097  18.213  0.00  0.00    +0.000 N 
ATOM     12  C   UNL     1       4.923   3.914  17.066  0.00  0.00    +0.000 C 
ATOM     13  C   UNL     1       1.882   6.118  20.273  0.00  0.00    +0.000 C 
ATOM     14  O   UNL     1       1.185   5.892  21.255  0.00  0.00    +0.000 OA
ENDROOT
BRANCH   1  16
ATOM     15  C   UNL     1       1.466   8.950  21.402  0.00  0.00    +0.000 C 
ATOM     16  O   UNL     1       1.212   8.550  20.058  0.00  0.00    +0.000 OA
ENDBRANCH   1  16
BRANCH   8  17
ATOM     17  C   UNL     1       2.220   3.099  21.280  0.00  0.00    +0.000 C 
BRANCH  17  18
ATOM     18  O   UNL     1       0.822   2.896  21.094  0.00  0.00    +0.000 OA
ATOM     19  H   UNL     1       0.663   3.057  20.141  0.00  0.00    +0.000 HD
ENDBRANCH  17  18
ENDBRANCH   8  17
TORSDOF 3
ENDMDL
MODEL 6
REMARK VINA RESULT:      -5.4      2.020      3.453
REMARK  Name = 
REMARK  7 active torsions:
REMARK  status: ('A' for Active; 'I' for Inactive)
REMARK    1  A    between atoms: C_1  and  O_2
REMARK    2  A    between atoms: O_2  and  C_3
REMARK    3  A    between atoms: C_4  and  C_5
REMARK    4  A    between atoms: C_10  and  C_11
REMARK    5  A    between atoms: C_11  and  O_12
REMARK    6  A    between atoms: C_13  and  C_14
REMARK    7  A    between atoms: N_15  and  C_16
REMARK                            x       y       z     vdW  Elec       q    Type
REMARK                         _______ _______ _______ _____ _____    ______ ____
ROOT
ATOM      1  C   UNL     1       5.254   5.716  17.702  0.00  0.00    +0.000 C 
ATOM      2  C   UNL     1       4.197   6.563  17.725  0.00  0.00    +0.000 C 
ATOM      3  C   UNL     1       4.139   7.854  16.959  0.00  0.00    +0.000 C 
ATOM      4  C   UNL     1       2.964   6.274  18.539  0.00  0.00    +0.000 C 
ATOM      5  O   UNL     1       2.009   7.042  18.522  0.00  0.00    +0.000 OA
ATOM      6  C   UNL     1       3.004   5.055  19.303  0.00  0.00    +0.000 A 
ATOM      7  C   UNL     1       4.075   4.194  19.299  0.00  0.00    +0.000 A 
ATOM      8  C   UNL     1       3.772   3.098  20.164  0.00  0.00    +0.000 A 
ATOM      9  C   UNL     1       2.505   3.347  20.687  0.00  0.00    +0.000 A 
ATOM     10  C   UNL     1       1.709   2.551  21.664  0.00  0.00    +0.000 C 
ATOM     11  N   UNL     1       2.050   4.539  20.149  0.00  0.00    +0.000 N 
ATOM     12  C   UNL     1       0.776   5.175  20.423  0.00  0.00    +0.000 C 
ATOM     13  C   UNL     1       5.280   4.443  18.534  0.00  0.00    +0.000 C 
ATOM     14  O   UNL     1       6.240   3.684  18.591  0.00  0.00    +0.000 OA
ENDROOT
BRANCH   1  16
ATOM     15  C   UNL     1       7.440   6.708  17.601  0.00  0.00    +0.000 C 
ATOM     16  O   UNL     1       6.358   6.073  16.924  0.00  0.00    +0.000 OA
ENDBRANCH   1  16
BRANCH   8  17
ATOM     17  C   UNL     1       4.677   1.932  20.425  0.00  0.00    +0.000 C 
BRANCH  17  18
ATOM     18  O   UNL     1       4.725   1.040  19.316  0.00  0.00    +0.000 OA
ATOM     19  H   UNL     1       4.302   1.525  18.577  0.00  0.00    +0.000 HD
ENDBRANCH  17  18
ENDBRANCH   8  17
TORSDOF 3
ENDMDL
MODEL 7
REMARK VINA RESULT:      -5.4      1.938      4.554
REMARK  Name = 
REMARK  7 active torsions:
REMARK  status: ('A' for Active; 'I' for Inactive)
REMARK    1  A    between atoms: C_1  and  O_2
REMARK    2  A    between atoms: O_2  and  C_3
REMARK    3  A    between atoms: C_4  and  C_5
REMARK    4  A    between atoms: C_10  and  C_11
REMARK    5  A    between atoms: C_11  and  O_12
REMARK    6  A    between atoms: C_13  and  C_14
REMARK    7  A    between atoms: N_15  and  C_16
REMARK                            x       y       z     vdW  Elec       q    Type
REMARK                         _______ _______ _______ _____ _____    ______ ____
ROOT
ATOM      1  C   UNL     1       5.362   4.417  16.390  0.00  0.00    +0.000 C 
ATOM      2  C   UNL     1       5.359   5.750  16.633  0.00  0.00    +0.000 C 
ATOM      3  C   UNL     1       6.303   6.724  15.985  0.00  0.00    +0.000 C 
ATOM      4  C   UNL     1       4.387   6.381  17.594  0.00  0.00    +0.000 C 
ATOM      5  O   UNL     1       4.385   7.593  17.777  0.00  0.00    +0.000 OA
ATOM      6  C   UNL     1       3.488   5.467  18.247  0.00  0.00    +0.000 A 
ATOM      7  C   UNL     1       3.489   4.111  18.020  0.00  0.00    +0.000 A 
ATOM      8  C   UNL     1       2.474   3.519  18.833  0.00  0.00    +0.000 A 
ATOM      9  C   UNL     1       1.891   4.559  19.552  0.00  0.00    +0.000 A 
ATOM     10  C   UNL     1       0.803   4.513  20.572  0.00  0.00    +0.000 C 
ATOM     11  N   UNL     1       2.515   5.737  19.181  0.00  0.00    +0.000 N 
ATOM     12  C   UNL     1       2.219   7.064  19.687  0.00  0.00    +0.000 C 
ATOM     13  C   UNL     1       4.414   3.469  17.108  0.00  0.00    +0.000 C 
ATOM     14  O   UNL     1       4.428   2.252  16.965  0.00  0.00    +0.000 OA
ENDROOT
BRANCH   1  16
ATOM     15  C   UNL     1       5.913   3.855  14.120  0.00  0.00    +0.000 C 
ATOM     16  O   UNL     1       6.307   3.921  15.488  0.00  0.00    +0.000 OA
ENDBRANCH   1  16
BRANCH   8  17
ATOM     17  C   UNL     1       2.143   2.058  18.867  0.00  0.00    +0.000 C 
BRANCH  17  18
ATOM     18  O   UNL     1       0.853   1.795  18.324  0.00  0.00    +0.000 OA
ATOM     19  H   UNL     1       0.443   1.149  18.935  0.00  0.00    +0.000 HD
ENDBRANCH  17  18
ENDBRANCH   8  17
TORSDOF 3
ENDMDL
MODEL 8
REMARK VINA RESULT:      -5.3      3.236      7.171
REMARK  Name = 
REMARK  7 active torsions:
REMARK  status: ('A' for Active; 'I' for Inactive)
REMARK    1  A    between atoms: C_1  and  O_2
REMARK    2  A    between atoms: O_2  and  C_3
REMARK    3  A    between atoms: C_4  and  C_5
REMARK    4  A    between atoms: C_10  and  C_11
REMARK    5  A    between atoms: C_11  and  O_12
REMARK    6  A    between atoms: C_13  and  C_14
REMARK    7  A    between atoms: N_15  and  C_16
REMARK                            x       y       z     vdW  Elec       q    Type
REMARK                         _______ _______ _______ _____ _____    ______ ____
ROOT
ATOM      1  C   UNL     1       2.220   7.378  19.590  0.00  0.00    +0.000 C 
ATOM      2  C   UNL     1       2.445   8.123  18.482  0.00  0.00    +0.000 C 
ATOM      3  C   UNL     1       3.310   7.682  17.335  0.00  0.00    +0.000 C 
ATOM      4  C   UNL     1       1.833   9.488  18.303  0.00  0.00    +0.000 C 
ATOM      5  O   UNL     1       2.029  10.132  17.279  0.00  0.00    +0.000 OA
ATOM      6  C   UNL     1       1.020   9.945  19.399  0.00  0.00    +0.000 A 
ATOM      7  C   UNL     1       0.794   9.204  20.535  0.00  0.00    +0.000 A 
ATOM      8  C   UNL     1      -0.049   9.962  21.403  0.00  0.00    +0.000 A 
ATOM      9  C   UNL     1      -0.298  11.170  20.756  0.00  0.00    +0.000 A 
ATOM     10  C   UNL     1      -1.091  12.346  21.215  0.00  0.00    +0.000 C 
ATOM     11  N   UNL     1       0.355  11.141  19.536  0.00  0.00    +0.000 N 
ATOM     12  C   UNL     1       0.365  12.196  18.540  0.00  0.00    +0.000 C 
ATOM     13  C   UNL     1       1.372   7.892  20.744  0.00  0.00    +0.000 C 
ATOM     14  O   UNL     1       1.196   7.277  21.789  0.00  0.00    +0.000 OA
ENDROOT
BRANCH   1  16
ATOM     15  C   UNL     1       2.018   4.991  19.409  0.00  0.00    +0.000 C 
ATOM     16  O   UNL     1       2.838   6.127  19.671  0.00  0.00    +0.000 OA
ENDBRANCH   1  16
BRANCH   8  17
ATOM     17  C   UNL     1      -0.542   9.501  22.742  0.00  0.00    +0.000 C 
BRANCH  17  18
ATOM     18  O   UNL     1       0.458   9.632  23.748  0.00  0.00    +0.000 OA
ATOM     19  H   UNL     1       1.302   9.414  23.302  0.00  0.00    +0.000 HD
ENDBRANCH  17  18
ENDBRANCH   8  17
TORSDOF 3
ENDMDL
MODEL 9
REMARK VINA RESULT:      -5.2      1.816      3.612
REMARK  Name = 
REMARK  7 active torsions:
REMARK  status: ('A' for Active; 'I' for Inactive)
REMARK    1  A    between atoms: C_1  and  O_2
REMARK    2  A    between atoms: O_2  and  C_3
REMARK    3  A    between atoms: C_4  and  C_5
REMARK    4  A    between atoms: C_10  and  C_11
REMARK    5  A    between atoms: C_11  and  O_12
REMARK    6  A    between atoms: C_13  and  C_14
REMARK    7  A    between atoms: N_15  and  C_16
REMARK                            x       y       z     vdW  Elec       q    Type
REMARK                         _______ _______ _______ _____ _____    ______ ____
ROOT
ATOM      1  C   UNL     1       1.674   7.489  20.067  0.00  0.00    +0.000 C 
ATOM      2  C   UNL     1       1.908   8.360  19.056  0.00  0.00    +0.000 C 
ATOM      3  C   UNL     1       1.283   9.723  18.960  0.00  0.00    +0.000 C 
ATOM      4  C   UNL     1       2.836   8.026  17.918  0.00  0.00    +0.000 C 
ATOM      5  O   UNL     1       3.054   8.841  17.029  0.00  0.00    +0.000 OA
ATOM      6  C   UNL     1       3.429   6.716  17.973  0.00  0.00    +0.000 A 
ATOM      7  C   UNL     1       3.189   5.818  18.986  0.00  0.00    +0.000 A 
ATOM      8  C   UNL     1       3.936   4.630  18.717  0.00  0.00    +0.000 A 
ATOM      9  C   UNL     1       4.604   4.848  17.515  0.00  0.00    +0.000 A 
ATOM     10  C   UNL     1       5.500   3.935  16.748  0.00  0.00    +0.000 C 
ATOM     11  N   UNL     1       4.290   6.124  17.078  0.00  0.00    +0.000 N 
ATOM     12  C   UNL     1       4.767   6.760  15.866  0.00  0.00    +0.000 C 
ATOM     13  C   UNL     1       2.298   6.102  20.092  0.00  0.00    +0.000 C 
ATOM     14  O   UNL     1       2.062   5.263  20.953  0.00  0.00    +0.000 OA
ENDROOT
BRANCH   1  16
ATOM     15  C   UNL     1       1.303   8.776  22.062  0.00  0.00    +0.000 C 
ATOM     16  O   UNL     1       0.791   7.883  21.075  0.00  0.00    +0.000 OA
ENDBRANCH   1  16
BRANCH   8  17
ATOM     17  C   UNL     1       3.959   3.413  19.591  0.00  0.00    +0.000 C 
BRANCH  17  18
ATOM     18  O   UNL     1       5.268   2.860  19.695  0.00  0.00    +0.000 OA
ATOM     19  H   UNL     1       5.364   2.276  18.915  0.00  0.00    +0.000 HD
ENDBRANCH  17  18
ENDBRANCH   8  17
TORSDOF 3
ENDMDL
