MODEL 1
REMARK VINA RESULT:      -7.1      0.000      0.000
REMARK  Name = 
REMARK  5 active torsions:
REMARK  status: ('A' for Active; 'I' for Inactive)
REMARK    1  A    between atoms: C_1  and  O_2
REMARK    2  A    between atoms: O_2  and  C_3
REMARK    3  A    between atoms: C_5  and  C_6
REMARK    4  A    between atoms: C_15  and  C_16
REMARK    5  A    between atoms: C_16  and  O_18
REMARK                            x       y       z     vdW  Elec       q    Type
REMARK                         _______ _______ _______ _____ _____    ______ ____
ROOT
ATOM      1  C   UNL     1       6.321   5.834  16.464  0.00  0.00    +0.000 A 
ATOM      2  C   UNL     1       5.409   5.807  17.532  0.00  0.00    +0.000 A 
ATOM      3  C   UNL     1       4.317   4.925  17.547  0.00  0.00    +0.000 A 
ATOM      4  C   UNL     1       4.074   4.151  16.410  0.00  0.00    +0.000 A 
ATOM      5  C   UNL     1       4.950   4.195  15.324  0.00  0.00    +0.000 A 
ATOM      6  C   UNL     1       6.099   5.003  15.353  0.00  0.00    +0.000 A 
ENDROOT
BRANCH   3   7
ATOM      7  C   UNL     1       3.458   4.787  18.729  0.00  0.00    +0.000 A 
ATOM      8  C   UNL     1       3.359   3.618  19.571  0.00  0.00    +0.000 A 
ATOM      9  C   UNL     1       2.525   3.824  20.641  0.00  0.00    +0.000 A 
ATOM     10 CL   UNL     1       2.164   2.704  21.890  0.00  0.00    +0.000 Cl
ATOM     11  S   UNL     1       1.838   5.363  20.670  0.00  0.00    +0.000 S 
ATOM     12  C   UNL     1       2.687   5.806  19.263  0.00  0.00    +0.000 A 
ATOM     13 CL   UNL     1       2.502   7.443  18.743  0.00  0.00    +0.000 Cl
ENDBRANCH   3   7
BRANCH   1  15
ATOM     14  C   UNL     1       7.609   7.555  17.514  0.00  0.00    +0.000 C 
ATOM     15  O   UNL     1       7.461   6.602  16.462  0.00  0.00    +0.000 OA
ENDBRANCH   1  15
BRANCH   6  16
ATOM     16  C   UNL     1       7.018   4.893  14.177  0.00  0.00    +0.000 C 
ATOM     17  O   UNL     1       6.801   4.127  13.252  0.00  0.00    +0.000 OA
BRANCH  16  18
ATOM     18  O   UNL     1       8.133   5.653  14.226  0.00  0.00    +0.000 OA
ATOM     19  H   UNL     1       8.224   6.139  15.072  0.00  0.00    +0.000 HD
ENDBRANCH  16  18
ENDBRANCH   6  16
TORSDOF 4
ENDMDL
MODEL 2
REMARK VINA RESULT:      -6.8      3.496      4.817
REMARK  Name = 
REMARK  5 active torsions:
REMARK  status: ('A' for Active; 'I' for Inactive)
REMARK    1  A    between atoms: C_1  and  O_2
REMARK    2  A    between atoms: O_2  and  C_3
REMARK    3  A    between atoms: C_5  and  C_6
REMARK    4  A    between atoms: C_15  and  C_16
REMARK    5  A    between atoms: C_16  and  O_18
REMARK                            x       y       z     vdW  Elec       q    Type
REMARK                         _______ _______ _______ _____ _____    ______ ____
ROOT
ATOM      1  C   UNL     1       4.419   4.524  19.344  0.00  0.00    +0.000 A 
ATOM      2  C   UNL     1       3.813   5.781  19.492  0.00  0.00    +0.000 A 
ATOM      3  C   UNL     1       2.436   5.911  19.733  0.00  0.00    +0.000 A 
ATOM      4  C   UNL     1       1.644   4.761  19.697  0.00  0.00    +0.000 A 
ATOM      5  C   UNL     1       2.227   3.507  19.513  0.00  0.00    +0.000 A 
ATOM      6  C   UNL     1       3.619   3.369  19.374  0.00  0.00    +0.000 A 
ENDROOT
BRANCH   3   7
ATOM      7  C   UNL     1       1.830   7.213  20.043  0.00  0.00    +0.000 A 
ATOM      8  C   UNL     1       1.265   7.601  21.313  0.00  0.00    +0.000 A 
ATOM      9  C   UNL     1       0.845   8.907  21.312  0.00  0.00    +0.000 A 
ATOM     10 CL   UNL     1       0.150   9.764  22.627  0.00  0.00    +0.000 Cl
ATOM     11  S   UNL     1       1.084   9.687  19.836  0.00  0.00    +0.000 S 
ATOM     12  C   UNL     1       1.806   8.294  19.178  0.00  0.00    +0.000 A 
ATOM     13 CL   UNL     1       2.430   8.442  17.573  0.00  0.00    +0.000 Cl
ENDBRANCH   3   7
BRANCH   1  15
ATOM     14  C   UNL     1       6.376   4.746  17.985  0.00  0.00    +0.000 C 
ATOM     15  O   UNL     1       5.776   4.349  19.218  0.00  0.00    +0.000 OA
ENDBRANCH   1  15
BRANCH   6  16
ATOM     16  C   UNL     1       4.142   1.969  19.284  0.00  0.00    +0.000 C 
ATOM     17  O   UNL     1       3.661   1.144  18.525  0.00  0.00    +0.000 OA
BRANCH  16  18
ATOM     18  O   UNL     1       5.143   1.657  20.135  0.00  0.00    +0.000 OA
ATOM     19  H   UNL     1       4.879   1.732  21.075  0.00  0.00    +0.000 HD
ENDBRANCH  16  18
ENDBRANCH   6  16
TORSDOF 4
ENDMDL
MODEL 3
REMARK VINA RESULT:      -6.8      1.123      1.952
REMARK  Name = 
REMARK  5 active torsions:
REMARK  status: ('A' for Active; 'I' for Inactive)
REMARK    1  A    between atoms: C_1  and  O_2
REMARK    2  A    between atoms: O_2  and  C_3
REMARK    3  A    between atoms: C_5  and  C_6
REMARK    4  A    between atoms: C_15  and  C_16
REMARK    5  A    between atoms: C_16  and  O_18
REMARK                            x       y       z     vdW  Elec       q    Type
REMARK                         _______ _______ _______ _____ _____    ______ ____
ROOT
ATOM      1  C   UNL     1       6.330   6.008  16.599  0.00  0.00    +0.000 A 
ATOM      2  C   UNL     1       5.423   6.153  17.662  0.00  0.00    +0.000 A 
ATOM      3  C   UNL     1       4.286   5.338  17.776  0.00  0.00    +0.000 A 
ATOM      4  C   UNL     1       3.997   4.451  16.735  0.00  0.00    +0.000 A 
ATOM      5  C   UNL     1       4.869   4.323  15.653  0.00  0.00    +0.000 A 
ATOM      6  C   UNL     1       6.060   5.067  15.591  0.00  0.00    +0.000 A 
ENDROOT
BRANCH   3   7
ATOM      7  C   UNL     1       3.425   5.382  18.965  0.00  0.00    +0.000 A 
ATOM      8  C   UNL     1       2.650   6.518  19.405  0.00  0.00    +0.000 A 
ATOM      9  C   UNL     1       1.889   6.225  20.509  0.00  0.00    +0.000 A 
ATOM     10 CL   UNL     1       0.807   7.281  21.320  0.00  0.00    +0.000 Cl
ATOM     11  S   UNL     1       2.080   4.640  21.053  0.00  0.00    +0.000 S 
ATOM     12  C   UNL     1       3.159   4.297  19.782  0.00  0.00    +0.000 A 
ATOM     13 CL   UNL     1       3.718   2.666  19.674  0.00  0.00    +0.000 Cl
ENDBRANCH   3   7
BRANCH   1  15
ATOM     14  C   UNL     1       7.728   7.745  17.467  0.00  0.00    +0.000 C 
ATOM     15  O   UNL     1       7.509   6.708  16.511  0.00  0.00    +0.000 OA
ENDBRANCH   1  15
BRANCH   6  16
ATOM     16  C   UNL     1       6.966   4.774  14.437  0.00  0.00    +0.000 C 
ATOM     17  O   UNL     1       6.791   3.817  13.701  0.00  0.00    +0.000 OA
BRANCH  16  18
ATOM     18  O   UNL     1       8.023   5.601  14.291  0.00  0.00    +0.000 OA
ATOM     19  H   UNL     1       8.799   5.159  13.888  0.00  0.00    +0.000 HD
ENDBRANCH  16  18
ENDBRANCH   6  16
TORSDOF 4
ENDMDL
MODEL 4
REMARK VINA RESULT:      -6.7      4.414      6.353
REMARK  Name = 
REMARK  5 active torsions:
REMARK  status: ('A' for Active; 'I' for Inactive)
REMARK    1  A    between atoms: C_1  and  O_2
REMARK    2  A    between atoms: O_2  and  C_3
REMARK    3  A    between atoms: C_5  and  C_6
REMARK    4  A    between atoms: C_15  and  C_16
REMARK    5  A    between atoms: C_16  and  O_18
REMARK                            x       y       z     vdW  Elec       q    Type
REMARK                         _______ _______ _______ _____ _____    ______ ____
ROOT
ATOM      1  C   UNL     1       3.189   5.173  19.455  0.00  0.00    +0.000 A 
ATOM      2  C   UNL     1       4.104   5.287  18.396  0.00  0.00    +0.000 A 
ATOM      3  C   UNL     1       4.654   4.156  17.772  0.00  0.00    +0.000 A 
ATOM      4  C   UNL     1       4.369   2.898  18.309  0.00  0.00    +0.000 A 
ATOM      5  C   UNL     1       3.491   2.771  19.385  0.00  0.00    +0.000 A 
ATOM      6  C   UNL     1       2.862   3.897  19.944  0.00  0.00    +0.000 A 
ENDROOT
BRANCH   3   7
ATOM      7  C   UNL     1       5.486   4.272  16.568  0.00  0.00    +0.000 A 
ATOM      8  C   UNL     1       5.200   3.680  15.283  0.00  0.00    +0.000 A 
ATOM      9  C   UNL     1       6.129   4.031  14.336  0.00  0.00    +0.000 A 
ATOM     10 CL   UNL     1       6.136   3.570  12.683  0.00  0.00    +0.000 Cl
ATOM     11  S   UNL     1       7.347   5.033  14.932  0.00  0.00    +0.000 S 
ATOM     12  C   UNL     1       6.623   5.057  16.472  0.00  0.00    +0.000 A 
ATOM     13 CL   UNL     1       7.372   6.070  17.653  0.00  0.00    +0.000 Cl
ENDBRANCH   3   7
BRANCH   1  15
ATOM     14  C   UNL     1       2.312   7.382  19.182  0.00  0.00    +0.000 C 
ATOM     15  O   UNL     1       2.546   6.249  20.018  0.00  0.00    +0.000 OA
ENDBRANCH   1  15
BRANCH   6  16
ATOM     16  C   UNL     1       1.864   3.631  21.027  0.00  0.00    +0.000 C 
ATOM     17  O   UNL     1       2.197   3.261  22.141  0.00  0.00    +0.000 OA
BRANCH  16  18
ATOM     18  O   UNL     1       0.566   3.772  20.681  0.00  0.00    +0.000 OA
ATOM     19  H   UNL     1       0.020   3.000  20.936  0.00  0.00    +0.000 HD
ENDBRANCH  16  18
ENDBRANCH   6  16
TORSDOF 4
ENDMDL
MODEL 5
REMARK VINA RESULT:      -6.6      4.371      6.234
REMARK  Name = 
REMARK  5 active torsions:
REMARK  status: ('A' for Active; 'I' for Inactive)
REMARK    1  A    between atoms: C_1  and  O_2
REMARK    2  A    between atoms: O_2  and  C_3
REMARK    3  A    between atoms: C_5  and  C_6
REMARK    4  A    between atoms: C_15  and  C_16
REMARK    5  A    between atoms: C_16  and  O_18
REMARK                            x       y       z     vdW  Elec       q    Type
REMARK                         _______ _______ _______ _____ _____    ______ ____
ROOT
ATOM      1  C   UNL     1       3.074   6.336  18.582  0.00  0.00    +0.000 A 
ATOM      2  C   UNL     1       4.009   6.178  17.547  0.00  0.00    +0.000 A 
ATOM      3  C   UNL     1       4.535   4.920  17.215  0.00  0.00    +0.000 A 
ATOM      4  C   UNL     1       4.206   3.829  18.023  0.00  0.00    +0.000 A 
ATOM      5  C   UNL     1       3.308   3.977  19.080  0.00  0.00    +0.000 A 
ATOM      6  C   UNL     1       2.702   5.217  19.347  0.00  0.00    +0.000 A 
ENDROOT
BRANCH   3   7
ATOM      7  C   UNL     1       5.390   4.732  16.036  0.00  0.00    +0.000 A 
ATOM      8  C   UNL     1       5.056   3.958  14.864  0.00  0.00    +0.000 A 
ATOM      9  C   UNL     1       6.030   4.034  13.901  0.00  0.00    +0.000 A 
ATOM     10 CL   UNL     1       6.005   3.292  12.354  0.00  0.00    +0.000 Cl
ATOM     11  S   UNL     1       7.345   4.988  14.353  0.00  0.00    +0.000 S 
ATOM     12  C   UNL     1       6.609   5.359  15.842  0.00  0.00    +0.000 A 
ATOM     13 CL   UNL     1       7.453   6.477  16.853  0.00  0.00    +0.000 Cl
ENDBRANCH   3   7
BRANCH   1  15
ATOM     14  C   UNL     1       2.350   8.480  17.806  0.00  0.00    +0.000 C 
ATOM     15  O   UNL     1       2.453   7.529  18.865  0.00  0.00    +0.000 OA
ENDBRANCH   1  15
BRANCH   6  16
ATOM     16  C   UNL     1       1.679   5.236  20.439  0.00  0.00    +0.000 C 
ATOM     17  O   UNL     1       0.877   4.329  20.592  0.00  0.00    +0.000 OA
BRANCH  16  18
ATOM     18  O   UNL     1       1.660   6.342  21.212  0.00  0.00    +0.000 OA
ATOM     19  H   UNL     1       2.494   6.470  21.712  0.00  0.00    +0.000 HD
ENDBRANCH  16  18
ENDBRANCH   6  16
TORSDOF 4
ENDMDL
MODEL 6
REMARK VINA RESULT:      -6.6      4.473      6.604
REMARK  Name = 
REMARK  5 active torsions:
REMARK  status: ('A' for Active; 'I' for Inactive)
REMARK    1  A    between atoms: C_1  and  O_2
REMARK    2  A    between atoms: O_2  and  C_3
REMARK    3  A    between atoms: C_5  and  C_6
REMARK    4  A    between atoms: C_15  and  C_16
REMARK    5  A    between atoms: C_16  and  O_18
REMARK                            x       y       z     vdW  Elec       q    Type
REMARK                         _______ _______ _______ _____ _____    ______ ____
ROOT
ATOM      1  C   UNL     1       2.950   3.682  18.714  0.00  0.00    +0.000 A 
ATOM      2  C   UNL     1       3.721   3.604  17.543  0.00  0.00    +0.000 A 
ATOM      3  C   UNL     1       4.413   4.718  17.041  0.00  0.00    +0.000 A 
ATOM      4  C   UNL     1       4.221   5.954  17.662  0.00  0.00    +0.000 A 
ATOM      5  C   UNL     1       3.427   6.055  18.805  0.00  0.00    +0.000 A 
ATOM      6  C   UNL     1       2.817   4.920  19.366  0.00  0.00    +0.000 A 
ENDROOT
BRANCH   3   7
ATOM      7  C   UNL     1       5.342   4.599  15.910  0.00  0.00    +0.000 A 
ATOM      8  C   UNL     1       5.093   3.878  14.684  0.00  0.00    +0.000 A 
ATOM      9  C   UNL     1       6.123   4.015  13.788  0.00  0.00    +0.000 A 
ATOM     10 CL   UNL     1       6.206   3.348  12.209  0.00  0.00    +0.000 Cl
ATOM     11  S   UNL     1       7.392   4.964  14.366  0.00  0.00    +0.000 S 
ATOM     12  C   UNL     1       6.559   5.252  15.821  0.00  0.00    +0.000 A 
ATOM     13 CL   UNL     1       7.321   6.331  16.936  0.00  0.00    +0.000 Cl
ENDBRANCH   3   7
BRANCH   1  15
ATOM     14  C   UNL     1       1.083   2.188  18.778  0.00  0.00    +0.000 C 
ATOM     15  O   UNL     1       2.349   2.593  19.298  0.00  0.00    +0.000 OA
ENDBRANCH   1  15
BRANCH   6  16
ATOM     16  C   UNL     1       2.073   5.131  20.647  0.00  0.00    +0.000 C 
ATOM     17  O   UNL     1       1.423   6.141  20.863  0.00  0.00    +0.000 OA
BRANCH  16  18
ATOM     18  O   UNL     1       2.210   4.160  21.575  0.00  0.00    +0.000 OA
ATOM     19  H   UNL     1       3.141   3.883  21.701  0.00  0.00    +0.000 HD
ENDBRANCH  16  18
ENDBRANCH   6  16
TORSDOF 4
ENDMDL
MODEL 7
REMARK VINA RESULT:      -6.5      3.494      5.039
REMARK  Name = 
REMARK  5 active torsions:
REMARK  status: ('A' for Active; 'I' for Inactive)
REMARK    1  A    between atoms: C_1  and  O_2
REMARK    2  A    between atoms: O_2  and  C_3
REMARK    3  A    between atoms: C_5  and  C_6
REMARK    4  A    between atoms: C_15  and  C_16
REMARK    5  A    between atoms: C_16  and  O_18
REMARK                            x       y       z     vdW  Elec       q    Type
REMARK                         _______ _______ _______ _____ _____    ______ ____
ROOT
ATOM      1  C   UNL     1       4.018   5.139  18.892  0.00  0.00    +0.000 A 
ATOM      2  C   UNL     1       3.307   6.339  19.057  0.00  0.00    +0.000 A 
ATOM      3  C   UNL     1       2.218   6.435  19.938  0.00  0.00    +0.000 A 
ATOM      4  C   UNL     1       1.765   5.271  20.563  0.00  0.00    +0.000 A 
ATOM      5  C   UNL     1       2.437   4.062  20.379  0.00  0.00    +0.000 A 
ATOM      6  C   UNL     1       3.589   3.989  19.577  0.00  0.00    +0.000 A 
ENDROOT
BRANCH   3   7
ATOM      7  C   UNL     1       1.577   7.724  20.228  0.00  0.00    +0.000 A 
ATOM      8  C   UNL     1       1.010   8.120  21.495  0.00  0.00    +0.000 A 
ATOM      9  C   UNL     1       0.551   9.413  21.473  0.00  0.00    +0.000 A 
ATOM     10 CL   UNL     1      -0.158  10.274  22.776  0.00  0.00    +0.000 Cl
ATOM     11  S   UNL     1       0.757  10.171  19.980  0.00  0.00    +0.000 S 
ATOM     12  C   UNL     1       1.515   8.787  19.343  0.00  0.00    +0.000 A 
ATOM     13 CL   UNL     1       2.122   8.923  17.731  0.00  0.00    +0.000 Cl
ENDBRANCH   3   7
BRANCH   1  15
ATOM     14  C   UNL     1       6.385   5.437  18.724  0.00  0.00    +0.000 C 
ATOM     15  O   UNL     1       5.154   5.032  18.127  0.00  0.00    +0.000 OA
ENDBRANCH   1  15
BRANCH   6  16
ATOM     16  C   UNL     1       4.285   2.665  19.533  0.00  0.00    +0.000 C 
ATOM     17  O   UNL     1       4.774   2.155  20.528  0.00  0.00    +0.000 OA
BRANCH  16  18
ATOM     18  O   UNL     1       4.389   2.093  18.315  0.00  0.00    +0.000 OA
ATOM     19  H   UNL     1       5.263   1.676  18.164  0.00  0.00    +0.000 HD
ENDBRANCH  16  18
ENDBRANCH   6  16
TORSDOF 4
ENDMDL
MODEL 8
REMARK VINA RESULT:      -6.5      3.936      5.484
REMARK  Name = 
REMARK  5 active torsions:
REMARK  status: ('A' for Active; 'I' for Inactive)
REMARK    1  A    between atoms: C_1  and  O_2
REMARK    2  A    between atoms: O_2  and  C_3
REMARK    3  A    between atoms: C_5  and  C_6
REMARK    4  A    between atoms: C_15  and  C_16
REMARK    5  A    between atoms: C_16  and  O_18
REMARK                            x       y       z     vdW  Elec       q    Type
REMARK                         _______ _______ _______ _____ _____    ______ ____
ROOT
ATOM      1  C   UNL     1       2.785   4.647  20.206  0.00  0.00    +0.000 A 
ATOM      2  C   UNL     1       2.142   5.820  20.632  0.00  0.00    +0.000 A 
ATOM      3  C   UNL     1       2.194   7.003  19.877  0.00  0.00    +0.000 A 
ATOM      4  C   UNL     1       3.009   7.033  18.743  0.00  0.00    +0.000 A 
ATOM      5  C   UNL     1       3.686   5.885  18.329  0.00  0.00    +0.000 A 
ATOM      6  C   UNL     1       3.552   4.673  19.029  0.00  0.00    +0.000 A 
ENDROOT
BRANCH   3   7
ATOM      7  C   UNL     1       1.395   8.180  20.240  0.00  0.00    +0.000 A 
ATOM      8  C   UNL     1       0.840   8.457  21.544  0.00  0.00    +0.000 A 
ATOM      9  C   UNL     1       0.206   9.673  21.586  0.00  0.00    +0.000 A 
ATOM     10 CL   UNL     1      -0.553  10.388  22.949  0.00  0.00    +0.000 Cl
ATOM     11  S   UNL     1       0.234  10.495  20.114  0.00  0.00    +0.000 S 
ATOM     12  C   UNL     1       1.145   9.250  19.396  0.00  0.00    +0.000 A 
ATOM     13 CL   UNL     1       1.650   9.516  17.766  0.00  0.00    +0.000 Cl
ENDBRANCH   3   7
BRANCH   1  15
ATOM     14  C   UNL     1       1.349   2.979  21.144  0.00  0.00    +0.000 C 
ATOM     15  O   UNL     1       2.668   3.442  20.857  0.00  0.00    +0.000 OA
ENDBRANCH   1  15
BRANCH   6  16
ATOM     16  C   UNL     1       4.241   3.484  18.436  0.00  0.00    +0.000 C 
ATOM     17  O   UNL     1       4.029   3.113  17.293  0.00  0.00    +0.000 OA
BRANCH  16  18
ATOM     18  O   UNL     1       5.072   2.811  19.261  0.00  0.00    +0.000 OA
ATOM     19  H   UNL     1       4.613   2.113  19.774  0.00  0.00    +0.000 HD
ENDBRANCH  16  18
ENDBRANCH   6  16
TORSDOF 4
ENDMDL
MODEL 9
REMARK VINA RESULT:      -6.5      4.454      6.516
REMARK  Name = 
REMARK  5 active torsions:
REMARK  status: ('A' for Active; 'I' for Inactive)
REMARK    1  A    between atoms: C_1  and  O_2
REMARK    2  A    between atoms: O_2  and  C_3
REMARK    3  A    between atoms: C_5  and  C_6
REMARK    4  A    between atoms: C_15  and  C_16
REMARK    5  A    between atoms: C_16  and  O_18
REMARK                            x       y       z     vdW  Elec       q    Type
REMARK                         _______ _______ _______ _____ _____    ______ ____
ROOT
ATOM      1  C   UNL     1       3.290   3.388  18.863  0.00  0.00    +0.000 A 
ATOM      2  C   UNL     1       4.164   3.372  17.764  0.00  0.00    +0.000 A 
ATOM      3  C   UNL     1       4.355   4.506  16.958  0.00  0.00    +0.000 A 
ATOM      4  C   UNL     1       3.559   5.629  17.193  0.00  0.00    +0.000 A 
ATOM      5  C   UNL     1       2.658   5.647  18.259  0.00  0.00    +0.000 A 
ATOM      6  C   UNL     1       2.541   4.548  19.127  0.00  0.00    +0.000 A 
ENDROOT
BRANCH   3   7
ATOM      7  C   UNL     1       5.382   4.538  15.909  0.00  0.00    +0.000 A 
ATOM      8  C   UNL     1       5.279   3.922  14.607  0.00  0.00    +0.000 A 
ATOM      9  C   UNL     1       6.372   4.192  13.823  0.00  0.00    +0.000 A 
ATOM     10 CL   UNL     1       6.627   3.679  12.205  0.00  0.00    +0.000 Cl
ATOM     11  S   UNL     1       7.531   5.144  14.593  0.00  0.00    +0.000 S 
ATOM     12  C   UNL     1       6.563   5.256  15.988  0.00  0.00    +0.000 A 
ATOM     13 CL   UNL     1       7.164   6.263  17.256  0.00  0.00    +0.000 Cl
ENDBRANCH   3   7
BRANCH   1  15
ATOM     14  C   UNL     1       4.296   2.002  20.534  0.00  0.00    +0.000 C 
ATOM     15  O   UNL     1       3.158   2.338  19.739  0.00  0.00    +0.000 OA
ENDBRANCH   1  15
BRANCH   6  16
ATOM     16  C   UNL     1       1.619   4.717  20.293  0.00  0.00    +0.000 C 
ATOM     17  O   UNL     1       1.761   5.614  21.108  0.00  0.00    +0.000 OA
BRANCH  16  18
ATOM     18  O   UNL     1       0.652   3.784  20.421  0.00  0.00    +0.000 OA
ATOM     19  H   UNL     1       0.001   4.005  21.120  0.00  0.00    +0.000 HD
ENDBRANCH  16  18
ENDBRANCH   6  16
TORSDOF 4
ENDMDL
