MODEL 1
REMARK VINA RESULT:      -6.7      0.000      0.000
REMARK  Name = 
REMARK  8 active torsions:
REMARK  status: ('A' for Active; 'I' for Inactive)
REMARK    1  A    between atoms: C_1  and  C_2
REMARK    2  A    between atoms: C_2  and  N_3
REMARK    3  A    between atoms: C_4  and  S_5
REMARK    4  A    between atoms: S_5  and  C_6
REMARK    5  A    between atoms: C_6  and  C_7
REMARK    6  A    between atoms: N_9  and  C_10
REMARK    7  A    between atoms: C_10  and  C_11
REMARK    8  A    between atoms: C_18  and  C_19
REMARK                            x       y       z     vdW  Elec       q    Type
REMARK                         _______ _______ _______ _____ _____    ______ ____
ROOT
ATOM      1  N   UNL     1       1.607   8.271  19.520  0.00  0.00    +0.000 N 
ATOM      2  C   UNL     1       2.448   7.317  19.009  0.00  0.00    +0.000 A 
ATOM      3  N   UNL     1       2.892   7.693  17.835  0.00  0.00    +0.000 NA
ATOM      4  N   UNL     1       2.303   8.901  17.545  0.00  0.00    +0.000 NA
ATOM      5  C   UNL     1       1.538   9.269  18.563  0.00  0.00    +0.000 A 
ENDROOT
BRANCH   5   6
ATOM      6  C   UNL     1       0.797  10.546  18.624  0.00  0.00    +0.000 A 
ATOM      7  C   UNL     1      -0.587  10.548  18.401  0.00  0.00    +0.000 A 
ATOM      8  C   UNL     1      -1.314  11.744  18.388  0.00  0.00    +0.000 A 
ATOM      9  C   UNL     1      -0.668  12.962  18.594  0.00  0.00    +0.000 A 
ATOM     10  C   UNL     1       0.705  12.982  18.798  0.00  0.00    +0.000 A 
ATOM     11  C   UNL     1       1.427  11.785  18.802  0.00  0.00    +0.000 A 
ENDBRANCH   5   6
BRANCH   1  13
ATOM     12  C   UNL     1       1.483   9.141  21.839  0.00  0.00    +0.000 C 
ATOM     13  C   UNL     1       0.907   8.205  20.788  0.00  0.00    +0.000 C 
ENDBRANCH   1  13
BRANCH   2  14
ATOM     14  S   UNL     1       2.822   5.824  19.801  0.00  0.00    +0.000 S 
BRANCH  14  15
ATOM     15  C   UNL     1       2.436   4.617  18.501  0.00  0.00    +0.000 C 
BRANCH  15  16
ATOM     16  C   UNL     1       3.720   4.029  17.938  0.00  0.00    +0.000 C 
ATOM     17  O   UNL     1       4.204   2.983  18.358  0.00  0.00    +0.000 OA
ATOM     18  N   UNL     1       4.313   4.787  16.955  0.00  0.00    +0.000 N 
ATOM     19  H   UNL     1       3.838   5.606  16.585  0.00  0.00    +0.000 HD
BRANCH  18  20
ATOM     20  C   UNL     1       5.527   4.370  16.271  0.00  0.00    +0.000 C 
BRANCH  20  21
ATOM     21  C   UNL     1       6.713   5.279  16.600  0.00  0.00    +0.000 C 
ATOM     22  C   UNL     1       7.169   5.208  18.048  0.00  0.00    +0.000 C 
ATOM     23  C   UNL     1       7.759   6.577  18.260  0.00  0.00    +0.000 C 
ATOM     24  C   UNL     1       6.840   7.454  17.442  0.00  0.00    +0.000 C 
ATOM     25  O   UNL     1       6.368   6.656  16.345  0.00  0.00    +0.000 OA
ENDBRANCH  20  21
ENDBRANCH  18  20
ENDBRANCH  15  16
ENDBRANCH  14  15
ENDBRANCH   2  14
TORSDOF 7
ENDMDL
MODEL 2
REMARK VINA RESULT:      -6.6      4.208      7.174
REMARK  Name = 
REMARK  8 active torsions:
REMARK  status: ('A' for Active; 'I' for Inactive)
REMARK    1  A    between atoms: C_1  and  C_2
REMARK    2  A    between atoms: C_2  and  N_3
REMARK    3  A    between atoms: C_4  and  S_5
REMARK    4  A    between atoms: S_5  and  C_6
REMARK    5  A    between atoms: C_6  and  C_7
REMARK    6  A    between atoms: N_9  and  C_10
REMARK    7  A    between atoms: C_10  and  C_11
REMARK    8  A    between atoms: C_18  and  C_19
REMARK                            x       y       z     vdW  Elec       q    Type
REMARK                         _______ _______ _______ _____ _____    ______ ____
ROOT
ATOM      1  N   UNL     1       4.954   5.513  17.999  0.00  0.00    +0.000 N 
ATOM      2  C   UNL     1       6.319   5.612  18.088  0.00  0.00    +0.000 A 
ATOM      3  N   UNL     1       6.779   4.713  18.922  0.00  0.00    +0.000 NA
ATOM      4  N   UNL     1       5.696   4.031  19.425  0.00  0.00    +0.000 NA
ATOM      5  C   UNL     1       4.590   4.494  18.862  0.00  0.00    +0.000 A 
ENDROOT
BRANCH   5   6
ATOM      6  C   UNL     1       3.239   3.954  19.122  0.00  0.00    +0.000 A 
ATOM      7  C   UNL     1       2.705   2.993  18.251  0.00  0.00    +0.000 A 
ATOM      8  C   UNL     1       1.406   2.503  18.428  0.00  0.00    +0.000 A 
ATOM      9  C   UNL     1       0.614   2.969  19.476  0.00  0.00    +0.000 A 
ATOM     10  C   UNL     1       1.119   3.934  20.337  0.00  0.00    +0.000 A 
ATOM     11  C   UNL     1       2.414   4.425  20.152  0.00  0.00    +0.000 A 
ENDBRANCH   5   6
BRANCH   1  13
ATOM     12  C   UNL     1       3.350   7.405  18.004  0.00  0.00    +0.000 C 
ATOM     13  C   UNL     1       4.086   6.350  17.193  0.00  0.00    +0.000 C 
ENDBRANCH   1  13
BRANCH   2  14
ATOM     14  S   UNL     1       7.266   6.787  17.242  0.00  0.00    +0.000 S 
BRANCH  14  15
ATOM     15  C   UNL     1       8.204   7.543  18.601  0.00  0.00    +0.000 C 
BRANCH  15  16
ATOM     16  C   UNL     1       8.390   9.029  18.343  0.00  0.00    +0.000 C 
ATOM     17  O   UNL     1       7.776   9.626  17.464  0.00  0.00    +0.000 OA
ATOM     18  N   UNL     1       9.331   9.635  19.142  0.00  0.00    +0.000 N 
ATOM     19  H   UNL     1       9.759   9.120  19.907  0.00  0.00    +0.000 HD
BRANCH  18  20
ATOM     20  C   UNL     1       9.620  11.058  19.068  0.00  0.00    +0.000 C 
BRANCH  20  21
ATOM     21  C   UNL     1       9.924  11.656  20.444  0.00  0.00    +0.000 C 
ATOM     22  C   UNL     1       8.936  11.257  21.528  0.00  0.00    +0.000 C 
ATOM     23  C   UNL     1       9.005  12.433  22.466  0.00  0.00    +0.000 C 
ATOM     24  C   UNL     1       9.180  13.594  21.514  0.00  0.00    +0.000 C 
ATOM     25  O   UNL     1       9.899  13.096  20.375  0.00  0.00    +0.000 OA
ENDBRANCH  20  21
ENDBRANCH  18  20
ENDBRANCH  15  16
ENDBRANCH  14  15
ENDBRANCH   2  14
TORSDOF 7
ENDMDL
MODEL 3
REMARK VINA RESULT:      -6.6      0.641      1.168
REMARK  Name = 
REMARK  8 active torsions:
REMARK  status: ('A' for Active; 'I' for Inactive)
REMARK    1  A    between atoms: C_1  and  C_2
REMARK    2  A    between atoms: C_2  and  N_3
REMARK    3  A    between atoms: C_4  and  S_5
REMARK    4  A    between atoms: S_5  and  C_6
REMARK    5  A    between atoms: C_6  and  C_7
REMARK    6  A    between atoms: N_9  and  C_10
REMARK    7  A    between atoms: C_10  and  C_11
REMARK    8  A    between atoms: C_18  and  C_19
REMARK                            x       y       z     vdW  Elec       q    Type
REMARK                         _______ _______ _______ _____ _____    ______ ____
ROOT
ATOM      1  N   UNL     1       1.532   8.348  19.549  0.00  0.00    +0.000 N 
ATOM      2  C   UNL     1       2.377   7.414  19.010  0.00  0.00    +0.000 A 
ATOM      3  N   UNL     1       2.788   7.808  17.830  0.00  0.00    +0.000 NA
ATOM      4  N   UNL     1       2.173   9.009  17.565  0.00  0.00    +0.000 NA
ATOM      5  C   UNL     1       1.424   9.354  18.603  0.00  0.00    +0.000 A 
ENDROOT
BRANCH   5   6
ATOM      6  C   UNL     1       0.663  10.617  18.693  0.00  0.00    +0.000 A 
ATOM      7  C   UNL     1       1.319  11.786  19.105  0.00  0.00    +0.000 A 
ATOM      8  C   UNL     1       0.619  12.988  19.262  0.00  0.00    +0.000 A 
ATOM      9  C   UNL     1      -0.751  13.043  19.015  0.00  0.00    +0.000 A 
ATOM     10  C   UNL     1      -1.421  11.891  18.625  0.00  0.00    +0.000 A 
ATOM     11  C   UNL     1      -0.719  10.692  18.476  0.00  0.00    +0.000 A 
ENDBRANCH   5   6
BRANCH   1  13
ATOM     12  C   UNL     1       1.449   9.189  21.881  0.00  0.00    +0.000 C 
ATOM     13  C   UNL     1       0.861   8.258  20.832  0.00  0.00    +0.000 C 
ENDBRANCH   1  13
BRANCH   2  14
ATOM     14  S   UNL     1       2.794   5.920  19.779  0.00  0.00    +0.000 S 
BRANCH  14  15
ATOM     15  C   UNL     1       1.916   4.719  18.738  0.00  0.00    +0.000 C 
BRANCH  15  16
ATOM     16  C   UNL     1       2.838   4.201  17.648  0.00  0.00    +0.000 C 
ATOM     17  O   UNL     1       2.516   3.291  16.890  0.00  0.00    +0.000 OA
ATOM     18  N   UNL     1       4.075   4.803  17.611  0.00  0.00    +0.000 N 
ATOM     19  H   UNL     1       4.271   5.603  18.207  0.00  0.00    +0.000 HD
BRANCH  18  20
ATOM     20  C   UNL     1       5.079   4.467  16.614  0.00  0.00    +0.000 C 
BRANCH  20  21
ATOM     21  C   UNL     1       6.476   4.939  17.024  0.00  0.00    +0.000 C 
ATOM     22  C   UNL     1       6.643   5.166  18.517  0.00  0.00    +0.000 C 
ATOM     23  C   UNL     1       7.717   6.222  18.557  0.00  0.00    +0.000 C 
ATOM     24  C   UNL     1       7.382   7.067  17.350  0.00  0.00    +0.000 C 
ATOM     25  O   UNL     1       6.783   6.192  16.380  0.00  0.00    +0.000 OA
ENDBRANCH  20  21
ENDBRANCH  18  20
ENDBRANCH  15  16
ENDBRANCH  14  15
ENDBRANCH   2  14
TORSDOF 7
ENDMDL
MODEL 4
REMARK VINA RESULT:      -6.5      2.806      6.505
REMARK  Name = 
REMARK  8 active torsions:
REMARK  status: ('A' for Active; 'I' for Inactive)
REMARK    1  A    between atoms: C_1  and  C_2
REMARK    2  A    between atoms: C_2  and  N_3
REMARK    3  A    between atoms: C_4  and  S_5
REMARK    4  A    between atoms: S_5  and  C_6
REMARK    5  A    between atoms: C_6  and  C_7
REMARK    6  A    between atoms: N_9  and  C_10
REMARK    7  A    between atoms: C_10  and  C_11
REMARK    8  A    between atoms: C_18  and  C_19
REMARK                            x       y       z     vdW  Elec       q    Type
REMARK                         _______ _______ _______ _____ _____    ______ ____
ROOT
ATOM      1  N   UNL     1       4.816   3.893  17.880  0.00  0.00    +0.000 N 
ATOM      2  C   UNL     1       4.309   2.923  18.706  0.00  0.00    +0.000 A 
ATOM      3  N   UNL     1       4.769   3.086  19.922  0.00  0.00    +0.000 NA
ATOM      4  N   UNL     1       5.628   4.159  19.894  0.00  0.00    +0.000 NA
ATOM      5  C   UNL     1       5.651   4.666  18.669  0.00  0.00    +0.000 A 
ENDROOT
BRANCH   5   6
ATOM      6  C   UNL     1       6.422   5.866  18.284  0.00  0.00    +0.000 A 
ATOM      7  C   UNL     1       7.654   6.119  18.903  0.00  0.00    +0.000 A 
ATOM      8  C   UNL     1       8.384   7.277  18.610  0.00  0.00    +0.000 A 
ATOM      9  C   UNL     1       7.892   8.207  17.696  0.00  0.00    +0.000 A 
ATOM     10  C   UNL     1       6.665   7.983  17.087  0.00  0.00    +0.000 A 
ATOM     11  C   UNL     1       5.937   6.829  17.388  0.00  0.00    +0.000 A 
ENDBRANCH   5   6
BRANCH   1  13
ATOM     12  C   UNL     1       5.744   3.660  15.592  0.00  0.00    +0.000 C 
ATOM     13  C   UNL     1       4.553   4.032  16.461  0.00  0.00    +0.000 C 
ENDBRANCH   1  13
BRANCH   2  14
ATOM     14  S   UNL     1       3.250   1.658  18.185  0.00  0.00    +0.000 S 
BRANCH  14  15
ATOM     15  C   UNL     1       1.630   2.472  18.294  0.00  0.00    +0.000 C 
BRANCH  15  16
ATOM     16  C   UNL     1       1.576   3.363  19.524  0.00  0.00    +0.000 C 
ATOM     17  O   UNL     1       1.265   2.937  20.632  0.00  0.00    +0.000 OA
ATOM     18  N   UNL     1       1.859   4.687  19.283  0.00  0.00    +0.000 N 
ATOM     19  H   UNL     1       2.185   4.982  18.367  0.00  0.00    +0.000 HD
BRANCH  18  20
ATOM     20  C   UNL     1       1.893   5.684  20.341  0.00  0.00    +0.000 C 
BRANCH  20  21
ATOM     21  C   UNL     1       2.386   7.042  19.836  0.00  0.00    +0.000 C 
ATOM     22  C   UNL     1       1.463   8.203  20.168  0.00  0.00    +0.000 C 
ATOM     23  C   UNL     1       1.749   9.165  19.045  0.00  0.00    +0.000 C 
ATOM     24  C   UNL     1       1.965   8.236  17.873  0.00  0.00    +0.000 C 
ATOM     25  O   UNL     1       2.517   7.018  18.400  0.00  0.00    +0.000 OA
ENDBRANCH  20  21
ENDBRANCH  18  20
ENDBRANCH  15  16
ENDBRANCH  14  15
ENDBRANCH   2  14
TORSDOF 7
ENDMDL
MODEL 5
REMARK VINA RESULT:      -6.5      1.287      1.701
REMARK  Name = 
REMARK  8 active torsions:
REMARK  status: ('A' for Active; 'I' for Inactive)
REMARK    1  A    between atoms: C_1  and  C_2
REMARK    2  A    between atoms: C_2  and  N_3
REMARK    3  A    between atoms: C_4  and  S_5
REMARK    4  A    between atoms: S_5  and  C_6
REMARK    5  A    between atoms: C_6  and  C_7
REMARK    6  A    between atoms: N_9  and  C_10
REMARK    7  A    between atoms: C_10  and  C_11
REMARK    8  A    between atoms: C_18  and  C_19
REMARK                            x       y       z     vdW  Elec       q    Type
REMARK                         _______ _______ _______ _____ _____    ______ ____
ROOT
ATOM      1  N   UNL     1       1.471   8.183  19.932  0.00  0.00    +0.000 N 
ATOM      2  C   UNL     1       2.291   7.150  19.559  0.00  0.00    +0.000 A 
ATOM      3  N   UNL     1       2.789   7.381  18.369  0.00  0.00    +0.000 NA
ATOM      4  N   UNL     1       2.258   8.570  17.928  0.00  0.00    +0.000 NA
ATOM      5  C   UNL     1       1.474   9.073  18.871  0.00  0.00    +0.000 A 
ENDROOT
BRANCH   5   6
ATOM      6  C   UNL     1       0.781  10.374  18.765  0.00  0.00    +0.000 A 
ATOM      7  C   UNL     1      -0.593  10.400  18.487  0.00  0.00    +0.000 A 
ATOM      8  C   UNL     1      -1.271  11.613  18.318  0.00  0.00    +0.000 A 
ATOM      9  C   UNL     1      -0.587  12.823  18.420  0.00  0.00    +0.000 A 
ATOM     10  C   UNL     1       0.777  12.817  18.677  0.00  0.00    +0.000 A 
ATOM     11  C   UNL     1       1.451  11.603  18.837  0.00  0.00    +0.000 A 
ENDBRANCH   5   6
BRANCH   1  13
ATOM     12  C   UNL     1       1.420   9.135  22.222  0.00  0.00    +0.000 C 
ATOM     13  C   UNL     1       0.726   8.280  21.172  0.00  0.00    +0.000 C 
ENDBRANCH   1  13
BRANCH   2  14
ATOM     14  S   UNL     1       2.579   5.741  20.520  0.00  0.00    +0.000 S 
BRANCH  14  15
ATOM     15  C   UNL     1       1.356   4.583  19.843  0.00  0.00    +0.000 C 
BRANCH  15  16
ATOM     16  C   UNL     1       1.864   3.991  18.539  0.00  0.00    +0.000 C 
ATOM     17  O   UNL     1       1.122   3.437  17.734  0.00  0.00    +0.000 OA
ATOM     18  N   UNL     1       3.224   4.088  18.358  0.00  0.00    +0.000 N 
ATOM     19  H   UNL     1       3.789   4.621  19.014  0.00  0.00    +0.000 HD
BRANCH  18  20
ATOM     20  C   UNL     1       3.890   3.612  17.156  0.00  0.00    +0.000 C 
BRANCH  20  21
ATOM     21  C   UNL     1       4.959   4.591  16.665  0.00  0.00    +0.000 C 
ATOM     22  C   UNL     1       5.483   4.293  15.271  0.00  0.00    +0.000 C 
ATOM     23  C   UNL     1       6.878   4.856  15.330  0.00  0.00    +0.000 C 
ATOM     24  C   UNL     1       7.293   4.540  16.749  0.00  0.00    +0.000 C 
ATOM     25  O   UNL     1       6.100   4.562  17.548  0.00  0.00    +0.000 OA
ENDBRANCH  20  21
ENDBRANCH  18  20
ENDBRANCH  15  16
ENDBRANCH  14  15
ENDBRANCH   2  14
TORSDOF 7
ENDMDL
MODEL 6
REMARK VINA RESULT:      -6.5      2.362      3.815
REMARK  Name = 
REMARK  8 active torsions:
REMARK  status: ('A' for Active; 'I' for Inactive)
REMARK    1  A    between atoms: C_1  and  C_2
REMARK    2  A    between atoms: C_2  and  N_3
REMARK    3  A    between atoms: C_4  and  S_5
REMARK    4  A    between atoms: S_5  and  C_6
REMARK    5  A    between atoms: C_6  and  C_7
REMARK    6  A    between atoms: N_9  and  C_10
REMARK    7  A    between atoms: C_10  and  C_11
REMARK    8  A    between atoms: C_18  and  C_19
REMARK                            x       y       z     vdW  Elec       q    Type
REMARK                         _______ _______ _______ _____ _____    ______ ____
ROOT
ATOM      1  N   UNL     1       2.731   6.228  19.365  0.00  0.00    +0.000 N 
ATOM      2  C   UNL     1       3.560   5.854  18.340  0.00  0.00    +0.000 A 
ATOM      3  N   UNL     1       3.723   6.853  17.508  0.00  0.00    +0.000 NA
ATOM      4  N   UNL     1       2.955   7.897  17.969  0.00  0.00    +0.000 NA
ATOM      5  C   UNL     1       2.365   7.537  19.100  0.00  0.00    +0.000 A 
ENDROOT
BRANCH   5   6
ATOM      6  C   UNL     1       1.509   8.430  19.909  0.00  0.00    +0.000 A 
ATOM      7  C   UNL     1       1.203   8.075  21.231  0.00  0.00    +0.000 A 
ATOM      8  C   UNL     1       0.345   8.862  22.008  0.00  0.00    +0.000 A 
ATOM      9  C   UNL     1      -0.225  10.018  21.476  0.00  0.00    +0.000 A 
ATOM     10  C   UNL     1       0.052  10.375  20.164  0.00  0.00    +0.000 A 
ATOM     11  C   UNL     1       0.902   9.581  19.390  0.00  0.00    +0.000 A 
ENDBRANCH   5   6
BRANCH   1  13
ATOM     12  C   UNL     1       1.162   4.453  20.099  0.00  0.00    +0.000 C 
ATOM     13  C   UNL     1       2.302   5.390  20.468  0.00  0.00    +0.000 C 
ENDBRANCH   1  13
BRANCH   2  14
ATOM     14  S   UNL     1       4.247   4.275  18.171  0.00  0.00    +0.000 S 
BRANCH  14  15
ATOM     15  C   UNL     1       6.006   4.609  18.477  0.00  0.00    +0.000 C 
BRANCH  15  16
ATOM     16  C   UNL     1       6.763   4.665  17.160  0.00  0.00    +0.000 C 
ATOM     17  O   UNL     1       7.949   4.364  17.070  0.00  0.00    +0.000 OA
ATOM     18  N   UNL     1       6.023   5.121  16.094  0.00  0.00    +0.000 N 
ATOM     19  H   UNL     1       5.026   5.286  16.198  0.00  0.00    +0.000 HD
BRANCH  18  20
ATOM     20  C   UNL     1       6.564   5.209  14.747  0.00  0.00    +0.000 C 
BRANCH  20  21
ATOM     21  C   UNL     1       6.304   3.936  13.939  0.00  0.00    +0.000 C 
ATOM     22  C   UNL     1       7.105   3.841  12.651  0.00  0.00    +0.000 C 
ATOM     23  C   UNL     1       6.212   2.991  11.786  0.00  0.00    +0.000 C 
ATOM     24  C   UNL     1       4.833   3.460  12.187  0.00  0.00    +0.000 C 
ATOM     25  O   UNL     1       4.913   3.863  13.564  0.00  0.00    +0.000 OA
ENDBRANCH  20  21
ENDBRANCH  18  20
ENDBRANCH  15  16
ENDBRANCH  14  15
ENDBRANCH   2  14
TORSDOF 7
ENDMDL
MODEL 7
REMARK VINA RESULT:      -6.4      1.132      1.896
REMARK  Name = 
REMARK  8 active torsions:
REMARK  status: ('A' for Active; 'I' for Inactive)
REMARK    1  A    between atoms: C_1  and  C_2
REMARK    2  A    between atoms: C_2  and  N_3
REMARK    3  A    between atoms: C_4  and  S_5
REMARK    4  A    between atoms: S_5  and  C_6
REMARK    5  A    between atoms: C_6  and  C_7
REMARK    6  A    between atoms: N_9  and  C_10
REMARK    7  A    between atoms: C_10  and  C_11
REMARK    8  A    between atoms: C_18  and  C_19
REMARK                            x       y       z     vdW  Elec       q    Type
REMARK                         _______ _______ _______ _____ _____    ______ ____
ROOT
ATOM      1  N   UNL     1       1.658   8.459  19.715  0.00  0.00    +0.000 N 
ATOM      2  C   UNL     1       2.319   7.356  19.240  0.00  0.00    +0.000 A 
ATOM      3  N   UNL     1       2.542   7.487  17.955  0.00  0.00    +0.000 NA
ATOM      4  N   UNL     1       1.985   8.682  17.564  0.00  0.00    +0.000 NA
ATOM      5  C   UNL     1       1.463   9.286  18.622  0.00  0.00    +0.000 A 
ENDROOT
BRANCH   5   6
ATOM      6  C   UNL     1       0.830  10.621  18.586  0.00  0.00    +0.000 A 
ATOM      7  C   UNL     1       1.631  11.764  18.722  0.00  0.00    +0.000 A 
ATOM      8  C   UNL     1       1.063  13.043  18.756  0.00  0.00    +0.000 A 
ATOM      9  C   UNL     1      -0.319  13.202  18.658  0.00  0.00    +0.000 A 
ATOM     10  C   UNL     1      -1.129  12.081  18.541  0.00  0.00    +0.000 A 
ATOM     11  C   UNL     1      -0.557  10.806  18.516  0.00  0.00    +0.000 A 
ENDBRANCH   5   6
BRANCH   1  13
ATOM     12  C   UNL     1      -0.238   8.312  21.307  0.00  0.00    +0.000 C 
ATOM     13  C   UNL     1       1.222   8.673  21.082  0.00  0.00    +0.000 C 
ENDBRANCH   1  13
BRANCH   2  14
ATOM     14  S   UNL     1       2.748   5.987  20.207  0.00  0.00    +0.000 S 
BRANCH  14  15
ATOM     15  C   UNL     1       1.518   4.764  19.670  0.00  0.00    +0.000 C 
BRANCH  15  16
ATOM     16  C   UNL     1       1.956   4.122  18.364  0.00  0.00    +0.000 C 
ATOM     17  O   UNL     1       1.158   3.634  17.570  0.00  0.00    +0.000 OA
ATOM     18  N   UNL     1       3.317   4.095  18.168  0.00  0.00    +0.000 N 
ATOM     19  H   UNL     1       3.936   4.579  18.814  0.00  0.00    +0.000 HD
BRANCH  18  20
ATOM     20  C   UNL     1       3.924   3.556  16.961  0.00  0.00    +0.000 C 
BRANCH  20  21
ATOM     21  C   UNL     1       4.914   4.536  16.329  0.00  0.00    +0.000 C 
ATOM     22  C   UNL     1       5.880   3.896  15.345  0.00  0.00    +0.000 C 
ATOM     23  C   UNL     1       7.078   4.804  15.442  0.00  0.00    +0.000 C 
ATOM     24  C   UNL     1       7.087   5.168  16.909  0.00  0.00    +0.000 C 
ATOM     25  O   UNL     1       5.721   5.155  17.352  0.00  0.00    +0.000 OA
ENDBRANCH  20  21
ENDBRANCH  18  20
ENDBRANCH  15  16
ENDBRANCH  14  15
ENDBRANCH   2  14
TORSDOF 7
ENDMDL
MODEL 8
REMARK VINA RESULT:      -6.4      4.326      7.282
REMARK  Name = 
REMARK  8 active torsions:
REMARK  status: ('A' for Active; 'I' for Inactive)
REMARK    1  A    between atoms: C_1  and  C_2
REMARK    2  A    between atoms: C_2  and  N_3
REMARK    3  A    between atoms: C_4  and  S_5
REMARK    4  A    between atoms: S_5  and  C_6
REMARK    5  A    between atoms: C_6  and  C_7
REMARK    6  A    between atoms: N_9  and  C_10
REMARK    7  A    between atoms: C_10  and  C_11
REMARK    8  A    between atoms: C_18  and  C_19
REMARK                            x       y       z     vdW  Elec       q    Type
REMARK                         _______ _______ _______ _____ _____    ______ ____
ROOT
ATOM      1  N   UNL     1       4.836   5.423  18.072  0.00  0.00    +0.000 N 
ATOM      2  C   UNL     1       6.196   5.591  18.099  0.00  0.00    +0.000 A 
ATOM      3  N   UNL     1       6.738   4.721  18.915  0.00  0.00    +0.000 NA
ATOM      4  N   UNL     1       5.715   3.989  19.469  0.00  0.00    +0.000 NA
ATOM      5  C   UNL     1       4.562   4.392  18.955  0.00  0.00    +0.000 A 
ENDROOT
BRANCH   5   6
ATOM      6  C   UNL     1       3.254   3.785  19.277  0.00  0.00    +0.000 A 
ATOM      7  C   UNL     1       2.584   4.177  20.446  0.00  0.00    +0.000 A 
ATOM      8  C   UNL     1       1.374   3.580  20.817  0.00  0.00    +0.000 A 
ATOM      9  C   UNL     1       0.812   2.577  20.029  0.00  0.00    +0.000 A 
ATOM     10  C   UNL     1       1.469   2.163  18.878  0.00  0.00    +0.000 A 
ATOM     11  C   UNL     1       2.682   2.757  18.516  0.00  0.00    +0.000 A 
ENDBRANCH   5   6
BRANCH   1  13
ATOM     12  C   UNL     1       2.492   6.216  17.899  0.00  0.00    +0.000 C 
ATOM     13  C   UNL     1       3.891   6.209  17.302  0.00  0.00    +0.000 C 
ENDBRANCH   1  13
BRANCH   2  14
ATOM     14  S   UNL     1       7.043   6.807  17.206  0.00  0.00    +0.000 S 
BRANCH  14  15
ATOM     15  C   UNL     1       8.262   7.371  18.429  0.00  0.00    +0.000 C 
BRANCH  15  16
ATOM     16  C   UNL     1       8.328   8.889  18.436  0.00  0.00    +0.000 C 
ATOM     17  O   UNL     1       7.767   9.577  17.589  0.00  0.00    +0.000 OA
ATOM     18  N   UNL     1       9.103   9.423  19.440  0.00  0.00    +0.000 N 
ATOM     19  H   UNL     1       9.487   8.821  20.164  0.00  0.00    +0.000 HD
BRANCH  18  20
ATOM     20  C   UNL     1       9.257  10.857  19.631  0.00  0.00    +0.000 C 
BRANCH  20  21
ATOM     21  C   UNL     1      10.612  11.361  19.129  0.00  0.00    +0.000 C 
ATOM     22  C   UNL     1      11.499  11.947  20.214  0.00  0.00    +0.000 C 
ATOM     23  C   UNL     1      12.332  12.937  19.442  0.00  0.00    +0.000 C 
ATOM     24  C   UNL     1      11.344  13.466  18.428  0.00  0.00    +0.000 C 
ATOM     25  O   UNL     1      10.421  12.401  18.148  0.00  0.00    +0.000 OA
ENDBRANCH  20  21
ENDBRANCH  18  20
ENDBRANCH  15  16
ENDBRANCH  14  15
ENDBRANCH   2  14
TORSDOF 7
ENDMDL
MODEL 9
REMARK VINA RESULT:      -6.3      4.781      8.199
REMARK  Name = 
REMARK  8 active torsions:
REMARK  status: ('A' for Active; 'I' for Inactive)
REMARK    1  A    between atoms: C_1  and  C_2
REMARK    2  A    between atoms: C_2  and  N_3
REMARK    3  A    between atoms: C_4  and  S_5
REMARK    4  A    between atoms: S_5  and  C_6
REMARK    5  A    between atoms: C_6  and  C_7
REMARK    6  A    between atoms: N_9  and  C_10
REMARK    7  A    between atoms: C_10  and  C_11
REMARK    8  A    between atoms: C_18  and  C_19
REMARK                            x       y       z     vdW  Elec       q    Type
REMARK                         _______ _______ _______ _____ _____    ______ ____
ROOT
ATOM      1  N   UNL     1       6.317   4.105  15.608  0.00  0.00    +0.000 N 
ATOM      2  C   UNL     1       7.080   5.034  16.267  0.00  0.00    +0.000 A 
ATOM      3  N   UNL     1       7.699   5.800  15.402  0.00  0.00    +0.000 NA
ATOM      4  N   UNL     1       7.371   5.344  14.147  0.00  0.00    +0.000 NA
ATOM      5  C   UNL     1       6.524   4.331  14.258  0.00  0.00    +0.000 A 
ENDROOT
BRANCH   5   6
ATOM      6  C   UNL     1       5.912   3.632  13.109  0.00  0.00    +0.000 A 
ATOM      7  C   UNL     1       6.653   2.657  12.425  0.00  0.00    +0.000 A 
ATOM      8  C   UNL     1       6.132   2.018  11.294  0.00  0.00    +0.000 A 
ATOM      9  C   UNL     1       4.862   2.346  10.822  0.00  0.00    +0.000 A 
ATOM     10  C   UNL     1       4.121   3.322  11.475  0.00  0.00    +0.000 A 
ATOM     11  C   UNL     1       4.649   3.963  12.599  0.00  0.00    +0.000 A 
ENDBRANCH   5   6
BRANCH   1  13
ATOM     12  C   UNL     1       4.043   3.470  16.368  0.00  0.00    +0.000 C 
ATOM     13  C   UNL     1       5.504   3.073  16.223  0.00  0.00    +0.000 C 
ENDBRANCH   1  13
BRANCH   2  14
ATOM     14  S   UNL     1       7.219   5.135  17.989  0.00  0.00    +0.000 S 
BRANCH  14  15
ATOM     15  C   UNL     1       5.642   5.918  18.435  0.00  0.00    +0.000 C 
BRANCH  15  16
ATOM     16  C   UNL     1       4.864   5.020  19.382  0.00  0.00    +0.000 C 
ATOM     17  O   UNL     1       5.236   3.887  19.670  0.00  0.00    +0.000 OA
ATOM     18  N   UNL     1       3.691   5.564  19.852  0.00  0.00    +0.000 N 
ATOM     19  H   UNL     1       3.460   6.533  19.648  0.00  0.00    +0.000 HD
BRANCH  18  20
ATOM     20  C   UNL     1       2.830   4.870  20.796  0.00  0.00    +0.000 C 
BRANCH  20  21
ATOM     21  C   UNL     1       1.588   4.286  20.121  0.00  0.00    +0.000 C 
ATOM     22  C   UNL     1       1.518   2.769  20.150  0.00  0.00    +0.000 C 
ATOM     23  C   UNL     1       0.712   2.465  18.915  0.00  0.00    +0.000 C 
ATOM     24  C   UNL     1       1.193   3.522  17.949  0.00  0.00    +0.000 C 
ATOM     25  O   UNL     1       1.552   4.672  18.731  0.00  0.00    +0.000 OA
ENDBRANCH  20  21
ENDBRANCH  18  20
ENDBRANCH  15  16
ENDBRANCH  14  15
ENDBRANCH   2  14
TORSDOF 7
ENDMDL
