MODEL 1
REMARK VINA RESULT:      -7.2      0.000      0.000
REMARK  Name = 
REMARK  2 active torsions:
REMARK  status: ('A' for Active; 'I' for Inactive)
REMARK    1  A    between atoms: N_9  and  C_10
REMARK    2  A    between atoms: C_10  and  C_11
REMARK                            x       y       z     vdW  Elec       q    Type
REMARK                         _______ _______ _______ _____ _____    ______ ____
ROOT
ATOM      1  F   UNL     1       3.770   0.689  18.200  0.00  0.00    +0.000 F 
ATOM      2  C   UNL     1       3.297   1.922  18.420  0.00  0.00    +0.000 A 
ATOM      3  C   UNL     1       2.194   2.085  19.276  0.00  0.00    +0.000 A 
ATOM      4  C   UNL     1       1.675   3.358  19.518  0.00  0.00    +0.000 A 
ATOM      5  C   UNL     1       2.286   4.418  18.880  0.00  0.00    +0.000 A 
ATOM      6  O   UNL     1       1.894   5.743  18.994  0.00  0.00    +0.000 OA
ATOM      7  C   UNL     1       2.810   6.389  18.163  0.00  0.00    +0.000 A 
ATOM      8  S   UNL     1       2.663   8.034  17.999  0.00  0.00    +0.000 S 
ATOM      9  N   UNL     1       3.718   5.513  17.600  0.00  0.00    +0.000 N 
ATOM     10  C   UNL     1       3.376   4.250  18.048  0.00  0.00    +0.000 A 
ATOM     11  C   UNL     1       3.909   3.006  17.795  0.00  0.00    +0.000 A 
ENDROOT
BRANCH   9  12
ATOM     12  C   UNL     1       4.793   5.791  16.661  0.00  0.00    +0.000 C 
BRANCH  12  13
ATOM     13  C   UNL     1       6.056   6.260  17.350  0.00  0.00    +0.000 A 
ATOM     14  C   UNL     1       6.642   5.489  18.365  0.00  0.00    +0.000 A 
ATOM     15  C   UNL     1       7.761   5.955  19.056  0.00  0.00    +0.000 A 
ATOM     16  C   UNL     1       8.314   7.191  18.731  0.00  0.00    +0.000 A 
ATOM     17  C   UNL     1       7.765   7.949  17.701  0.00  0.00    +0.000 A 
ATOM     18  C   UNL     1       6.645   7.485  17.008  0.00  0.00    +0.000 A 
ENDBRANCH  12  13
ENDBRANCH   9  12
TORSDOF 2
ENDMDL
MODEL 2
REMARK VINA RESULT:      -7.2      0.265      1.167
REMARK  Name = 
REMARK  2 active torsions:
REMARK  status: ('A' for Active; 'I' for Inactive)
REMARK    1  A    between atoms: N_9  and  C_10
REMARK    2  A    between atoms: C_10  and  C_11
REMARK                            x       y       z     vdW  Elec       q    Type
REMARK                         _______ _______ _______ _____ _____    ______ ____
ROOT
ATOM      1  F   UNL     1       3.506   0.660  18.559  0.00  0.00    +0.000 F 
ATOM      2  C   UNL     1       3.054   1.910  18.720  0.00  0.00    +0.000 A 
ATOM      3  C   UNL     1       1.944   2.131  19.553  0.00  0.00    +0.000 A 
ATOM      4  C   UNL     1       1.447   3.422  19.734  0.00  0.00    +0.000 A 
ATOM      5  C   UNL     1       2.087   4.443  19.060  0.00  0.00    +0.000 A 
ATOM      6  O   UNL     1       1.720   5.779  19.113  0.00  0.00    +0.000 OA
ATOM      7  C   UNL     1       2.659   6.371  18.268  0.00  0.00    +0.000 A 
ATOM      8  S   UNL     1       2.547   8.010  18.032  0.00  0.00    +0.000 S 
ATOM      9  N   UNL     1       3.556   5.454  17.755  0.00  0.00    +0.000 N 
ATOM     10  C   UNL     1       3.184   4.218  18.250  0.00  0.00    +0.000 A 
ATOM     11  C   UNL     1       3.696   2.955  18.058  0.00  0.00    +0.000 A 
ENDROOT
BRANCH   9  12
ATOM     12  C   UNL     1       4.649   5.672  16.819  0.00  0.00    +0.000 C 
BRANCH  12  13
ATOM     13  C   UNL     1       5.901   6.179  17.500  0.00  0.00    +0.000 A 
ATOM     14  C   UNL     1       6.484   7.392  17.106  0.00  0.00    +0.000 A 
ATOM     15  C   UNL     1       7.681   7.825  17.676  0.00  0.00    +0.000 A 
ATOM     16  C   UNL     1       8.303   7.055  18.656  0.00  0.00    +0.000 A 
ATOM     17  C   UNL     1       7.716   5.867  19.083  0.00  0.00    +0.000 A 
ATOM     18  C   UNL     1       6.518   5.432  18.514  0.00  0.00    +0.000 A 
ENDBRANCH  12  13
ENDBRANCH   9  12
TORSDOF 2
ENDMDL
MODEL 3
REMARK VINA RESULT:      -7.0      3.100      5.434
REMARK  Name = 
REMARK  2 active torsions:
REMARK  status: ('A' for Active; 'I' for Inactive)
REMARK    1  A    between atoms: N_9  and  C_10
REMARK    2  A    between atoms: C_10  and  C_11
REMARK                            x       y       z     vdW  Elec       q    Type
REMARK                         _______ _______ _______ _____ _____    ______ ____
ROOT
ATOM      1  F   UNL     1       7.684   8.578  17.137  0.00  0.00    +0.000 F 
ATOM      2  C   UNL     1       7.245   7.470  17.748  0.00  0.00    +0.000 A 
ATOM      3  C   UNL     1       8.158   6.688  18.476  0.00  0.00    +0.000 A 
ATOM      4  C   UNL     1       7.730   5.524  19.118  0.00  0.00    +0.000 A 
ATOM      5  C   UNL     1       6.397   5.191  18.994  0.00  0.00    +0.000 A 
ATOM      6  O   UNL     1       5.805   4.067  19.551  0.00  0.00    +0.000 OA
ATOM      7  C   UNL     1       4.482   4.195  19.127  0.00  0.00    +0.000 A 
ATOM      8  S   UNL     1       3.419   3.001  19.573  0.00  0.00    +0.000 S 
ATOM      9  N   UNL     1       4.277   5.340  18.381  0.00  0.00    +0.000 N 
ATOM     10  C   UNL     1       5.504   5.971  18.283  0.00  0.00    +0.000 A 
ATOM     11  C   UNL     1       5.899   7.126  17.645  0.00  0.00    +0.000 A 
ENDROOT
BRANCH   9  12
ATOM     12  C   UNL     1       3.058   5.805  17.738  0.00  0.00    +0.000 C 
BRANCH  12  13
ATOM     13  C   UNL     1       2.465   7.012  18.428  0.00  0.00    +0.000 A 
ATOM     14  C   UNL     1       2.216   6.994  19.808  0.00  0.00    +0.000 A 
ATOM     15  C   UNL     1       1.597   8.076  20.434  0.00  0.00    +0.000 A 
ATOM     16  C   UNL     1       1.229   9.194  19.689  0.00  0.00    +0.000 A 
ATOM     17  C   UNL     1       1.504   9.241  18.325  0.00  0.00    +0.000 A 
ATOM     18  C   UNL     1       2.124   8.159  17.697  0.00  0.00    +0.000 A 
ENDBRANCH  12  13
ENDBRANCH   9  12
TORSDOF 2
ENDMDL
MODEL 4
REMARK VINA RESULT:      -6.9      3.075      5.505
REMARK  Name = 
REMARK  2 active torsions:
REMARK  status: ('A' for Active; 'I' for Inactive)
REMARK    1  A    between atoms: N_9  and  C_10
REMARK    2  A    between atoms: C_10  and  C_11
REMARK                            x       y       z     vdW  Elec       q    Type
REMARK                         _______ _______ _______ _____ _____    ______ ____
ROOT
ATOM      1  F   UNL     1       7.770   8.434  17.092  0.00  0.00    +0.000 F 
ATOM      2  C   UNL     1       7.304   7.357  17.737  0.00  0.00    +0.000 A 
ATOM      3  C   UNL     1       8.191   6.592  18.513  0.00  0.00    +0.000 A 
ATOM      4  C   UNL     1       7.734   5.460  19.191  0.00  0.00    +0.000 A 
ATOM      5  C   UNL     1       6.399   5.141  19.054  0.00  0.00    +0.000 A 
ATOM      6  O   UNL     1       5.780   4.048  19.642  0.00  0.00    +0.000 OA
ATOM      7  C   UNL     1       4.468   4.178  19.188  0.00  0.00    +0.000 A 
ATOM      8  S   UNL     1       3.379   3.017  19.660  0.00  0.00    +0.000 S 
ATOM      9  N   UNL     1       4.294   5.295  18.394  0.00  0.00    +0.000 N 
ATOM     10  C   UNL     1       5.531   5.905  18.296  0.00  0.00    +0.000 A 
ATOM     11  C   UNL     1       5.955   7.027  17.621  0.00  0.00    +0.000 A 
ENDROOT
BRANCH   9  12
ATOM     12  C   UNL     1       3.094   5.751  17.710  0.00  0.00    +0.000 C 
BRANCH  12  13
ATOM     13  C   UNL     1       2.435   6.917  18.412  0.00  0.00    +0.000 A 
ATOM     14  C   UNL     1       2.129   8.092  17.710  0.00  0.00    +0.000 A 
ATOM     15  C   UNL     1       1.594   9.197  18.370  0.00  0.00    +0.000 A 
ATOM     16  C   UNL     1       1.347   9.137  19.739  0.00  0.00    +0.000 A 
ATOM     17  C   UNL     1       1.611   7.965  20.442  0.00  0.00    +0.000 A 
ATOM     18  C   UNL     1       2.147   6.857  19.783  0.00  0.00    +0.000 A 
ENDBRANCH  12  13
ENDBRANCH   9  12
TORSDOF 2
ENDMDL
MODEL 5
REMARK VINA RESULT:      -6.9      2.908      5.055
REMARK  Name = 
REMARK  2 active torsions:
REMARK  status: ('A' for Active; 'I' for Inactive)
REMARK    1  A    between atoms: N_9  and  C_10
REMARK    2  A    between atoms: C_10  and  C_11
REMARK                            x       y       z     vdW  Elec       q    Type
REMARK                         _______ _______ _______ _____ _____    ______ ____
ROOT
ATOM      1  F   UNL     1       7.822   6.730  16.995  0.00  0.00    +0.000 F 
ATOM      2  C   UNL     1       6.758   5.919  16.944  0.00  0.00    +0.000 A 
ATOM      3  C   UNL     1       6.667   4.981  15.902  0.00  0.00    +0.000 A 
ATOM      4  C   UNL     1       5.565   4.128  15.819  0.00  0.00    +0.000 A 
ATOM      5  C   UNL     1       4.593   4.259  16.789  0.00  0.00    +0.000 A 
ATOM      6  O   UNL     1       3.430   3.507  16.853  0.00  0.00    +0.000 OA
ATOM      7  C   UNL     1       2.808   4.031  17.986  0.00  0.00    +0.000 A 
ATOM      8  S   UNL     1       1.330   3.400  18.405  0.00  0.00    +0.000 S 
ATOM      9  N   UNL     1       3.559   5.021  18.588  0.00  0.00    +0.000 N 
ATOM     10  C   UNL     1       4.696   5.178  17.816  0.00  0.00    +0.000 A 
ATOM     11  C   UNL     1       5.773   6.029  17.923  0.00  0.00    +0.000 A 
ENDROOT
BRANCH   9  12
ATOM     12  C   UNL     1       3.240   5.826  19.757  0.00  0.00    +0.000 C 
BRANCH  12  13
ATOM     13  C   UNL     1       2.469   7.079  19.405  0.00  0.00    +0.000 A 
ATOM     14  C   UNL     1       2.481   7.578  18.094  0.00  0.00    +0.000 A 
ATOM     15  C   UNL     1       1.837   8.775  17.782  0.00  0.00    +0.000 A 
ATOM     16  C   UNL     1       1.161   9.481  18.775  0.00  0.00    +0.000 A 
ATOM     17  C   UNL     1       1.109   8.978  20.072  0.00  0.00    +0.000 A 
ATOM     18  C   UNL     1       1.754   7.780  20.386  0.00  0.00    +0.000 A 
ENDBRANCH  12  13
ENDBRANCH   9  12
TORSDOF 2
ENDMDL
MODEL 6
REMARK VINA RESULT:      -6.9      2.145      5.052
REMARK  Name = 
REMARK  2 active torsions:
REMARK  status: ('A' for Active; 'I' for Inactive)
REMARK    1  A    between atoms: N_9  and  C_10
REMARK    2  A    between atoms: C_10  and  C_11
REMARK                            x       y       z     vdW  Elec       q    Type
REMARK                         _______ _______ _______ _____ _____    ______ ____
ROOT
ATOM      1  F   UNL     1       6.387   3.240  14.775  0.00  0.00    +0.000 F 
ATOM      2  C   UNL     1       5.924   4.250  15.522  0.00  0.00    +0.000 A 
ATOM      3  C   UNL     1       6.703   5.411  15.655  0.00  0.00    +0.000 A 
ATOM      4  C   UNL     1       6.249   6.477  16.434  0.00  0.00    +0.000 A 
ATOM      5  C   UNL     1       5.027   6.326  17.056  0.00  0.00    +0.000 A 
ATOM      6  O   UNL     1       4.431   7.273  17.875  0.00  0.00    +0.000 OA
ATOM      7  C   UNL     1       3.247   6.635  18.243  0.00  0.00    +0.000 A 
ATOM      8  S   UNL     1       2.231   7.449  19.273  0.00  0.00    +0.000 S 
ATOM      9  N   UNL     1       3.118   5.388  17.662  0.00  0.00    +0.000 N 
ATOM     10  C   UNL     1       4.262   5.183  16.913  0.00  0.00    +0.000 A 
ATOM     11  C   UNL     1       4.685   4.119  16.147  0.00  0.00    +0.000 A 
ENDROOT
BRANCH   9  12
ATOM     12  C   UNL     1       2.054   4.411  17.825  0.00  0.00    +0.000 C 
BRANCH  12  13
ATOM     13  C   UNL     1       2.127   3.690  19.153  0.00  0.00    +0.000 A 
ATOM     14  C   UNL     1       1.006   3.628  19.993  0.00  0.00    +0.000 A 
ATOM     15  C   UNL     1       1.091   3.034  21.252  0.00  0.00    +0.000 A 
ATOM     16  C   UNL     1       2.297   2.483  21.680  0.00  0.00    +0.000 A 
ATOM     17  C   UNL     1       3.408   2.504  20.842  0.00  0.00    +0.000 A 
ATOM     18  C   UNL     1       3.324   3.099  19.581  0.00  0.00    +0.000 A 
ENDBRANCH  12  13
ENDBRANCH   9  12
TORSDOF 2
ENDMDL
MODEL 7
REMARK VINA RESULT:      -6.8      3.183      4.285
REMARK  Name = 
REMARK  2 active torsions:
REMARK  status: ('A' for Active; 'I' for Inactive)
REMARK    1  A    between atoms: N_9  and  C_10
REMARK    2  A    between atoms: C_10  and  C_11
REMARK                            x       y       z     vdW  Elec       q    Type
REMARK                         _______ _______ _______ _____ _____    ______ ____
ROOT
ATOM      1  F   UNL     1       2.059  10.490  17.486  0.00  0.00    +0.000 F 
ATOM      2  C   UNL     1       1.967   9.427  18.294  0.00  0.00    +0.000 A 
ATOM      3  C   UNL     1       1.200   9.528  19.467  0.00  0.00    +0.000 A 
ATOM      4  C   UNL     1       1.092   8.438  20.332  0.00  0.00    +0.000 A 
ATOM      5  C   UNL     1       1.769   7.287  19.982  0.00  0.00    +0.000 A 
ATOM      6  O   UNL     1       1.784   6.118  20.728  0.00  0.00    +0.000 OA
ATOM      7  C   UNL     1       2.601   5.292  19.956  0.00  0.00    +0.000 A 
ATOM      8  S   UNL     1       2.902   3.765  20.532  0.00  0.00    +0.000 S 
ATOM      9  N   UNL     1       3.033   5.912  18.800  0.00  0.00    +0.000 N 
ATOM     10  C   UNL     1       2.513   7.193  18.821  0.00  0.00    +0.000 A 
ATOM     11  C   UNL     1       2.633   8.252  17.949  0.00  0.00    +0.000 A 
ENDROOT
BRANCH   9  12
ATOM     12  C   UNL     1       3.919   5.400  17.766  0.00  0.00    +0.000 C 
BRANCH  12  13
ATOM     13  C   UNL     1       5.355   5.826  17.970  0.00  0.00    +0.000 A 
ATOM     14  C   UNL     1       6.122   5.275  19.007  0.00  0.00    +0.000 A 
ATOM     15  C   UNL     1       7.421   5.723  19.248  0.00  0.00    +0.000 A 
ATOM     16  C   UNL     1       7.973   6.719  18.446  0.00  0.00    +0.000 A 
ATOM     17  C   UNL     1       7.237   7.249  17.390  0.00  0.00    +0.000 A 
ATOM     18  C   UNL     1       5.936   6.802  17.148  0.00  0.00    +0.000 A 
ENDBRANCH  12  13
ENDBRANCH   9  12
TORSDOF 2
ENDMDL
MODEL 8
REMARK VINA RESULT:      -6.8      2.536      3.924
REMARK  Name = 
REMARK  2 active torsions:
REMARK  status: ('A' for Active; 'I' for Inactive)
REMARK    1  A    between atoms: N_9  and  C_10
REMARK    2  A    between atoms: C_10  and  C_11
REMARK                            x       y       z     vdW  Elec       q    Type
REMARK                         _______ _______ _______ _____ _____    ______ ____
ROOT
ATOM      1  F   UNL     1       0.189   2.410  18.481  0.00  0.00    +0.000 F 
ATOM      2  C   UNL     1       1.476   2.711  18.699  0.00  0.00    +0.000 A 
ATOM      3  C   UNL     1       2.272   1.809  19.425  0.00  0.00    +0.000 A 
ATOM      4  C   UNL     1       3.614   2.099  19.673  0.00  0.00    +0.000 A 
ATOM      5  C   UNL     1       4.101   3.294  19.184  0.00  0.00    +0.000 A 
ATOM      6  O   UNL     1       5.401   3.748  19.349  0.00  0.00    +0.000 OA
ATOM      7  C   UNL     1       5.365   4.977  18.690  0.00  0.00    +0.000 A 
ATOM      8  S   UNL     1       6.759   5.878  18.680  0.00  0.00    +0.000 S 
ATOM      9  N   UNL     1       4.127   5.241  18.136  0.00  0.00    +0.000 N 
ATOM     10  C   UNL     1       3.313   4.171  18.463  0.00  0.00    +0.000 A 
ATOM     11  C   UNL     1       1.987   3.907  18.201  0.00  0.00    +0.000 A 
ENDROOT
BRANCH   9  12
ATOM     12  C   UNL     1       3.685   6.420  17.409  0.00  0.00    +0.000 C 
BRANCH  12  13
ATOM     13  C   UNL     1       2.846   7.345  18.262  0.00  0.00    +0.000 A 
ATOM     14  C   UNL     1       2.592   7.040  19.607  0.00  0.00    +0.000 A 
ATOM     15  C   UNL     1       1.754   7.849  20.375  0.00  0.00    +0.000 A 
ATOM     16  C   UNL     1       1.170   8.980  19.810  0.00  0.00    +0.000 A 
ATOM     17  C   UNL     1       1.442   9.315  18.486  0.00  0.00    +0.000 A 
ATOM     18  C   UNL     1       2.281   8.507  17.716  0.00  0.00    +0.000 A 
ENDBRANCH  12  13
ENDBRANCH   9  12
TORSDOF 2
ENDMDL
MODEL 9
REMARK VINA RESULT:      -6.8      3.197      4.283
REMARK  Name = 
REMARK  2 active torsions:
REMARK  status: ('A' for Active; 'I' for Inactive)
REMARK    1  A    between atoms: N_9  and  C_10
REMARK    2  A    between atoms: C_10  and  C_11
REMARK                            x       y       z     vdW  Elec       q    Type
REMARK                         _______ _______ _______ _____ _____    ______ ____
ROOT
ATOM      1  F   UNL     1       1.704  10.135  18.622  0.00  0.00    +0.000 F 
ATOM      2  C   UNL     1       1.730   8.940  19.225  0.00  0.00    +0.000 A 
ATOM      3  C   UNL     1       1.030   8.772  20.432  0.00  0.00    +0.000 A 
ATOM      4  C   UNL     1       1.045   7.539  21.086  0.00  0.00    +0.000 A 
ATOM      5  C   UNL     1       1.773   6.524  20.500  0.00  0.00    +0.000 A 
ATOM      6  O   UNL     1       1.908   5.244  21.017  0.00  0.00    +0.000 OA
ATOM      7  C   UNL     1       2.729   4.634  20.070  0.00  0.00    +0.000 A 
ATOM      8  S   UNL     1       3.163   3.054  20.341  0.00  0.00    +0.000 S 
ATOM      9  N   UNL     1       3.051   5.482  19.028  0.00  0.00    +0.000 N 
ATOM     10  C   UNL     1       2.450   6.695  19.308  0.00  0.00    +0.000 A 
ATOM     11  C   UNL     1       2.449   7.900  18.641  0.00  0.00    +0.000 A 
ENDROOT
BRANCH   9  12
ATOM     12  C   UNL     1       3.904   5.231  17.877  0.00  0.00    +0.000 C 
BRANCH  12  13
ATOM     13  C   UNL     1       5.296   5.795  18.054  0.00  0.00    +0.000 A 
ATOM     14  C   UNL     1       5.762   6.820  17.217  0.00  0.00    +0.000 A 
ATOM     15  C   UNL     1       7.071   7.288  17.326  0.00  0.00    +0.000 A 
ATOM     16  C   UNL     1       7.927   6.746  18.283  0.00  0.00    +0.000 A 
ATOM     17  C   UNL     1       7.466   5.755  19.145  0.00  0.00    +0.000 A 
ATOM     18  C   UNL     1       6.156   5.285  19.038  0.00  0.00    +0.000 A 
ENDBRANCH  12  13
ENDBRANCH   9  12
TORSDOF 2
ENDMDL
