MODEL 1
REMARK VINA RESULT:      -7.8      0.000      0.000
REMARK  Name = 
REMARK  6 active torsions:
REMARK  status: ('A' for Active; 'I' for Inactive)
REMARK    1  A    between atoms: C_1  and  O_2
REMARK    2  A    between atoms: O_2  and  C_3
REMARK    3  A    between atoms: C_8  and  N_9
REMARK    4  A    between atoms: C_10  and  C_12
REMARK    5  A    between atoms: C_12  and  S_13
REMARK    6  A    between atoms: S_13  and  C_14
REMARK                            x       y       z     vdW  Elec       q    Type
REMARK                         _______ _______ _______ _____ _____    ______ ____
ROOT
ATOM      1  N   UNL     1       4.581   5.180  19.352  0.00  0.00    +0.000 N 
ATOM      2  C   UNL     1       4.896   5.970  18.255  0.00  0.00    +0.000 C 
ATOM      3  O   UNL     1       4.092   6.376  17.414  0.00  0.00    +0.000 OA
ATOM      4  H   UNL     1       5.242   5.145  20.125  0.00  0.00    +0.000 HD
ENDROOT
BRANCH   1  10
ATOM      5  C   UNL     1       3.038   3.281  19.200  0.00  0.00    +0.000 A 
ATOM      6  C   UNL     1       1.782   2.709  19.466  0.00  0.00    +0.000 A 
ATOM      7  C   UNL     1       0.814   3.418  20.177  0.00  0.00    +0.000 A 
ATOM      8  C   UNL     1       1.080   4.711  20.598  0.00  0.00    +0.000 A 
ATOM      9  C   UNL     1       2.312   5.300  20.311  0.00  0.00    +0.000 A 
ATOM     10  C   UNL     1       3.312   4.598  19.628  0.00  0.00    +0.000 A 
BRANCH   5  12
ATOM     11  C   UNL     1       3.798   1.216  18.326  0.00  0.00    +0.000 C 
ATOM     12  O   UNL     1       4.037   2.612  18.525  0.00  0.00    +0.000 OA
ENDBRANCH   5  12
ENDBRANCH   1  10
BRANCH   2  13
ATOM     13  C   UNL     1       6.373   6.320  18.122  0.00  0.00    +0.000 C 
BRANCH  13  14
ATOM     14  S   UNL     1       7.362   4.829  17.769  0.00  0.00    +0.000 S 
BRANCH  14  15
ATOM     15  C   UNL     1       6.987   4.653  16.100  0.00  0.00    +0.000 A 
ATOM     16  N   UNL     1       6.115   3.820  15.589  0.00  0.00    +0.000 NA
ATOM     17  C   UNL     1       6.295   3.930  14.234  0.00  0.00    +0.000 A 
ATOM     18  C   UNL     1       5.653   3.249  13.191  0.00  0.00    +0.000 A 
ATOM     19  C   UNL     1       6.065   3.491  11.877  0.00  0.00    +0.000 A 
ATOM     20  C   UNL     1       7.090   4.401  11.603  0.00  0.00    +0.000 A 
ATOM     21  C   UNL     1       7.726   5.116  12.627  0.00  0.00    +0.000 A 
ATOM     22  C   UNL     1       7.297   4.850  13.931  0.00  0.00    +0.000 A 
ATOM     23  N   UNL     1       7.688   5.335  15.151  0.00  0.00    +0.000 N 
ATOM     24  H   UNL     1       8.414   6.013  15.334  0.00  0.00    +0.000 HD
ENDBRANCH  14  15
ENDBRANCH  13  14
ENDBRANCH   2  13
TORSDOF 5
ENDMDL
MODEL 2
REMARK VINA RESULT:      -7.6      3.037      5.145
REMARK  Name = 
REMARK  6 active torsions:
REMARK  status: ('A' for Active; 'I' for Inactive)
REMARK    1  A    between atoms: C_1  and  O_2
REMARK    2  A    between atoms: O_2  and  C_3
REMARK    3  A    between atoms: C_8  and  N_9
REMARK    4  A    between atoms: C_10  and  C_12
REMARK    5  A    between atoms: C_12  and  S_13
REMARK    6  A    between atoms: S_13  and  C_14
REMARK                            x       y       z     vdW  Elec       q    Type
REMARK                         _______ _______ _______ _____ _____    ______ ____
ROOT
ATOM      1  N   UNL     1       2.667   6.144  20.309  0.00  0.00    +0.000 N 
ATOM      2  C   UNL     1       2.151   4.867  20.132  0.00  0.00    +0.000 C 
ATOM      3  O   UNL     1       1.356   4.534  19.250  0.00  0.00    +0.000 OA
ATOM      4  H   UNL     1       3.515   6.247  20.862  0.00  0.00    +0.000 HD
ENDROOT
BRANCH   1  10
ATOM      5  C   UNL     1       1.481   8.287  20.231  0.00  0.00    +0.000 A 
ATOM      6  C   UNL     1       1.089   9.436  19.522  0.00  0.00    +0.000 A 
ATOM      7  C   UNL     1       1.507   9.638  18.207  0.00  0.00    +0.000 A 
ATOM      8  C   UNL     1       2.289   8.681  17.580  0.00  0.00    +0.000 A 
ATOM      9  C   UNL     1       2.656   7.520  18.263  0.00  0.00    +0.000 A 
ATOM     10  C   UNL     1       2.277   7.311  19.594  0.00  0.00    +0.000 A 
BRANCH   5  12
ATOM     11  C   UNL     1       1.045   9.224  22.361  0.00  0.00    +0.000 C 
ATOM     12  O   UNL     1       1.116   8.056  21.540  0.00  0.00    +0.000 OA
ENDBRANCH   5  12
ENDBRANCH   1  10
BRANCH   2  13
ATOM     13  C   UNL     1       2.631   3.837  21.147  0.00  0.00    +0.000 C 
BRANCH  13  14
ATOM     14  S   UNL     1       3.399   2.411  20.308  0.00  0.00    +0.000 S 
BRANCH  14  15
ATOM     15  C   UNL     1       4.417   3.264  19.216  0.00  0.00    +0.000 A 
ATOM     16  N   UNL     1       5.510   3.914  19.528  0.00  0.00    +0.000 NA
ATOM     17  C   UNL     1       5.865   4.556  18.369  0.00  0.00    +0.000 A 
ATOM     18  C   UNL     1       6.939   5.421  18.122  0.00  0.00    +0.000 A 
ATOM     19  C   UNL     1       7.050   6.010  16.859  0.00  0.00    +0.000 A 
ATOM     20  C   UNL     1       6.116   5.737  15.856  0.00  0.00    +0.000 A 
ATOM     21  C   UNL     1       5.051   4.852  16.070  0.00  0.00    +0.000 A 
ATOM     22  C   UNL     1       4.961   4.282  17.344  0.00  0.00    +0.000 A 
ATOM     23  N   UNL     1       4.069   3.408  17.907  0.00  0.00    +0.000 N 
ATOM     24  H   UNL     1       3.256   3.000  17.469  0.00  0.00    +0.000 HD
ENDBRANCH  14  15
ENDBRANCH  13  14
ENDBRANCH   2  13
TORSDOF 5
ENDMDL
MODEL 3
REMARK VINA RESULT:      -7.5      1.436      6.380
REMARK  Name = 
REMARK  6 active torsions:
REMARK  status: ('A' for Active; 'I' for Inactive)
REMARK    1  A    between atoms: C_1  and  O_2
REMARK    2  A    between atoms: O_2  and  C_3
REMARK    3  A    between atoms: C_8  and  N_9
REMARK    4  A    between atoms: C_10  and  C_12
REMARK    5  A    between atoms: C_12  and  S_13
REMARK    6  A    between atoms: S_13  and  C_14
REMARK                            x       y       z     vdW  Elec       q    Type
REMARK                         _______ _______ _______ _____ _____    ______ ____
ROOT
ATOM      1  N   UNL     1       7.481   5.503  15.949  0.00  0.00    +0.000 N 
ATOM      2  C   UNL     1       6.777   6.519  16.583  0.00  0.00    +0.000 C 
ATOM      3  O   UNL     1       5.717   7.007  16.188  0.00  0.00    +0.000 OA
ATOM      4  H   UNL     1       8.166   4.982  16.492  0.00  0.00    +0.000 HD
ENDROOT
BRANCH   1  10
ATOM      5  C   UNL     1       6.214   3.910  14.584  0.00  0.00    +0.000 A 
ATOM      6  C   UNL     1       5.916   3.349  13.330  0.00  0.00    +0.000 A 
ATOM      7  C   UNL     1       6.536   3.823  12.173  0.00  0.00    +0.000 A 
ATOM      8  C   UNL     1       7.480   4.834  12.264  0.00  0.00    +0.000 A 
ATOM      9  C   UNL     1       7.807   5.375  13.508  0.00  0.00    +0.000 A 
ATOM     10  C   UNL     1       7.175   4.940  14.679  0.00  0.00    +0.000 A 
BRANCH   5  12
ATOM     11  C   UNL     1       4.252   3.918  15.909  0.00  0.00    +0.000 C 
ATOM     12  O   UNL     1       5.609   3.495  15.751  0.00  0.00    +0.000 OA
ENDBRANCH   5  12
ENDBRANCH   1  10
BRANCH   2  13
ATOM     13  C   UNL     1       7.424   7.044  17.860  0.00  0.00    +0.000 C 
BRANCH  13  14
ATOM     14  S   UNL     1       7.693   5.690  19.052  0.00  0.00    +0.000 S 
BRANCH  14  15
ATOM     15  C   UNL     1       6.084   5.089  19.138  0.00  0.00    +0.000 A 
ATOM     16  N   UNL     1       5.012   5.790  19.411  0.00  0.00    +0.000 NA
ATOM     17  C   UNL     1       4.017   4.854  19.529  0.00  0.00    +0.000 A 
ATOM     18  C   UNL     1       2.662   5.029  19.842  0.00  0.00    +0.000 A 
ATOM     19  C   UNL     1       1.852   3.896  19.971  0.00  0.00    +0.000 A 
ATOM     20  C   UNL     1       2.375   2.614  19.782  0.00  0.00    +0.000 A 
ATOM     21  C   UNL     1       3.719   2.417  19.437  0.00  0.00    +0.000 A 
ATOM     22  C   UNL     1       4.507   3.566  19.321  0.00  0.00    +0.000 A 
ATOM     23  N   UNL     1       5.831   3.755  19.022  0.00  0.00    +0.000 N 
ATOM     24  H   UNL     1       6.520   3.043  18.828  0.00  0.00    +0.000 HD
ENDBRANCH  14  15
ENDBRANCH  13  14
ENDBRANCH   2  13
TORSDOF 5
ENDMDL
MODEL 4
REMARK VINA RESULT:      -7.5      1.990      6.520
REMARK  Name = 
REMARK  6 active torsions:
REMARK  status: ('A' for Active; 'I' for Inactive)
REMARK    1  A    between atoms: C_1  and  O_2
REMARK    2  A    between atoms: O_2  and  C_3
REMARK    3  A    between atoms: C_8  and  N_9
REMARK    4  A    between atoms: C_10  and  C_12
REMARK    5  A    between atoms: C_12  and  S_13
REMARK    6  A    between atoms: S_13  and  C_14
REMARK                            x       y       z     vdW  Elec       q    Type
REMARK                         _______ _______ _______ _____ _____    ______ ____
ROOT
ATOM      1  N   UNL     1       6.859   5.736  15.592  0.00  0.00    +0.000 N 
ATOM      2  C   UNL     1       7.496   5.293  16.744  0.00  0.00    +0.000 C 
ATOM      3  O   UNL     1       7.981   4.171  16.905  0.00  0.00    +0.000 OA
ATOM      4  H   UNL     1       6.760   6.739  15.453  0.00  0.00    +0.000 HD
ENDROOT
BRANCH   1  10
ATOM      5  C   UNL     1       7.409   4.935  13.342  0.00  0.00    +0.000 A 
ATOM      6  C   UNL     1       7.091   4.157  12.215  0.00  0.00    +0.000 A 
ATOM      7  C   UNL     1       5.942   3.365  12.199  0.00  0.00    +0.000 A 
ATOM      8  C   UNL     1       5.088   3.371  13.290  0.00  0.00    +0.000 A 
ATOM      9  C   UNL     1       5.377   4.165  14.400  0.00  0.00    +0.000 A 
ATOM     10  C   UNL     1       6.540   4.942  14.455  0.00  0.00    +0.000 A 
BRANCH   5  12
ATOM     11  C   UNL     1       8.867   6.425  12.220  0.00  0.00    +0.000 C 
ATOM     12  O   UNL     1       8.545   5.713  13.417  0.00  0.00    +0.000 OA
ENDBRANCH   5  12
ENDBRANCH   1  10
BRANCH   2  13
ATOM     13  C   UNL     1       7.561   6.315  17.872  0.00  0.00    +0.000 C 
BRANCH  13  14
ATOM     14  S   UNL     1       7.056   5.563  19.455  0.00  0.00    +0.000 S 
BRANCH  14  15
ATOM     15  C   UNL     1       5.558   4.881  18.958  0.00  0.00    +0.000 A 
ATOM     16  N   UNL     1       4.453   5.541  18.714  0.00  0.00    +0.000 NA
ATOM     17  C   UNL     1       3.511   4.563  18.522  0.00  0.00    +0.000 A 
ATOM     18  C   UNL     1       2.140   4.686  18.256  0.00  0.00    +0.000 A 
ATOM     19  C   UNL     1       1.367   3.524  18.166  0.00  0.00    +0.000 A 
ATOM     20  C   UNL     1       1.946   2.263  18.329  0.00  0.00    +0.000 A 
ATOM     21  C   UNL     1       3.320   2.114  18.565  0.00  0.00    +0.000 A 
ATOM     22  C   UNL     1       4.067   3.292  18.655  0.00  0.00    +0.000 A 
ATOM     23  N   UNL     1       5.397   3.530  18.887  0.00  0.00    +0.000 N 
ATOM     24  H   UNL     1       6.119   2.844  19.052  0.00  0.00    +0.000 HD
ENDBRANCH  14  15
ENDBRANCH  13  14
ENDBRANCH   2  13
TORSDOF 5
ENDMDL
MODEL 5
REMARK VINA RESULT:      -7.5      2.762      4.516
REMARK  Name = 
REMARK  6 active torsions:
REMARK  status: ('A' for Active; 'I' for Inactive)
REMARK    1  A    between atoms: C_1  and  O_2
REMARK    2  A    between atoms: O_2  and  C_3
REMARK    3  A    between atoms: C_8  and  N_9
REMARK    4  A    between atoms: C_10  and  C_12
REMARK    5  A    between atoms: C_12  and  S_13
REMARK    6  A    between atoms: S_13  and  C_14
REMARK                            x       y       z     vdW  Elec       q    Type
REMARK                         _______ _______ _______ _____ _____    ______ ____
ROOT
ATOM      1  N   UNL     1       2.699   5.992  20.386  0.00  0.00    +0.000 N 
ATOM      2  C   UNL     1       2.017   4.790  20.524  0.00  0.00    +0.000 C 
ATOM      3  O   UNL     1       0.853   4.587  20.174  0.00  0.00    +0.000 OA
ATOM      4  H   UNL     1       3.715   5.975  20.431  0.00  0.00    +0.000 HD
ENDROOT
BRANCH   1  10
ATOM      5  C   UNL     1       2.324   7.629  18.600  0.00  0.00    +0.000 A 
ATOM      6  C   UNL     1       1.781   8.849  18.161  0.00  0.00    +0.000 A 
ATOM      7  C   UNL     1       1.034   9.647  19.027  0.00  0.00    +0.000 A 
ATOM      8  C   UNL     1       0.854   9.252  20.343  0.00  0.00    +0.000 A 
ATOM      9  C   UNL     1       1.417   8.059  20.798  0.00  0.00    +0.000 A 
ATOM     10  C   UNL     1       2.142   7.224  19.940  0.00  0.00    +0.000 A 
BRANCH   5  12
ATOM     11  C   UNL     1       4.271   7.343  17.283  0.00  0.00    +0.000 C 
ATOM     12  O   UNL     1       3.046   6.793  17.775  0.00  0.00    +0.000 OA
ENDBRANCH   5  12
ENDBRANCH   1  10
BRANCH   2  13
ATOM     13  C   UNL     1       2.818   3.672  21.180  0.00  0.00    +0.000 C 
BRANCH  13  14
ATOM     14  S   UNL     1       3.089   2.299  20.011  0.00  0.00    +0.000 S 
BRANCH  14  15
ATOM     15  C   UNL     1       4.031   3.132  18.839  0.00  0.00    +0.000 A 
ATOM     16  N   UNL     1       3.758   3.239  17.563  0.00  0.00    +0.000 NA
ATOM     17  C   UNL     1       4.870   3.836  17.027  0.00  0.00    +0.000 A 
ATOM     18  C   UNL     1       5.148   4.169  15.694  0.00  0.00    +0.000 A 
ATOM     19  C   UNL     1       6.398   4.716  15.385  0.00  0.00    +0.000 A 
ATOM     20  C   UNL     1       7.350   4.936  16.384  0.00  0.00    +0.000 A 
ATOM     21  C   UNL     1       7.083   4.639  17.727  0.00  0.00    +0.000 A 
ATOM     22  C   UNL     1       5.829   4.089  18.006  0.00  0.00    +0.000 A 
ATOM     23  N   UNL     1       5.239   3.670  19.170  0.00  0.00    +0.000 N 
ATOM     24  H   UNL     1       5.642   3.680  20.096  0.00  0.00    +0.000 HD
ENDBRANCH  14  15
ENDBRANCH  13  14
ENDBRANCH   2  13
TORSDOF 5
ENDMDL
MODEL 6
REMARK VINA RESULT:      -7.5      3.097      4.943
REMARK  Name = 
REMARK  6 active torsions:
REMARK  status: ('A' for Active; 'I' for Inactive)
REMARK    1  A    between atoms: C_1  and  O_2
REMARK    2  A    between atoms: O_2  and  C_3
REMARK    3  A    between atoms: C_8  and  N_9
REMARK    4  A    between atoms: C_10  and  C_12
REMARK    5  A    between atoms: C_12  and  S_13
REMARK    6  A    between atoms: S_13  and  C_14
REMARK                            x       y       z     vdW  Elec       q    Type
REMARK                         _______ _______ _______ _____ _____    ______ ____
ROOT
ATOM      1  N   UNL     1       2.728   6.241  20.224  0.00  0.00    +0.000 N 
ATOM      2  C   UNL     1       2.137   4.984  20.197  0.00  0.00    +0.000 C 
ATOM      3  O   UNL     1       1.171   4.665  19.502  0.00  0.00    +0.000 OA
ATOM      4  H   UNL     1       3.672   6.320  20.595  0.00  0.00    +0.000 HD
ENDROOT
BRANCH   1  10
ATOM      5  C   UNL     1       1.451   8.333  20.263  0.00  0.00    +0.000 A 
ATOM      6  C   UNL     1       0.972   9.479  19.605  0.00  0.00    +0.000 A 
ATOM      7  C   UNL     1       1.305   9.726  18.273  0.00  0.00    +0.000 A 
ATOM      8  C   UNL     1       2.088   8.816  17.580  0.00  0.00    +0.000 A 
ATOM      9  C   UNL     1       2.542   7.658  18.214  0.00  0.00    +0.000 A 
ATOM     10  C   UNL     1       2.249   7.405  19.560  0.00  0.00    +0.000 A 
BRANCH   5  12
ATOM     11  C   UNL     1       1.033   9.210  22.422  0.00  0.00    +0.000 C 
ATOM     12  O   UNL     1       1.172   8.059  21.585  0.00  0.00    +0.000 OA
ENDBRANCH   5  12
ENDBRANCH   1  10
BRANCH   2  13
ATOM     13  C   UNL     1       2.768   3.961  21.133  0.00  0.00    +0.000 C 
BRANCH  13  14
ATOM     14  S   UNL     1       3.341   2.500  20.203  0.00  0.00    +0.000 S 
BRANCH  14  15
ATOM     15  C   UNL     1       4.207   3.306  18.955  0.00  0.00    +0.000 A 
ATOM     16  N   UNL     1       3.829   3.425  17.706  0.00  0.00    +0.000 NA
ATOM     17  C   UNL     1       4.910   3.986  17.077  0.00  0.00    +0.000 A 
ATOM     18  C   UNL     1       5.084   4.314  15.726  0.00  0.00    +0.000 A 
ATOM     19  C   UNL     1       6.320   4.821  15.312  0.00  0.00    +0.000 A 
ATOM     20  C   UNL     1       7.361   5.008  16.225  0.00  0.00    +0.000 A 
ATOM     21  C   UNL     1       7.200   4.716  17.586  0.00  0.00    +0.000 A 
ATOM     22  C   UNL     1       5.957   4.206  17.971  0.00  0.00    +0.000 A 
ATOM     23  N   UNL     1       5.455   3.803  19.181  0.00  0.00    +0.000 N 
ATOM     24  H   UNL     1       5.936   3.797  20.069  0.00  0.00    +0.000 HD
ENDBRANCH  14  15
ENDBRANCH  13  14
ENDBRANCH   2  13
TORSDOF 5
ENDMDL
MODEL 7
REMARK VINA RESULT:      -7.4      1.036      1.948
REMARK  Name = 
REMARK  6 active torsions:
REMARK  status: ('A' for Active; 'I' for Inactive)
REMARK    1  A    between atoms: C_1  and  O_2
REMARK    2  A    between atoms: O_2  and  C_3
REMARK    3  A    between atoms: C_8  and  N_9
REMARK    4  A    between atoms: C_10  and  C_12
REMARK    5  A    between atoms: C_12  and  S_13
REMARK    6  A    between atoms: S_13  and  C_14
REMARK                            x       y       z     vdW  Elec       q    Type
REMARK                         _______ _______ _______ _____ _____    ______ ____
ROOT
ATOM      1  N   UNL     1       4.642   4.679  18.703  0.00  0.00    +0.000 N 
ATOM      2  C   UNL     1       4.793   5.899  18.056  0.00  0.00    +0.000 C 
ATOM      3  O   UNL     1       3.891   6.525  17.497  0.00  0.00    +0.000 OA
ATOM      4  H   UNL     1       5.359   4.396  19.367  0.00  0.00    +0.000 HD
ENDROOT
BRANCH   1  10
ATOM      5  C   UNL     1       2.462   4.142  19.686  0.00  0.00    +0.000 A 
ATOM      6  C   UNL     1       1.300   3.351  19.712  0.00  0.00    +0.000 A 
ATOM      7  C   UNL     1       1.110   2.335  18.776  0.00  0.00    +0.000 A 
ATOM      8  C   UNL     1       2.091   2.080  17.830  0.00  0.00    +0.000 A 
ATOM      9  C   UNL     1       3.263   2.837  17.816  0.00  0.00    +0.000 A 
ATOM     10  C   UNL     1       3.463   3.883  18.724  0.00  0.00    +0.000 A 
BRANCH   5  12
ATOM     11  C   UNL     1       1.642   6.150  20.634  0.00  0.00    +0.000 C 
ATOM     12  O   UNL     1       2.684   5.174  20.573  0.00  0.00    +0.000 OA
ENDBRANCH   5  12
ENDBRANCH   1  10
BRANCH   2  13
ATOM     13  C   UNL     1       6.213   6.452  18.057  0.00  0.00    +0.000 C 
BRANCH  13  14
ATOM     14  S   UNL     1       7.421   5.134  17.697  0.00  0.00    +0.000 S 
BRANCH  14  15
ATOM     15  C   UNL     1       6.995   4.825  16.060  0.00  0.00    +0.000 A 
ATOM     16  N   UNL     1       6.100   3.964  15.644  0.00  0.00    +0.000 NA
ATOM     17  C   UNL     1       6.242   3.960  14.280  0.00  0.00    +0.000 A 
ATOM     18  C   UNL     1       5.562   3.203  13.316  0.00  0.00    +0.000 A 
ATOM     19  C   UNL     1       5.939   3.331  11.975  0.00  0.00    +0.000 A 
ATOM     20  C   UNL     1       6.965   4.202  11.598  0.00  0.00    +0.000 A 
ATOM     21  C   UNL     1       7.637   4.990  12.541  0.00  0.00    +0.000 A 
ATOM     22  C   UNL     1       7.244   4.839  13.874  0.00  0.00    +0.000 A 
ATOM     23  N   UNL     1       7.676   5.417  15.039  0.00  0.00    +0.000 N 
ATOM     24  H   UNL     1       8.413   6.099  15.144  0.00  0.00    +0.000 HD
ENDBRANCH  14  15
ENDBRANCH  13  14
ENDBRANCH   2  13
TORSDOF 5
ENDMDL
MODEL 8
REMARK VINA RESULT:      -7.4      2.797      4.760
REMARK  Name = 
REMARK  6 active torsions:
REMARK  status: ('A' for Active; 'I' for Inactive)
REMARK    1  A    between atoms: C_1  and  O_2
REMARK    2  A    between atoms: O_2  and  C_3
REMARK    3  A    between atoms: C_8  and  N_9
REMARK    4  A    between atoms: C_10  and  C_12
REMARK    5  A    between atoms: C_12  and  S_13
REMARK    6  A    between atoms: S_13  and  C_14
REMARK                            x       y       z     vdW  Elec       q    Type
REMARK                         _______ _______ _______ _____ _____    ______ ____
ROOT
ATOM      1  N   UNL     1       2.585   5.869  20.424  0.00  0.00    +0.000 N 
ATOM      2  C   UNL     1       1.862   4.691  20.561  0.00  0.00    +0.000 C 
ATOM      3  O   UNL     1       0.664   4.555  20.301  0.00  0.00    +0.000 OA
ATOM      4  H   UNL     1       3.599   5.807  20.382  0.00  0.00    +0.000 HD
ENDROOT
BRANCH   1  10
ATOM      5  C   UNL     1       2.214   7.648  18.779  0.00  0.00    +0.000 A 
ATOM      6  C   UNL     1       1.693   8.911  18.450  0.00  0.00    +0.000 A 
ATOM      7  C   UNL     1       0.986   9.658  19.393  0.00  0.00    +0.000 A 
ATOM      8  C   UNL     1       0.825   9.165  20.678  0.00  0.00    +0.000 A 
ATOM      9  C   UNL     1       1.367   7.927  21.026  0.00  0.00    +0.000 A 
ATOM     10  C   UNL     1       2.051   7.144  20.088  0.00  0.00    +0.000 A 
BRANCH   5  12
ATOM     11  C   UNL     1       3.992   7.506  17.223  0.00  0.00    +0.000 C 
ATOM     12  O   UNL     1       2.895   6.861  17.876  0.00  0.00    +0.000 OA
ENDBRANCH   5  12
ENDBRANCH   1  10
BRANCH   2  13
ATOM     13  C   UNL     1       2.661   3.507  21.091  0.00  0.00    +0.000 C 
BRANCH  13  14
ATOM     14  S   UNL     1       3.005   2.310  19.759  0.00  0.00    +0.000 S 
BRANCH  14  15
ATOM     15  C   UNL     1       4.273   3.156  18.964  0.00  0.00    +0.000 A 
ATOM     16  N   UNL     1       5.127   3.974  19.527  0.00  0.00    +0.000 NA
ATOM     17  C   UNL     1       5.818   4.518  18.475  0.00  0.00    +0.000 A 
ATOM     18  C   UNL     1       6.837   5.480  18.481  0.00  0.00    +0.000 A 
ATOM     19  C   UNL     1       7.344   5.929  17.257  0.00  0.00    +0.000 A 
ATOM     20  C   UNL     1       6.854   5.424  16.049  0.00  0.00    +0.000 A 
ATOM     21  C   UNL     1       5.857   4.439  16.020  0.00  0.00    +0.000 A 
ATOM     22  C   UNL     1       5.365   4.013  17.257  0.00  0.00    +0.000 A 
ATOM     23  N   UNL     1       4.404   3.102  17.609  0.00  0.00    +0.000 N 
ATOM     24  H   UNL     1       3.837   2.544  16.987  0.00  0.00    +0.000 HD
ENDBRANCH  14  15
ENDBRANCH  13  14
ENDBRANCH   2  13
TORSDOF 5
ENDMDL
MODEL 9
REMARK VINA RESULT:      -7.4      1.415      2.022
REMARK  Name = 
REMARK  6 active torsions:
REMARK  status: ('A' for Active; 'I' for Inactive)
REMARK    1  A    between atoms: C_1  and  O_2
REMARK    2  A    between atoms: O_2  and  C_3
REMARK    3  A    between atoms: C_8  and  N_9
REMARK    4  A    between atoms: C_10  and  C_12
REMARK    5  A    between atoms: C_12  and  S_13
REMARK    6  A    between atoms: S_13  and  C_14
REMARK                            x       y       z     vdW  Elec       q    Type
REMARK                         _______ _______ _______ _____ _____    ______ ____
ROOT
ATOM      1  N   UNL     1       4.981   3.718  18.538  0.00  0.00    +0.000 N 
ATOM      2  C   UNL     1       5.946   4.632  18.943  0.00  0.00    +0.000 C 
ATOM      3  O   UNL     1       5.855   5.381  19.917  0.00  0.00    +0.000 OA
ATOM      4  H   UNL     1       5.265   2.962  17.919  0.00  0.00    +0.000 HD
ENDROOT
BRANCH   1  10
ATOM      5  C   UNL     1       2.630   4.404  18.636  0.00  0.00    +0.000 A 
ATOM      6  C   UNL     1       1.345   4.269  19.189  0.00  0.00    +0.000 A 
ATOM      7  C   UNL     1       1.086   3.303  20.161  0.00  0.00    +0.000 A 
ATOM      8  C   UNL     1       2.114   2.489  20.611  0.00  0.00    +0.000 A 
ATOM      9  C   UNL     1       3.401   2.637  20.093  0.00  0.00    +0.000 A 
ATOM     10  C   UNL     1       3.678   3.576  19.093  0.00  0.00    +0.000 A 
BRANCH   5  12
ATOM     11  C   UNL     1       2.779   6.692  18.046  0.00  0.00    +0.000 C 
ATOM     12  O   UNL     1       2.929   5.325  17.655  0.00  0.00    +0.000 OA
ENDBRANCH   5  12
ENDBRANCH   1  10
BRANCH   2  13
ATOM     13  C   UNL     1       7.191   4.678  18.065  0.00  0.00    +0.000 C 
BRANCH  13  14
ATOM     14  S   UNL     1       7.201   6.184  17.036  0.00  0.00    +0.000 S 
BRANCH  14  15
ATOM     15  C   UNL     1       6.742   5.482  15.535  0.00  0.00    +0.000 A 
ATOM     16  N   UNL     1       5.646   4.803  15.303  0.00  0.00    +0.000 NA
ATOM     17  C   UNL     1       5.812   4.315  14.032  0.00  0.00    +0.000 A 
ATOM     18  C   UNL     1       4.966   3.495  13.275  0.00  0.00    +0.000 A 
ATOM     19  C   UNL     1       5.394   3.072  12.012  0.00  0.00    +0.000 A 
ATOM     20  C   UNL     1       6.637   3.465  11.508  0.00  0.00    +0.000 A 
ATOM     21  C   UNL     1       7.487   4.309  12.235  0.00  0.00    +0.000 A 
ATOM     22  C   UNL     1       7.036   4.713  13.495  0.00  0.00    +0.000 A 
ATOM     23  N   UNL     1       7.589   5.503  14.468  0.00  0.00    +0.000 N 
ATOM     24  H   UNL     1       8.489   5.959  14.444  0.00  0.00    +0.000 HD
ENDBRANCH  14  15
ENDBRANCH  13  14
ENDBRANCH   2  13
TORSDOF 5
ENDMDL
