MODEL 1
REMARK VINA RESULT:      -7.2      0.000      0.000
REMARK  Name = 
REMARK  3 active torsions:
REMARK  status: ('A' for Active; 'I' for Inactive)
REMARK    1  A    between atoms: C_1  and  C_2
REMARK    2  A    between atoms: C_2  and  N_3
REMARK    3  A    between atoms: C_2  and  C_16
REMARK                            x       y       z     vdW  Elec       q    Type
REMARK                         _______ _______ _______ _____ _____    ______ ____
ROOT
ATOM      1  N   UNL     1       4.252   6.397  18.326  0.00  0.00    +0.000 N 
ATOM      2  C   UNL     1       5.343   5.579  18.412  0.00  0.00    +0.000 C 
ATOM      3  O   UNL     1       5.602   4.919  19.412  0.00  0.00    +0.000 OA
ATOM      4  N   UNL     1       6.115   5.560  17.270  0.00  0.00    +0.000 N 
ATOM      5  C   UNL     1       7.330   4.780  17.191  0.00  0.00    +0.000 C 
ATOM      6  C   UNL     1       7.154   4.003  15.900  0.00  0.00    +0.000 C 
ATOM      7  C   UNL     1       6.386   4.971  14.965  0.00  0.00    +0.000 C 
ATOM      8  C   UNL     1       5.377   4.209  14.084  0.00  0.00    +0.000 C 
ATOM      9  C   UNL     1       6.084   3.396  13.013  0.00  0.00    +0.000 C 
ATOM     10  O   UNL     1       6.886   4.249  12.200  0.00  0.00    +0.000 OA
ATOM     11  C   UNL     1       7.917   4.900  12.940  0.00  0.00    +0.000 C 
ATOM     12  C   UNL     1       7.331   5.771  14.049  0.00  0.00    +0.000 C 
ATOM     13  C   UNL     1       5.640   5.902  15.940  0.00  0.00    +0.000 C 
ATOM     14  H   UNL     1       4.140   6.966  17.503  0.00  0.00    +0.000 HD
ENDROOT
BRANCH   1  16
ATOM     15  C   UNL     1       2.276   7.607  19.097  0.00  0.00    +0.000 C 
ATOM     16  C   UNL     1       3.145   6.357  19.255  0.00  0.00    +0.000 C 
BRANCH  16  17
ATOM     17  C   UNL     1       2.354   5.062  19.103  0.00  0.00    +0.000 A 
ATOM     18  C   UNL     1       1.898   4.722  17.814  0.00  0.00    +0.000 A 
ATOM     19  C   UNL     1       1.185   3.543  17.586  0.00  0.00    +0.000 A 
ATOM     20  C   UNL     1       0.914   2.691  18.647  0.00  0.00    +0.000 A 
ATOM     21  F   UNL     1       0.240   1.555  18.430  0.00  0.00    +0.000 F 
ATOM     22  C   UNL     1       1.328   3.003  19.932  0.00  0.00    +0.000 A 
ATOM     23  C   UNL     1       2.040   4.186  20.163  0.00  0.00    +0.000 A 
ATOM     24 CL   UNL     1       2.467   4.510  21.809  0.00  0.00    +0.000 Cl
ENDBRANCH  16  17
ENDBRANCH   1  16
TORSDOF 2
ENDMDL
MODEL 2
REMARK VINA RESULT:      -6.9      3.790      5.541
REMARK  Name = 
REMARK  3 active torsions:
REMARK  status: ('A' for Active; 'I' for Inactive)
REMARK    1  A    between atoms: C_1  and  C_2
REMARK    2  A    between atoms: C_2  and  N_3
REMARK    3  A    between atoms: C_2  and  C_16
REMARK                            x       y       z     vdW  Elec       q    Type
REMARK                         _______ _______ _______ _____ _____    ______ ____
ROOT
ATOM      1  N   UNL     1       2.242   7.326  20.335  0.00  0.00    +0.000 N 
ATOM      2  C   UNL     1       2.274   5.982  20.089  0.00  0.00    +0.000 C 
ATOM      3  O   UNL     1       1.301   5.254  20.247  0.00  0.00    +0.000 OA
ATOM      4  N   UNL     1       3.496   5.528  19.639  0.00  0.00    +0.000 N 
ATOM      5  C   UNL     1       3.727   4.128  19.362  0.00  0.00    +0.000 C 
ATOM      6  C   UNL     1       4.331   4.150  17.970  0.00  0.00    +0.000 C 
ATOM      7  C   UNL     1       5.174   5.451  17.933  0.00  0.00    +0.000 C 
ATOM      8  C   UNL     1       5.107   6.116  16.545  0.00  0.00    +0.000 C 
ATOM      9  C   UNL     1       5.894   5.323  15.515  0.00  0.00    +0.000 C 
ATOM     10  O   UNL     1       7.254   5.201  15.926  0.00  0.00    +0.000 OA
ATOM     11  C   UNL     1       7.392   4.490  17.155  0.00  0.00    +0.000 C 
ATOM     12  C   UNL     1       6.651   5.199  18.286  0.00  0.00    +0.000 C 
ATOM     13  C   UNL     1       4.498   6.352  18.984  0.00  0.00    +0.000 C 
ATOM     14  H   UNL     1       3.097   7.851  20.255  0.00  0.00    +0.000 HD
ENDROOT
BRANCH   1  16
ATOM     15  C   UNL     1       0.628   8.100  21.996  0.00  0.00    +0.000 C 
ATOM     16  C   UNL     1       1.021   8.079  20.518  0.00  0.00    +0.000 C 
BRANCH  16  17
ATOM     17  C   UNL     1       1.150   9.476  19.918  0.00  0.00    +0.000 A 
ATOM     18  C   UNL     1       0.762  10.569  20.719  0.00  0.00    +0.000 A 
ATOM     19  C   UNL     1       0.868  11.881  20.253  0.00  0.00    +0.000 A 
ATOM     20  C   UNL     1       1.359  12.116  18.976  0.00  0.00    +0.000 A 
ATOM     21  F   UNL     1       1.472  13.373  18.531  0.00  0.00    +0.000 F 
ATOM     22  C   UNL     1       1.731  11.065  18.153  0.00  0.00    +0.000 A 
ATOM     23  C   UNL     1       1.621   9.749  18.617  0.00  0.00    +0.000 A 
ATOM     24 CL   UNL     1       2.062   8.506  17.496  0.00  0.00    +0.000 Cl
ENDBRANCH  16  17
ENDBRANCH   1  16
TORSDOF 2
ENDMDL
MODEL 3
REMARK VINA RESULT:      -6.8      5.569      8.414
REMARK  Name = 
REMARK  3 active torsions:
REMARK  status: ('A' for Active; 'I' for Inactive)
REMARK    1  A    between atoms: C_1  and  C_2
REMARK    2  A    between atoms: C_2  and  N_3
REMARK    3  A    between atoms: C_2  and  C_16
REMARK                            x       y       z     vdW  Elec       q    Type
REMARK                         _______ _______ _______ _____ _____    ______ ____
ROOT
ATOM      1  N   UNL     1       0.341   9.503  20.475  0.00  0.00    +0.000 N 
ATOM      2  C   UNL     1       0.231  10.787  20.020  0.00  0.00    +0.000 C 
ATOM      3  O   UNL     1       1.120  11.619  20.157  0.00  0.00    +0.000 OA
ATOM      4  N   UNL     1      -0.964  11.052  19.386  0.00  0.00    +0.000 N 
ATOM      5  C   UNL     1      -1.273  12.367  18.872  0.00  0.00    +0.000 C 
ATOM      6  C   UNL     1      -1.713  12.083  17.447  0.00  0.00    +0.000 C 
ATOM      7  C   UNL     1      -2.441  10.718  17.531  0.00  0.00    +0.000 C 
ATOM      8  C   UNL     1      -2.166   9.864  16.277  0.00  0.00    +0.000 C 
ATOM      9  C   UNL     1      -2.893  10.419  15.063  0.00  0.00    +0.000 C 
ATOM     10  O   UNL     1      -4.295  10.471  15.313  0.00  0.00    +0.000 OA
ATOM     11  C   UNL     1      -4.626  11.338  16.396  0.00  0.00    +0.000 C 
ATOM     12  C   UNL     1      -3.963  10.877  17.692  0.00  0.00    +0.000 C 
ATOM     13  C   UNL     1      -1.818  10.049  18.771  0.00  0.00    +0.000 C 
ATOM     14  H   UNL     1      -0.456   8.893  20.394  0.00  0.00    +0.000 HD
ENDROOT
BRANCH   1  16
ATOM     15  C   UNL     1       1.620   8.754  22.415  0.00  0.00    +0.000 C 
ATOM     16  C   UNL     1       1.589   8.904  20.893  0.00  0.00    +0.000 C 
BRANCH  16  17
ATOM     17  C   UNL     1       1.832   7.588  20.162  0.00  0.00    +0.000 A 
ATOM     18  C   UNL     1       1.681   6.395  20.897  0.00  0.00    +0.000 A 
ATOM     19  C   UNL     1       1.865   5.147  20.297  0.00  0.00    +0.000 A 
ATOM     20  C   UNL     1       2.207   5.078  18.954  0.00  0.00    +0.000 A 
ATOM     21  F   UNL     1       2.374   3.883  18.373  0.00  0.00    +0.000 F 
ATOM     22  C   UNL     1       2.384   6.230  18.205  0.00  0.00    +0.000 A 
ATOM     23  C   UNL     1       2.205   7.482  18.806  0.00  0.00    +0.000 A 
ATOM     24 CL   UNL     1       2.499   8.860  17.800  0.00  0.00    +0.000 Cl
ENDBRANCH  16  17
ENDBRANCH   1  16
TORSDOF 2
ENDMDL
MODEL 4
REMARK VINA RESULT:      -6.5      4.468      6.317
REMARK  Name = 
REMARK  3 active torsions:
REMARK  status: ('A' for Active; 'I' for Inactive)
REMARK    1  A    between atoms: C_1  and  C_2
REMARK    2  A    between atoms: C_2  and  N_3
REMARK    3  A    between atoms: C_2  and  C_16
REMARK                            x       y       z     vdW  Elec       q    Type
REMARK                         _______ _______ _______ _____ _____    ______ ____
ROOT
ATOM      1  N   UNL     1       0.865   8.846  17.949  0.00  0.00    +0.000 N 
ATOM      2  C   UNL     1       2.220   8.703  17.856  0.00  0.00    +0.000 C 
ATOM      3  O   UNL     1       2.997   9.644  17.971  0.00  0.00    +0.000 OA
ATOM      4  N   UNL     1       2.629   7.406  17.633  0.00  0.00    +0.000 N 
ATOM      5  C   UNL     1       4.025   7.069  17.470  0.00  0.00    +0.000 C 
ATOM      6  C   UNL     1       4.216   5.919  18.441  0.00  0.00    +0.000 C 
ATOM      7  C   UNL     1       2.870   5.151  18.402  0.00  0.00    +0.000 C 
ATOM      8  C   UNL     1       2.500   4.609  19.796  0.00  0.00    +0.000 C 
ATOM      9  C   UNL     1       3.396   3.447  20.192  0.00  0.00    +0.000 C 
ATOM     10  O   UNL     1       3.298   2.403  19.227  0.00  0.00    +0.000 OA
ATOM     11  C   UNL     1       3.737   2.811  17.933  0.00  0.00    +0.000 C 
ATOM     12  C   UNL     1       2.899   3.975  17.409  0.00  0.00    +0.000 C 
ATOM     13  C   UNL     1       1.853   6.222  17.964  0.00  0.00    +0.000 C 
ATOM     14  H   UNL     1       0.283   8.045  17.772  0.00  0.00    +0.000 HD
ENDROOT
BRANCH   1  16
ATOM     15  C   UNL     1      -1.136  10.237  17.790  0.00  0.00    +0.000 C 
ATOM     16  C   UNL     1       0.217  10.028  18.473  0.00  0.00    +0.000 C 
BRANCH  16  17
ATOM     17  C   UNL     1       0.110   9.961  19.993  0.00  0.00    +0.000 A 
ATOM     18  C   UNL     1       0.445   8.744  20.619  0.00  0.00    +0.000 A 
ATOM     19  C   UNL     1       0.394   8.606  22.007  0.00  0.00    +0.000 A 
ATOM     20  C   UNL     1       0.001   9.684  22.788  0.00  0.00    +0.000 A 
ATOM     21  F   UNL     1      -0.038   9.558  24.120  0.00  0.00    +0.000 F 
ATOM     22  C   UNL     1      -0.355  10.890  22.206  0.00  0.00    +0.000 A 
ATOM     23  C   UNL     1      -0.309  11.029  20.814  0.00  0.00    +0.000 A 
ATOM     24 CL   UNL     1      -0.822  12.557  20.183  0.00  0.00    +0.000 Cl
ENDBRANCH  16  17
ENDBRANCH   1  16
TORSDOF 2
ENDMDL
MODEL 5
REMARK VINA RESULT:      -6.5      9.268     13.184
REMARK  Name = 
REMARK  3 active torsions:
REMARK  status: ('A' for Active; 'I' for Inactive)
REMARK    1  A    between atoms: C_1  and  C_2
REMARK    2  A    between atoms: C_2  and  N_3
REMARK    3  A    between atoms: C_2  and  C_16
REMARK                            x       y       z     vdW  Elec       q    Type
REMARK                         _______ _______ _______ _____ _____    ______ ____
ROOT
ATOM      1  N   UNL     1      -2.501  12.678  19.489  0.00  0.00    +0.000 N 
ATOM      2  C   UNL     1      -3.744  12.185  19.206  0.00  0.00    +0.000 C 
ATOM      3  O   UNL     1      -3.925  11.214  18.480  0.00  0.00    +0.000 OA
ATOM      4  N   UNL     1      -4.768  12.875  19.820  0.00  0.00    +0.000 N 
ATOM      5  C   UNL     1      -6.153  12.519  19.607  0.00  0.00    +0.000 C 
ATOM      6  C   UNL     1      -6.700  12.414  21.019  0.00  0.00    +0.000 C 
ATOM      7  C   UNL     1      -5.935  13.503  21.814  0.00  0.00    +0.000 C 
ATOM      8  C   UNL     1      -5.628  13.031  23.248  0.00  0.00    +0.000 C 
ATOM      9  C   UNL     1      -6.888  12.992  24.098  0.00  0.00    +0.000 C 
ATOM     10  O   UNL     1      -7.493  14.283  24.134  0.00  0.00    +0.000 OA
ATOM     11  C   UNL     1      -7.905  14.730  22.844  0.00  0.00    +0.000 C 
ATOM     12  C   UNL     1      -6.717  14.827  21.890  0.00  0.00    +0.000 C 
ATOM     13  C   UNL     1      -4.624  13.677  21.024  0.00  0.00    +0.000 C 
ATOM     14  H   UNL     1      -2.429  13.521  20.033  0.00  0.00    +0.000 HD
ENDROOT
BRANCH   1  16
ATOM     15  C   UNL     1      -0.208  12.918  18.684  0.00  0.00    +0.000 C 
ATOM     16  C   UNL     1      -1.274  11.961  19.220  0.00  0.00    +0.000 C 
BRANCH  16  17
ATOM     17  C   UNL     1      -0.813  11.190  20.453  0.00  0.00    +0.000 A 
ATOM     18  C   UNL     1      -1.280  11.627  21.709  0.00  0.00    +0.000 A 
ATOM     19  C   UNL     1      -0.923  10.964  22.885  0.00  0.00    +0.000 A 
ATOM     20  C   UNL     1      -0.088   9.857  22.819  0.00  0.00    +0.000 A 
ATOM     21  F   UNL     1       0.248   9.213  23.944  0.00  0.00    +0.000 F 
ATOM     22  C   UNL     1       0.407   9.411  21.604  0.00  0.00    +0.000 A 
ATOM     23  C   UNL     1       0.053  10.077  20.425  0.00  0.00    +0.000 A 
ATOM     24 CL   UNL     1       0.764   9.475  18.966  0.00  0.00    +0.000 Cl
ENDBRANCH  16  17
ENDBRANCH   1  16
TORSDOF 2
ENDMDL
MODEL 6
REMARK VINA RESULT:      -6.5      7.953     11.476
REMARK  Name = 
REMARK  3 active torsions:
REMARK  status: ('A' for Active; 'I' for Inactive)
REMARK    1  A    between atoms: C_1  and  C_2
REMARK    2  A    between atoms: C_2  and  N_3
REMARK    3  A    between atoms: C_2  and  C_16
REMARK                            x       y       z     vdW  Elec       q    Type
REMARK                         _______ _______ _______ _____ _____    ______ ____
ROOT
ATOM      1  N   UNL     1      -1.224  11.264  18.493  0.00  0.00    +0.000 N 
ATOM      2  C   UNL     1      -2.187  10.833  17.625  0.00  0.00    +0.000 C 
ATOM      3  O   UNL     1      -2.005   9.913  16.835  0.00  0.00    +0.000 OA
ATOM      4  N   UNL     1      -3.378  11.519  17.729  0.00  0.00    +0.000 N 
ATOM      5  C   UNL     1      -4.498  11.226  16.864  0.00  0.00    +0.000 C 
ATOM      6  C   UNL     1      -5.648  11.055  17.840  0.00  0.00    +0.000 C 
ATOM      7  C   UNL     1      -5.348  12.069  18.973  0.00  0.00    +0.000 C 
ATOM      8  C   UNL     1      -5.757  11.502  20.347  0.00  0.00    +0.000 C 
ATOM      9  C   UNL     1      -7.269  11.457  20.496  0.00  0.00    +0.000 C 
ATOM     10  O   UNL     1      -7.816  12.763  20.331  0.00  0.00    +0.000 OA
ATOM     11  C   UNL     1      -7.568  13.300  19.033  0.00  0.00    +0.000 C 
ATOM     12  C   UNL     1      -6.069  13.412  18.762  0.00  0.00    +0.000 C 
ATOM     13  C   UNL     1      -3.819  12.244  18.909  0.00  0.00    +0.000 C 
ATOM     14  H   UNL     1      -1.416  12.071  19.063  0.00  0.00    +0.000 HD
ENDROOT
BRANCH   1  16
ATOM     15  C   UNL     1       1.211  11.301  18.313  0.00  0.00    +0.000 C 
ATOM     16  C   UNL     1      -0.018  10.523  18.787  0.00  0.00    +0.000 C 
BRANCH  16  17
ATOM     17  C   UNL     1       0.048  10.155  20.266  0.00  0.00    +0.000 A 
ATOM     18  C   UNL     1      -0.691  10.945  21.170  0.00  0.00    +0.000 A 
ATOM     19  C   UNL     1      -0.702  10.662  22.537  0.00  0.00    +0.000 A 
ATOM     20  C   UNL     1       0.032   9.587  23.019  0.00  0.00    +0.000 A 
ATOM     21  F   UNL     1       0.015   9.308  24.328  0.00  0.00    +0.000 F 
ATOM     22  C   UNL     1       0.787   8.801  22.163  0.00  0.00    +0.000 A 
ATOM     23  C   UNL     1       0.802   9.086  20.793  0.00  0.00    +0.000 A 
ATOM     24 CL   UNL     1       1.816   8.078  19.816  0.00  0.00    +0.000 Cl
ENDBRANCH  16  17
ENDBRANCH   1  16
TORSDOF 2
ENDMDL
MODEL 7
REMARK VINA RESULT:      -6.4      4.123      7.971
REMARK  Name = 
REMARK  3 active torsions:
REMARK  status: ('A' for Active; 'I' for Inactive)
REMARK    1  A    between atoms: C_1  and  C_2
REMARK    2  A    between atoms: C_2  and  N_3
REMARK    3  A    between atoms: C_2  and  C_16
REMARK                            x       y       z     vdW  Elec       q    Type
REMARK                         _______ _______ _______ _____ _____    ______ ____
ROOT
ATOM      1  N   UNL     1       2.593   7.947  18.395  0.00  0.00    +0.000 N 
ATOM      2  C   UNL     1       1.435   8.552  17.995  0.00  0.00    +0.000 C 
ATOM      3  O   UNL     1       0.774   8.158  17.041  0.00  0.00    +0.000 OA
ATOM      4  N   UNL     1       1.077   9.635  18.769  0.00  0.00    +0.000 N 
ATOM      5  C   UNL     1      -0.100  10.421  18.473  0.00  0.00    +0.000 C 
ATOM      6  C   UNL     1      -0.818  10.479  19.809  0.00  0.00    +0.000 C 
ATOM      7  C   UNL     1       0.321  10.525  20.860  0.00  0.00    +0.000 C 
ATOM      8  C   UNL     1      -0.054   9.722  22.120  0.00  0.00    +0.000 C 
ATOM      9  C   UNL     1      -1.122  10.437  22.932  0.00  0.00    +0.000 C 
ATOM     10  O   UNL     1      -0.665  11.735  23.305  0.00  0.00    +0.000 OA
ATOM     11  C   UNL     1      -0.408  12.569  22.177  0.00  0.00    +0.000 C 
ATOM     12  C   UNL     1       0.669  11.964  21.280  0.00  0.00    +0.000 C 
ATOM     13  C   UNL     1       1.507   9.854  20.140  0.00  0.00    +0.000 C 
ATOM     14  H   UNL     1       3.123   8.367  19.140  0.00  0.00    +0.000 HD
ENDROOT
BRANCH   1  16
ATOM     15  C   UNL     1       4.533   6.586  17.806  0.00  0.00    +0.000 C 
ATOM     16  C   UNL     1       3.011   6.638  17.946  0.00  0.00    +0.000 C 
BRANCH  16  17
ATOM     17  C   UNL     1       2.462   5.549  18.863  0.00  0.00    +0.000 A 
ATOM     18  C   UNL     1       2.158   5.905  20.192  0.00  0.00    +0.000 A 
ATOM     19  C   UNL     1       1.632   4.973  21.089  0.00  0.00    +0.000 A 
ATOM     20  C   UNL     1       1.409   3.670  20.668  0.00  0.00    +0.000 A 
ATOM     21  F   UNL     1       0.895   2.776  21.523  0.00  0.00    +0.000 F 
ATOM     22  C   UNL     1       1.715   3.278  19.375  0.00  0.00    +0.000 A 
ATOM     23  C   UNL     1       2.246   4.209  18.476  0.00  0.00    +0.000 A 
ATOM     24 CL   UNL     1       2.643   3.609  16.901  0.00  0.00    +0.000 Cl
ENDBRANCH  16  17
ENDBRANCH   1  16
TORSDOF 2
ENDMDL
MODEL 8
REMARK VINA RESULT:      -6.3      4.229      7.646
REMARK  Name = 
REMARK  3 active torsions:
REMARK  status: ('A' for Active; 'I' for Inactive)
REMARK    1  A    between atoms: C_1  and  C_2
REMARK    2  A    between atoms: C_2  and  N_3
REMARK    3  A    between atoms: C_2  and  C_16
REMARK                            x       y       z     vdW  Elec       q    Type
REMARK                         _______ _______ _______ _____ _____    ______ ____
ROOT
ATOM      1  N   UNL     1       2.196   7.416  18.769  0.00  0.00    +0.000 N 
ATOM      2  C   UNL     1       2.389   8.628  18.169  0.00  0.00    +0.000 C 
ATOM      3  O   UNL     1       3.089   8.773  17.174  0.00  0.00    +0.000 OA
ATOM      4  N   UNL     1       1.715   9.664  18.779  0.00  0.00    +0.000 N 
ATOM      5  C   UNL     1       1.830  11.025  18.304  0.00  0.00    +0.000 C 
ATOM      6  C   UNL     1       0.383  11.466  18.177  0.00  0.00    +0.000 C 
ATOM      7  C   UNL     1      -0.346  10.747  19.340  0.00  0.00    +0.000 C 
ATOM      8  C   UNL     1      -1.762  10.306  18.920  0.00  0.00    +0.000 C 
ATOM      9  C   UNL     1      -2.694  11.499  18.790  0.00  0.00    +0.000 C 
ATOM     10  O   UNL     1      -2.757  12.208  20.025  0.00  0.00    +0.000 OA
ATOM     11  C   UNL     1      -1.492  12.742  20.414  0.00  0.00    +0.000 C 
ATOM     12  C   UNL     1      -0.459  11.632  20.594  0.00  0.00    +0.000 C 
ATOM     13  C   UNL     1       0.533   9.511  19.611  0.00  0.00    +0.000 C 
ATOM     14  H   UNL     1       1.668   7.381  19.625  0.00  0.00    +0.000 HD
ENDROOT
BRANCH   1  16
ATOM     15  C   UNL     1       3.976   6.191  17.632  0.00  0.00    +0.000 C 
ATOM     16  C   UNL     1       2.539   6.153  18.154  0.00  0.00    +0.000 C 
BRANCH  16  17
ATOM     17  C   UNL     1       2.288   4.995  19.115  0.00  0.00    +0.000 A 
ATOM     18  C   UNL     1       2.187   5.295  20.489  0.00  0.00    +0.000 A 
ATOM     19  C   UNL     1       1.938   4.296  21.432  0.00  0.00    +0.000 A 
ATOM     20  C   UNL     1       1.791   2.981  21.012  0.00  0.00    +0.000 A 
ATOM     21  F   UNL     1       1.541   2.022  21.913  0.00  0.00    +0.000 F 
ATOM     22  C   UNL     1       1.904   2.645  19.673  0.00  0.00    +0.000 A 
ATOM     23  C   UNL     1       2.159   3.645  18.726  0.00  0.00    +0.000 A 
ATOM     24 CL   UNL     1       2.334   3.117  17.087  0.00  0.00    +0.000 Cl
ENDBRANCH  16  17
ENDBRANCH   1  16
TORSDOF 2
ENDMDL
MODEL 9
REMARK VINA RESULT:      -6.3      4.859      6.982
REMARK  Name = 
REMARK  3 active torsions:
REMARK  status: ('A' for Active; 'I' for Inactive)
REMARK    1  A    between atoms: C_1  and  C_2
REMARK    2  A    between atoms: C_2  and  N_3
REMARK    3  A    between atoms: C_2  and  C_16
REMARK                            x       y       z     vdW  Elec       q    Type
REMARK                         _______ _______ _______ _____ _____    ______ ____
ROOT
ATOM      1  N   UNL     1       0.837  10.004  19.989  0.00  0.00    +0.000 N 
ATOM      2  C   UNL     1       0.808   8.946  20.853  0.00  0.00    +0.000 C 
ATOM      3  O   UNL     1       0.058   8.898  21.821  0.00  0.00    +0.000 OA
ATOM      4  N   UNL     1       1.691   7.938  20.527  0.00  0.00    +0.000 N 
ATOM      5  C   UNL     1       1.827   6.756  21.348  0.00  0.00    +0.000 C 
ATOM      6  C   UNL     1       1.700   5.626  20.343  0.00  0.00    +0.000 C 
ATOM      7  C   UNL     1       2.367   6.174  19.056  0.00  0.00    +0.000 C 
ATOM      8  C   UNL     1       1.623   5.690  17.796  0.00  0.00    +0.000 C 
ATOM      9  C   UNL     1       1.865   4.210  17.548  0.00  0.00    +0.000 C 
ATOM     10  O   UNL     1       3.261   3.959  17.409  0.00  0.00    +0.000 OA
ATOM     11  C   UNL     1       3.995   4.282  18.590  0.00  0.00    +0.000 C 
ATOM     12  C   UNL     1       3.845   5.760  18.943  0.00  0.00    +0.000 C 
ATOM     13  C   UNL     1       2.228   7.702  19.197  0.00  0.00    +0.000 C 
ATOM     14  H   UNL     1       1.528  10.011  19.258  0.00  0.00    +0.000 HD
ENDROOT
BRANCH   1  16
ATOM     15  C   UNL     1       0.456  12.413  19.861  0.00  0.00    +0.000 C 
ATOM     16  C   UNL     1      -0.185  11.026  19.939  0.00  0.00    +0.000 C 
BRANCH  16  17
ATOM     17  C   UNL     1      -1.163  10.760  18.799  0.00  0.00    +0.000 A 
ATOM     18  C   UNL     1      -0.744   9.900  17.764  0.00  0.00    +0.000 A 
ATOM     19  C   UNL     1      -1.587   9.588  16.695  0.00  0.00    +0.000 A 
ATOM     20  C   UNL     1      -2.860  10.138  16.645  0.00  0.00    +0.000 A 
ATOM     21  F   UNL     1      -3.674   9.833  15.627  0.00  0.00    +0.000 F 
ATOM     22  C   UNL     1      -3.299  11.005  17.633  0.00  0.00    +0.000 A 
ATOM     23  C   UNL     1      -2.454  11.322  18.703  0.00  0.00    +0.000 A 
ATOM     24 CL   UNL     1      -3.076  12.452  19.858  0.00  0.00    +0.000 Cl
ENDBRANCH  16  17
ENDBRANCH   1  16
TORSDOF 2
ENDMDL
