MODEL 1
REMARK VINA RESULT:      -5.1      0.000      0.000
REMARK  Name = 
REMARK  4 active torsions:
REMARK  status: ('A' for Active; 'I' for Inactive)
REMARK    1  A    between atoms: C_1  and  C_2
REMARK    2  A    between atoms: C_2  and  C_3
REMARK    3  A    between atoms: C_6  and  N_7
REMARK    4  A    between atoms: C_9  and  C_10
REMARK                            x       y       z     vdW  Elec       q    Type
REMARK                         _______ _______ _______ _____ _____    ______ ____
ROOT
ATOM      1  C   UNL     1       3.117   5.106  19.594  0.00  0.00    +0.000 A 
ATOM      2  C   UNL     1       4.455   4.902  19.261  0.00  0.00    +0.000 A 
ATOM      3  N   UNL     1       5.110   3.720  19.372  0.00  0.00    +0.000 NA
ATOM      4  C   UNL     1       4.408   2.681  19.841  0.00  0.00    +0.000 A 
ATOM      5  C   UNL     1       3.060   2.762  20.150  0.00  0.00    +0.000 A 
ATOM      6  C   UNL     1       2.385   3.983  20.016  0.00  0.00    +0.000 A 
ATOM      7  C   UNL     1       0.924   4.057  20.353  0.00  0.00    +0.000 C 
ENDROOT
BRANCH   4   8
ATOM      8  N   UNL     1       5.129   1.519  20.109  0.00  0.00    +0.000 N 
ATOM      9  H   UNL     1       4.848   0.827  19.422  0.00  0.00    +0.000 HD
ATOM     10  H   UNL     1       5.019   1.201  21.063  0.00  0.00    +0.000 HD
ENDBRANCH   4   8
BRANCH   1  12
ATOM     11  C   UNL     1       2.709   7.149  18.197  0.00  0.00    +0.000 C 
ATOM     12  C   UNL     1       2.557   6.504  19.571  0.00  0.00    +0.000 C 
ENDBRANCH   1  12
TORSDOF 2
ENDMDL
MODEL 2
REMARK VINA RESULT:      -5.1      0.930      2.806
REMARK  Name = 
REMARK  4 active torsions:
REMARK  status: ('A' for Active; 'I' for Inactive)
REMARK    1  A    between atoms: C_1  and  C_2
REMARK    2  A    between atoms: C_2  and  C_3
REMARK    3  A    between atoms: C_6  and  N_7
REMARK    4  A    between atoms: C_9  and  C_10
REMARK                            x       y       z     vdW  Elec       q    Type
REMARK                         _______ _______ _______ _____ _____    ______ ____
ROOT
ATOM      1  C   UNL     1       2.747   3.993  20.057  0.00  0.00    +0.000 A 
ATOM      2  C   UNL     1       3.642   2.927  19.998  0.00  0.00    +0.000 A 
ATOM      3  N   UNL     1       4.916   3.011  19.544  0.00  0.00    +0.000 NA
ATOM      4  C   UNL     1       5.331   4.211  19.121  0.00  0.00    +0.000 A 
ATOM      5  C   UNL     1       4.540   5.347  19.188  0.00  0.00    +0.000 A 
ATOM      6  C   UNL     1       3.228   5.256  19.675  0.00  0.00    +0.000 A 
ATOM      7  C   UNL     1       2.382   6.493  19.744  0.00  0.00    +0.000 C 
ENDROOT
BRANCH   4   8
ATOM      8  N   UNL     1       6.579   4.252  18.503  0.00  0.00    +0.000 N 
ATOM      9  H   UNL     1       6.518   4.924  17.745  0.00  0.00    +0.000 HD
ATOM     10  H   UNL     1       6.897   3.339  18.201  0.00  0.00    +0.000 HD
ENDBRANCH   4   8
BRANCH   1  12
ATOM     11  C   UNL     1       0.632   2.786  19.450  0.00  0.00    +0.000 C 
ATOM     12  C   UNL     1       1.312   3.729  20.437  0.00  0.00    +0.000 C 
ENDBRANCH   1  12
TORSDOF 2
ENDMDL
MODEL 3
REMARK VINA RESULT:      -5.1      1.758      3.113
REMARK  Name = 
REMARK  4 active torsions:
REMARK  status: ('A' for Active; 'I' for Inactive)
REMARK    1  A    between atoms: C_1  and  C_2
REMARK    2  A    between atoms: C_2  and  C_3
REMARK    3  A    between atoms: C_6  and  N_7
REMARK    4  A    between atoms: C_9  and  C_10
REMARK                            x       y       z     vdW  Elec       q    Type
REMARK                         _______ _______ _______ _____ _____    ______ ____
ROOT
ATOM      1  C   UNL     1       2.687   3.224  19.447  0.00  0.00    +0.000 A 
ATOM      2  C   UNL     1       3.928   2.930  20.009  0.00  0.00    +0.000 A 
ATOM      3  N   UNL     1       5.123   3.283  19.477  0.00  0.00    +0.000 NA
ATOM      4  C   UNL     1       5.094   3.962  18.324  0.00  0.00    +0.000 A 
ATOM      5  C   UNL     1       3.916   4.354  17.710  0.00  0.00    +0.000 A 
ATOM      6  C   UNL     1       2.683   3.999  18.275  0.00  0.00    +0.000 A 
ATOM      7  C   UNL     1       1.414   4.430  17.601  0.00  0.00    +0.000 C 
ENDROOT
BRANCH   4   8
ATOM      8  N   UNL     1       6.323   4.174  17.701  0.00  0.00    +0.000 N 
ATOM      9  H   UNL     1       6.614   5.120  17.925  0.00  0.00    +0.000 HD
ATOM     10  H   UNL     1       6.295   3.991  16.706  0.00  0.00    +0.000 HD
ENDBRANCH   4   8
BRANCH   1  12
ATOM     11  C   UNL     1       1.485   2.692  21.584  0.00  0.00    +0.000 C 
ATOM     12  C   UNL     1       1.442   2.637  20.061  0.00  0.00    +0.000 C 
ENDBRANCH   1  12
TORSDOF 2
ENDMDL
MODEL 4
REMARK VINA RESULT:      -5.0      3.896      4.849
REMARK  Name = 
REMARK  4 active torsions:
REMARK  status: ('A' for Active; 'I' for Inactive)
REMARK    1  A    between atoms: C_1  and  C_2
REMARK    2  A    between atoms: C_2  and  C_3
REMARK    3  A    between atoms: C_6  and  N_7
REMARK    4  A    between atoms: C_9  and  C_10
REMARK                            x       y       z     vdW  Elec       q    Type
REMARK                         _______ _______ _______ _____ _____    ______ ____
ROOT
ATOM      1  C   UNL     1       6.110   5.164  16.317  0.00  0.00    +0.000 A 
ATOM      2  C   UNL     1       7.242   4.414  16.628  0.00  0.00    +0.000 A 
ATOM      3  N   UNL     1       7.910   4.471  17.806  0.00  0.00    +0.000 NA
ATOM      4  C   UNL     1       7.437   5.318  18.729  0.00  0.00    +0.000 A 
ATOM      5  C   UNL     1       6.288   6.068  18.543  0.00  0.00    +0.000 A 
ATOM      6  C   UNL     1       5.592   5.991  17.328  0.00  0.00    +0.000 A 
ATOM      7  C   UNL     1       4.348   6.808  17.140  0.00  0.00    +0.000 C 
ENDROOT
BRANCH   4   8
ATOM      8  N   UNL     1       8.223   5.492  19.867  0.00  0.00    +0.000 N 
ATOM      9  H   UNL     1       8.414   6.485  19.950  0.00  0.00    +0.000 HD
ATOM     10  H   UNL     1       9.061   4.925  19.855  0.00  0.00    +0.000 HD
ENDBRANCH   4   8
BRANCH   1  12
ATOM     11  C   UNL     1       6.246   4.050  14.073  0.00  0.00    +0.000 C 
ATOM     12  C   UNL     1       5.558   5.119  14.915  0.00  0.00    +0.000 C 
ENDBRANCH   1  12
TORSDOF 2
ENDMDL
MODEL 5
REMARK VINA RESULT:      -5.0      1.371      1.467
REMARK  Name = 
REMARK  4 active torsions:
REMARK  status: ('A' for Active; 'I' for Inactive)
REMARK    1  A    between atoms: C_1  and  C_2
REMARK    2  A    between atoms: C_2  and  C_3
REMARK    3  A    between atoms: C_6  and  N_7
REMARK    4  A    between atoms: C_9  and  C_10
REMARK                            x       y       z     vdW  Elec       q    Type
REMARK                         _______ _______ _______ _____ _____    ______ ____
ROOT
ATOM      1  C   UNL     1       3.715   5.420  18.249  0.00  0.00    +0.000 A 
ATOM      2  C   UNL     1       4.988   5.247  18.788  0.00  0.00    +0.000 A 
ATOM      3  N   UNL     1       5.446   4.097  19.341  0.00  0.00    +0.000 NA
ATOM      4  C   UNL     1       4.600   3.060  19.366  0.00  0.00    +0.000 A 
ATOM      5  C   UNL     1       3.333   3.108  18.809  0.00  0.00    +0.000 A 
ATOM      6  C   UNL     1       2.872   4.296  18.223  0.00  0.00    +0.000 A 
ATOM      7  C   UNL     1       1.498   4.335  17.623  0.00  0.00    +0.000 C 
ENDROOT
BRANCH   4   8
ATOM      8  N   UNL     1       5.018   1.940  20.082  0.00  0.00    +0.000 N 
ATOM      9  H   UNL     1       4.530   1.138  19.697  0.00  0.00    +0.000 HD
ATOM     10  H   UNL     1       4.889   2.043  21.081  0.00  0.00    +0.000 HD
ENDBRANCH   4   8
BRANCH   1  12
ATOM     11  C   UNL     1       2.472   7.504  18.890  0.00  0.00    +0.000 C 
ATOM     12  C   UNL     1       3.281   6.795  17.809  0.00  0.00    +0.000 C 
ENDBRANCH   1  12
TORSDOF 2
ENDMDL
MODEL 6
REMARK VINA RESULT:      -5.0      1.592      1.603
REMARK  Name = 
REMARK  4 active torsions:
REMARK  status: ('A' for Active; 'I' for Inactive)
REMARK    1  A    between atoms: C_1  and  C_2
REMARK    2  A    between atoms: C_2  and  C_3
REMARK    3  A    between atoms: C_6  and  N_7
REMARK    4  A    between atoms: C_9  and  C_10
REMARK                            x       y       z     vdW  Elec       q    Type
REMARK                         _______ _______ _______ _____ _____    ______ ____
ROOT
ATOM      1  C   UNL     1       2.579   4.635  18.350  0.00  0.00    +0.000 A 
ATOM      2  C   UNL     1       3.514   4.139  17.443  0.00  0.00    +0.000 A 
ATOM      3  N   UNL     1       3.957   2.859  17.409  0.00  0.00    +0.000 NA
ATOM      4  C   UNL     1       3.452   2.019  18.322  0.00  0.00    +0.000 A 
ATOM      5  C   UNL     1       2.477   2.395  19.232  0.00  0.00    +0.000 A 
ATOM      6  C   UNL     1       2.011   3.717  19.250  0.00  0.00    +0.000 A 
ATOM      7  C   UNL     1       0.955   4.111  20.241  0.00  0.00    +0.000 C 
ENDROOT
BRANCH   4   8
ATOM      8  N   UNL     1       4.033   0.755  18.386  0.00  0.00    +0.000 N 
ATOM      9  H   UNL     1       3.299   0.098  18.630  0.00  0.00    +0.000 HD
ATOM     10  H   UNL     1       4.825   0.719  19.017  0.00  0.00    +0.000 HD
ENDBRANCH   4   8
BRANCH   1  12
ATOM     11  C   UNL     1       3.478   6.928  17.871  0.00  0.00    +0.000 C 
ATOM     12  C   UNL     1       2.291   6.114  18.378  0.00  0.00    +0.000 C 
ENDBRANCH   1  12
TORSDOF 2
ENDMDL
MODEL 7
REMARK VINA RESULT:      -4.9      1.893      2.814
REMARK  Name = 
REMARK  4 active torsions:
REMARK  status: ('A' for Active; 'I' for Inactive)
REMARK    1  A    between atoms: C_1  and  C_2
REMARK    2  A    between atoms: C_2  and  C_3
REMARK    3  A    between atoms: C_6  and  N_7
REMARK    4  A    between atoms: C_9  and  C_10
REMARK                            x       y       z     vdW  Elec       q    Type
REMARK                         _______ _______ _______ _____ _____    ______ ____
ROOT
ATOM      1  C   UNL     1       2.743   4.245  19.346  0.00  0.00    +0.000 A 
ATOM      2  C   UNL     1       3.668   5.199  19.765  0.00  0.00    +0.000 A 
ATOM      3  N   UNL     1       4.957   5.262  19.351  0.00  0.00    +0.000 NA
ATOM      4  C   UNL     1       5.358   4.331  18.476  0.00  0.00    +0.000 A 
ATOM      5  C   UNL     1       4.505   3.373  17.953  0.00  0.00    +0.000 A 
ATOM      6  C   UNL     1       3.168   3.324  18.374  0.00  0.00    +0.000 A 
ATOM      7  C   UNL     1       2.254   2.282  17.799  0.00  0.00    +0.000 C 
ENDROOT
BRANCH   4   8
ATOM      8  N   UNL     1       6.721   4.303  18.185  0.00  0.00    +0.000 N 
ATOM      9  H   UNL     1       7.066   3.387  18.454  0.00  0.00    +0.000 HD
ATOM     10  H   UNL     1       7.230   5.063  18.619  0.00  0.00    +0.000 HD
ENDBRANCH   4   8
BRANCH   1  12
ATOM     11  C   UNL     1       1.374   3.237  21.191  0.00  0.00    +0.000 C 
ATOM     12  C   UNL     1       1.388   4.194  20.003  0.00  0.00    +0.000 C 
ENDBRANCH   1  12
TORSDOF 2
ENDMDL
MODEL 8
REMARK VINA RESULT:      -4.9      3.293      4.100
REMARK  Name = 
REMARK  4 active torsions:
REMARK  status: ('A' for Active; 'I' for Inactive)
REMARK    1  A    between atoms: C_1  and  C_2
REMARK    2  A    between atoms: C_2  and  C_3
REMARK    3  A    between atoms: C_6  and  N_7
REMARK    4  A    between atoms: C_9  and  C_10
REMARK                            x       y       z     vdW  Elec       q    Type
REMARK                         _______ _______ _______ _____ _____    ______ ____
ROOT
ATOM      1  C   UNL     1       4.068   5.726  17.293  0.00  0.00    +0.000 A 
ATOM      2  C   UNL     1       4.811   6.766  16.738  0.00  0.00    +0.000 A 
ATOM      3  N   UNL     1       5.890   6.605  15.935  0.00  0.00    +0.000 NA
ATOM      4  C   UNL     1       6.261   5.347  15.666  0.00  0.00    +0.000 A 
ATOM      5  C   UNL     1       5.561   4.242  16.122  0.00  0.00    +0.000 A 
ATOM      6  C   UNL     1       4.435   4.417  16.938  0.00  0.00    +0.000 A 
ATOM      7  C   UNL     1       3.684   3.212  17.424  0.00  0.00    +0.000 C 
ENDROOT
BRANCH   4   8
ATOM      8  N   UNL     1       7.465   5.191  14.981  0.00  0.00    +0.000 N 
ATOM      9  H   UNL     1       8.128   5.844  15.386  0.00  0.00    +0.000 HD
ATOM     10  H   UNL     1       7.362   5.298  13.979  0.00  0.00    +0.000 HD
ENDBRANCH   4   8
BRANCH   1  12
ATOM     11  C   UNL     1       2.564   7.509  18.219  0.00  0.00    +0.000 C 
ATOM     12  C   UNL     1       2.987   6.045  18.294  0.00  0.00    +0.000 C 
ENDBRANCH   1  12
TORSDOF 2
ENDMDL
MODEL 9
REMARK VINA RESULT:      -4.9      2.669      4.158
REMARK  Name = 
REMARK  4 active torsions:
REMARK  status: ('A' for Active; 'I' for Inactive)
REMARK    1  A    between atoms: C_1  and  C_2
REMARK    2  A    between atoms: C_2  and  C_3
REMARK    3  A    between atoms: C_6  and  N_7
REMARK    4  A    between atoms: C_9  and  C_10
REMARK                            x       y       z     vdW  Elec       q    Type
REMARK                         _______ _______ _______ _____ _____    ______ ____
ROOT
ATOM      1  C   UNL     1       4.730   4.378  17.686  0.00  0.00    +0.000 A 
ATOM      2  C   UNL     1       4.827   4.587  19.060  0.00  0.00    +0.000 A 
ATOM      3  N   UNL     1       5.931   5.048  19.697  0.00  0.00    +0.000 NA
ATOM      4  C   UNL     1       7.000   5.316  18.938  0.00  0.00    +0.000 A 
ATOM      5  C   UNL     1       6.992   5.197  17.558  0.00  0.00    +0.000 A 
ATOM      6  C   UNL     1       5.841   4.735  16.904  0.00  0.00    +0.000 A 
ATOM      7  C   UNL     1       5.846   4.611  15.408  0.00  0.00    +0.000 C 
ENDROOT
BRANCH   4   8
ATOM      8  N   UNL     1       8.177   5.629  19.617  0.00  0.00    +0.000 N 
ATOM      9  H   UNL     1       8.303   4.926  20.338  0.00  0.00    +0.000 HD
ATOM     10  H   UNL     1       8.181   6.575  19.978  0.00  0.00    +0.000 HD
ENDBRANCH   4   8
BRANCH   1  12
ATOM     11  C   UNL     1       2.221   4.323  17.696  0.00  0.00    +0.000 C 
ATOM     12  C   UNL     1       3.498   3.714  17.126  0.00  0.00    +0.000 C 
ENDBRANCH   1  12
TORSDOF 2
ENDMDL
