MODEL 1
REMARK VINA RESULT:      -7.1      0.000      0.000
REMARK  Name = 
REMARK  7 active torsions:
REMARK  status: ('A' for Active; 'I' for Inactive)
REMARK    1  A    between atoms: C_1  and  C_2
REMARK    2  A    between atoms: C_2  and  S_3
REMARK    3  A    between atoms: S_3  and  N_6
REMARK    4  A    between atoms: N_6  and  C_7
REMARK    5  A    between atoms: C_7  and  C_8
REMARK    6  A    between atoms: C_8  and  C_9
REMARK    7  A    between atoms: C_8  and  N_16
REMARK                            x       y       z     vdW  Elec       q    Type
REMARK                         _______ _______ _______ _____ _____    ______ ____
ROOT
ATOM      1  C   UNL     1       3.680   5.324  18.969  0.00  0.00    +0.000 C 
ENDROOT
BRANCH   1   2
ATOM      2  C   UNL     1       2.888   6.626  18.890  0.00  0.00    +0.000 A 
ATOM      3  C   UNL     1       2.894   7.444  17.747  0.00  0.00    +0.000 A 
ATOM      4  C   UNL     1       2.255   8.690  17.760  0.00  0.00    +0.000 A 
ATOM      5  C   UNL     1       1.597   9.127  18.907  0.00  0.00    +0.000 A 
ATOM      6 CL   UNL     1       0.882  10.690  18.945  0.00  0.00    +0.000 Cl
ATOM      7  C   UNL     1       1.537   8.311  20.031  0.00  0.00    +0.000 A 
ATOM      8  C   UNL     1       2.171   7.066  20.018  0.00  0.00    +0.000 A 
ENDBRANCH   1   2
BRANCH   1   9
ATOM      9  N   UNL     1       2.787   4.159  19.073  0.00  0.00    +0.000 N 
ATOM     10  C   UNL     1       1.840   3.741  18.173  0.00  0.00    +0.000 A 
ATOM     11  C   UNL     1       1.425   2.513  18.629  0.00  0.00    +0.000 A 
ATOM     12  N   UNL     1       2.073   2.181  19.786  0.00  0.00    +0.000 NA
ATOM     13  C   UNL     1       2.885   3.186  20.032  0.00  0.00    +0.000 A 
ENDBRANCH   1   9
BRANCH   1  14
ATOM     14  C   UNL     1       4.694   5.138  17.814  0.00  0.00    +0.000 C 
BRANCH  14  15
ATOM     15  N   UNL     1       5.879   4.269  18.099  0.00  0.00    +0.000 NA
ATOM     16  H   UNL     1       5.788   3.889  19.045  0.00  0.00    +0.000 HD
BRANCH  15  17
ATOM     17  S   UNL     1       7.400   5.002  17.934  0.00  0.00    +0.000 S 
ATOM     18  O   UNL     1       8.122   4.196  16.978  0.00  0.00    +0.000 OA
ATOM     19  O   UNL     1       7.917   5.256  19.259  0.00  0.00    +0.000 OA
BRANCH  17  21
ATOM     20  C   UNL     1       7.735   7.706  17.734  0.00  0.00    +0.000 C 
ATOM     21  C   UNL     1       6.935   6.550  17.168  0.00  0.00    +0.000 C 
ENDBRANCH  17  21
ENDBRANCH  15  17
ENDBRANCH  14  15
ENDBRANCH   1  14
TORSDOF 6
ENDMDL
MODEL 2
REMARK VINA RESULT:      -7.1      0.794      1.539
REMARK  Name = 
REMARK  7 active torsions:
REMARK  status: ('A' for Active; 'I' for Inactive)
REMARK    1  A    between atoms: C_1  and  C_2
REMARK    2  A    between atoms: C_2  and  S_3
REMARK    3  A    between atoms: S_3  and  N_6
REMARK    4  A    between atoms: N_6  and  C_7
REMARK    5  A    between atoms: C_7  and  C_8
REMARK    6  A    between atoms: C_8  and  C_9
REMARK    7  A    between atoms: C_8  and  N_16
REMARK                            x       y       z     vdW  Elec       q    Type
REMARK                         _______ _______ _______ _____ _____    ______ ____
ROOT
ATOM      1  C   UNL     1       3.770   5.218  18.835  0.00  0.00    +0.000 C 
ENDROOT
BRANCH   1   2
ATOM      2  C   UNL     1       3.056   6.565  18.895  0.00  0.00    +0.000 A 
ATOM      3  C   UNL     1       2.285   6.962  20.000  0.00  0.00    +0.000 A 
ATOM      4  C   UNL     1       1.545   8.150  19.964  0.00  0.00    +0.000 A 
ATOM      5  C   UNL     1       1.575   8.958  18.830  0.00  0.00    +0.000 A 
ATOM      6 CL   UNL     1       0.603  10.375  18.758  0.00  0.00    +0.000 Cl
ATOM      7  C   UNL     1       2.370   8.608  17.744  0.00  0.00    +0.000 A 
ATOM      8  C   UNL     1       3.112   7.424  17.781  0.00  0.00    +0.000 A 
ENDBRANCH   1   2
BRANCH   1   9
ATOM      9  N   UNL     1       2.811   4.102  18.847  0.00  0.00    +0.000 N 
ATOM     10  C   UNL     1       2.527   3.246  19.880  0.00  0.00    +0.000 A 
ATOM     11  C   UNL     1       1.435   2.523  19.462  0.00  0.00    +0.000 A 
ATOM     12  N   UNL     1       1.060   2.897  18.202  0.00  0.00    +0.000 NA
ATOM     13  C   UNL     1       1.901   3.846  17.854  0.00  0.00    +0.000 A 
ENDBRANCH   1   9
BRANCH   1  14
ATOM     14  C   UNL     1       4.754   5.084  17.648  0.00  0.00    +0.000 C 
BRANCH  14  15
ATOM     15  N   UNL     1       5.961   4.228  17.874  0.00  0.00    +0.000 NA
ATOM     16  H   UNL     1       6.005   3.977  18.866  0.00  0.00    +0.000 HD
BRANCH  15  17
ATOM     17  S   UNL     1       7.449   4.894  17.400  0.00  0.00    +0.000 S 
ATOM     18  O   UNL     1       7.285   5.275  16.018  0.00  0.00    +0.000 OA
ATOM     19  O   UNL     1       8.494   3.990  17.822  0.00  0.00    +0.000 OA
BRANCH  17  21
ATOM     20  C   UNL     1       7.608   7.616  17.571  0.00  0.00    +0.000 C 
ATOM     21  C   UNL     1       7.487   6.366  18.417  0.00  0.00    +0.000 C 
ENDBRANCH  17  21
ENDBRANCH  15  17
ENDBRANCH  14  15
ENDBRANCH   1  14
TORSDOF 6
ENDMDL
MODEL 3
REMARK VINA RESULT:      -7.1      0.365      1.137
REMARK  Name = 
REMARK  7 active torsions:
REMARK  status: ('A' for Active; 'I' for Inactive)
REMARK    1  A    between atoms: C_1  and  C_2
REMARK    2  A    between atoms: C_2  and  S_3
REMARK    3  A    between atoms: S_3  and  N_6
REMARK    4  A    between atoms: N_6  and  C_7
REMARK    5  A    between atoms: C_7  and  C_8
REMARK    6  A    between atoms: C_8  and  C_9
REMARK    7  A    between atoms: C_8  and  N_16
REMARK                            x       y       z     vdW  Elec       q    Type
REMARK                         _______ _______ _______ _____ _____    ______ ____
ROOT
ATOM      1  C   UNL     1       3.535   5.251  18.855  0.00  0.00    +0.000 C 
ENDROOT
BRANCH   1   2
ATOM      2  C   UNL     1       2.842   6.601  19.015  0.00  0.00    +0.000 A 
ATOM      3  C   UNL     1       2.235   7.000  20.218  0.00  0.00    +0.000 A 
ATOM      4  C   UNL     1       1.504   8.191  20.287  0.00  0.00    +0.000 A 
ATOM      5  C   UNL     1       1.379   9.001  19.160  0.00  0.00    +0.000 A 
ATOM      6 CL   UNL     1       0.414  10.423  19.227  0.00  0.00    +0.000 Cl
ATOM      7  C   UNL     1       2.013   8.650  17.974  0.00  0.00    +0.000 A 
ATOM      8  C   UNL     1       2.747   7.462  17.906  0.00  0.00    +0.000 A 
ENDBRANCH   1   2
BRANCH   1   9
ATOM      9  N   UNL     1       2.575   4.141  18.966  0.00  0.00    +0.000 N 
ATOM     10  C   UNL     1       1.600   3.777  18.072  0.00  0.00    +0.000 A 
ATOM     11  C   UNL     1       1.117   2.576  18.533  0.00  0.00    +0.000 A 
ATOM     12  N   UNL     1       1.750   2.210  19.688  0.00  0.00    +0.000 NA
ATOM     13  C   UNL     1       2.620   3.165  19.927  0.00  0.00    +0.000 A 
ENDBRANCH   1   9
BRANCH   1  14
ATOM     14  C   UNL     1       4.371   5.127  17.559  0.00  0.00    +0.000 C 
BRANCH  14  15
ATOM     15  N   UNL     1       5.574   4.238  17.622  0.00  0.00    +0.000 NA
ATOM     16  H   UNL     1       5.491   3.632  18.442  0.00  0.00    +0.000 HD
BRANCH  15  17
ATOM     17  S   UNL     1       7.080   5.020  17.653  0.00  0.00    +0.000 S 
ATOM     18  O   UNL     1       7.845   4.440  16.575  0.00  0.00    +0.000 OA
ATOM     19  O   UNL     1       7.557   5.010  19.017  0.00  0.00    +0.000 OA
BRANCH  17  21
ATOM     20  C   UNL     1       7.671   7.686  17.561  0.00  0.00    +0.000 C 
ATOM     21  C   UNL     1       6.594   6.683  17.204  0.00  0.00    +0.000 C 
ENDBRANCH  17  21
ENDBRANCH  15  17
ENDBRANCH  14  15
ENDBRANCH   1  14
TORSDOF 6
ENDMDL
MODEL 4
REMARK VINA RESULT:      -7.0      1.491      2.268
REMARK  Name = 
REMARK  7 active torsions:
REMARK  status: ('A' for Active; 'I' for Inactive)
REMARK    1  A    between atoms: C_1  and  C_2
REMARK    2  A    between atoms: C_2  and  S_3
REMARK    3  A    between atoms: S_3  and  N_6
REMARK    4  A    between atoms: N_6  and  C_7
REMARK    5  A    between atoms: C_7  and  C_8
REMARK    6  A    between atoms: C_8  and  C_9
REMARK    7  A    between atoms: C_8  and  N_16
REMARK                            x       y       z     vdW  Elec       q    Type
REMARK                         _______ _______ _______ _____ _____    ______ ____
ROOT
ATOM      1  C   UNL     1       3.721   5.547  18.517  0.00  0.00    +0.000 C 
ENDROOT
BRANCH   1   2
ATOM      2  C   UNL     1       2.946   6.832  18.791  0.00  0.00    +0.000 A 
ATOM      3  C   UNL     1       2.281   7.068  20.006  0.00  0.00    +0.000 A 
ATOM      4  C   UNL     1       1.478   8.203  20.171  0.00  0.00    +0.000 A 
ATOM      5  C   UNL     1       1.339   9.118  19.130  0.00  0.00    +0.000 A 
ATOM      6 CL   UNL     1       0.290  10.469  19.309  0.00  0.00    +0.000 Cl
ATOM      7  C   UNL     1       2.028   8.930  17.937  0.00  0.00    +0.000 A 
ATOM      8  C   UNL     1       2.832   7.798  17.773  0.00  0.00    +0.000 A 
ENDBRANCH   1   2
BRANCH   1   9
ATOM      9  N   UNL     1       2.847   4.366  18.602  0.00  0.00    +0.000 N 
ATOM     10  C   UNL     1       2.753   3.459  19.626  0.00  0.00    +0.000 A 
ATOM     11  C   UNL     1       1.667   2.675  19.317  0.00  0.00    +0.000 A 
ATOM     12  N   UNL     1       1.113   3.061  18.129  0.00  0.00    +0.000 NA
ATOM     13  C   UNL     1       1.838   4.078  17.720  0.00  0.00    +0.000 A 
ENDBRANCH   1   9
BRANCH   1  14
ATOM     14  C   UNL     1       4.500   5.559  17.180  0.00  0.00    +0.000 C 
BRANCH  14  15
ATOM     15  N   UNL     1       5.923   6.021  17.240  0.00  0.00    +0.000 NA
ATOM     16  H   UNL     1       5.972   6.980  16.886  0.00  0.00    +0.000 HD
BRANCH  15  17
ATOM     17  S   UNL     1       7.054   5.062  16.415  0.00  0.00    +0.000 S 
ATOM     18  O   UNL     1       7.842   4.418  17.439  0.00  0.00    +0.000 OA
ATOM     19  O   UNL     1       7.662   5.877  15.388  0.00  0.00    +0.000 OA
BRANCH  17  21
ATOM     20  C   UNL     1       6.018   3.947  14.146  0.00  0.00    +0.000 C 
ATOM     21  C   UNL     1       5.971   3.857  15.657  0.00  0.00    +0.000 C 
ENDBRANCH  17  21
ENDBRANCH  15  17
ENDBRANCH  14  15
ENDBRANCH   1  14
TORSDOF 6
ENDMDL
MODEL 5
REMARK VINA RESULT:      -7.0      0.864      1.110
REMARK  Name = 
REMARK  7 active torsions:
REMARK  status: ('A' for Active; 'I' for Inactive)
REMARK    1  A    between atoms: C_1  and  C_2
REMARK    2  A    between atoms: C_2  and  S_3
REMARK    3  A    between atoms: S_3  and  N_6
REMARK    4  A    between atoms: N_6  and  C_7
REMARK    5  A    between atoms: C_7  and  C_8
REMARK    6  A    between atoms: C_8  and  C_9
REMARK    7  A    between atoms: C_8  and  N_16
REMARK                            x       y       z     vdW  Elec       q    Type
REMARK                         _______ _______ _______ _____ _____    ______ ____
ROOT
ATOM      1  C   UNL     1       3.611   5.711  18.661  0.00  0.00    +0.000 C 
ENDROOT
BRANCH   1   2
ATOM      2  C   UNL     1       2.725   6.940  18.840  0.00  0.00    +0.000 A 
ATOM      3  C   UNL     1       2.563   7.906  17.831  0.00  0.00    +0.000 A 
ATOM      4  C   UNL     1       1.842   9.080  18.079  0.00  0.00    +0.000 A 
ATOM      5  C   UNL     1       1.268   9.298  19.329  0.00  0.00    +0.000 A 
ATOM      6 CL   UNL     1       0.451  10.776  19.653  0.00  0.00    +0.000 Cl
ATOM      7  C   UNL     1       1.374   8.333  20.324  0.00  0.00    +0.000 A 
ATOM      8  C   UNL     1       2.091   7.159  20.077  0.00  0.00    +0.000 A 
ENDBRANCH   1   2
BRANCH   1   9
ATOM      9  N   UNL     1       2.816   4.473  18.662  0.00  0.00    +0.000 N 
ATOM     10  C   UNL     1       2.780   3.494  19.622  0.00  0.00    +0.000 A 
ATOM     11  C   UNL     1       1.748   2.664  19.255  0.00  0.00    +0.000 A 
ATOM     12  N   UNL     1       1.171   3.093  18.093  0.00  0.00    +0.000 NA
ATOM     13  C   UNL     1       1.829   4.180  17.757  0.00  0.00    +0.000 A 
ENDBRANCH   1   9
BRANCH   1  14
ATOM     14  C   UNL     1       4.526   5.776  17.415  0.00  0.00    +0.000 C 
BRANCH  14  15
ATOM     15  N   UNL     1       5.472   4.631  17.221  0.00  0.00    +0.000 NA
ATOM     16  H   UNL     1       5.329   3.955  17.976  0.00  0.00    +0.000 HD
BRANCH  15  17
ATOM     17  S   UNL     1       7.119   5.029  17.131  0.00  0.00    +0.000 S 
ATOM     18  O   UNL     1       7.527   4.709  15.784  0.00  0.00    +0.000 OA
ATOM     19  O   UNL     1       7.778   4.456  18.282  0.00  0.00    +0.000 OA
BRANCH  17  21
ATOM     20  C   UNL     1       8.074   7.308  18.296  0.00  0.00    +0.000 C 
ATOM     21  C   UNL     1       7.035   6.807  17.314  0.00  0.00    +0.000 C 
ENDBRANCH  17  21
ENDBRANCH  15  17
ENDBRANCH  14  15
ENDBRANCH   1  14
TORSDOF 6
ENDMDL
MODEL 6
REMARK VINA RESULT:      -6.9      0.947      1.246
REMARK  Name = 
REMARK  7 active torsions:
REMARK  status: ('A' for Active; 'I' for Inactive)
REMARK    1  A    between atoms: C_1  and  C_2
REMARK    2  A    between atoms: C_2  and  S_3
REMARK    3  A    between atoms: S_3  and  N_6
REMARK    4  A    between atoms: N_6  and  C_7
REMARK    5  A    between atoms: C_7  and  C_8
REMARK    6  A    between atoms: C_8  and  C_9
REMARK    7  A    between atoms: C_8  and  N_16
REMARK                            x       y       z     vdW  Elec       q    Type
REMARK                         _______ _______ _______ _____ _____    ______ ____
ROOT
ATOM      1  C   UNL     1       3.534   5.025  19.479  0.00  0.00    +0.000 C 
ENDROOT
BRANCH   1   2
ATOM      2  C   UNL     1       2.836   6.357  19.219  0.00  0.00    +0.000 A 
ATOM      3  C   UNL     1       2.949   7.042  17.997  0.00  0.00    +0.000 A 
ATOM      4  C   UNL     1       2.396   8.318  17.841  0.00  0.00    +0.000 A 
ATOM      5  C   UNL     1       1.719   8.920  18.899  0.00  0.00    +0.000 A 
ATOM      6 CL   UNL     1       1.110  10.520  18.731  0.00  0.00    +0.000 Cl
ATOM      7  C   UNL     1       1.553   8.240  20.100  0.00  0.00    +0.000 A 
ATOM      8  C   UNL     1       2.101   6.964  20.255  0.00  0.00    +0.000 A 
ENDBRANCH   1   2
BRANCH   1   9
ATOM      9  N   UNL     1       2.590   4.017  19.987  0.00  0.00    +0.000 N 
ATOM     10  C   UNL     1       2.498   3.515  21.260  0.00  0.00    +0.000 A 
ATOM     11  C   UNL     1       1.347   2.765  21.272  0.00  0.00    +0.000 A 
ATOM     12  N   UNL     1       0.749   2.776  20.042  0.00  0.00    +0.000 NA
ATOM     13  C   UNL     1       1.514   3.534  19.289  0.00  0.00    +0.000 A 
ENDBRANCH   1   9
BRANCH   1  14
ATOM     14  C   UNL     1       4.316   4.481  18.259  0.00  0.00    +0.000 C 
BRANCH  14  15
ATOM     15  N   UNL     1       5.723   4.037  18.512  0.00  0.00    +0.000 NA
ATOM     16  H   UNL     1       5.971   4.265  19.479  0.00  0.00    +0.000 HD
BRANCH  15  17
ATOM     17  S   UNL     1       6.904   4.668  17.469  0.00  0.00    +0.000 S 
ATOM     18  O   UNL     1       6.606   4.125  16.165  0.00  0.00    +0.000 OA
ATOM     19  O   UNL     1       8.194   4.482  18.093  0.00  0.00    +0.000 OA
BRANCH  17  21
ATOM     20  C   UNL     1       7.702   7.274  17.652  0.00  0.00    +0.000 C 
ATOM     21  C   UNL     1       6.472   6.404  17.498  0.00  0.00    +0.000 C 
ENDBRANCH  17  21
ENDBRANCH  15  17
ENDBRANCH  14  15
ENDBRANCH   1  14
TORSDOF 6
ENDMDL
MODEL 7
REMARK VINA RESULT:      -6.9      1.429      1.861
REMARK  Name = 
REMARK  7 active torsions:
REMARK  status: ('A' for Active; 'I' for Inactive)
REMARK    1  A    between atoms: C_1  and  C_2
REMARK    2  A    between atoms: C_2  and  S_3
REMARK    3  A    between atoms: S_3  and  N_6
REMARK    4  A    between atoms: N_6  and  C_7
REMARK    5  A    between atoms: C_7  and  C_8
REMARK    6  A    between atoms: C_8  and  C_9
REMARK    7  A    between atoms: C_8  and  N_16
REMARK                            x       y       z     vdW  Elec       q    Type
REMARK                         _______ _______ _______ _____ _____    ______ ____
ROOT
ATOM      1  C   UNL     1       3.470   5.885  18.954  0.00  0.00    +0.000 C 
ENDROOT
BRANCH   1   2
ATOM      2  C   UNL     1       2.589   7.131  18.976  0.00  0.00    +0.000 A 
ATOM      3  C   UNL     1       2.413   7.950  17.848  0.00  0.00    +0.000 A 
ATOM      4  C   UNL     1       1.697   9.149  17.942  0.00  0.00    +0.000 A 
ATOM      5  C   UNL     1       1.142   9.538  19.160  0.00  0.00    +0.000 A 
ATOM      6 CL   UNL     1       0.333  11.049  19.291  0.00  0.00    +0.000 Cl
ATOM      7  C   UNL     1       1.262   8.718  20.276  0.00  0.00    +0.000 A 
ATOM      8  C   UNL     1       1.974   7.518  20.181  0.00  0.00    +0.000 A 
ENDBRANCH   1   2
BRANCH   1   9
ATOM      9  N   UNL     1       2.664   4.661  18.829  0.00  0.00    +0.000 N 
ATOM     10  C   UNL     1       2.439   3.699  19.781  0.00  0.00    +0.000 A 
ATOM     11  C   UNL     1       1.474   2.880  19.246  0.00  0.00    +0.000 A 
ATOM     12  N   UNL     1       1.122   3.299  17.993  0.00  0.00    +0.000 NA
ATOM     13  C   UNL     1       1.851   4.369  17.766  0.00  0.00    +0.000 A 
ENDBRANCH   1   9
BRANCH   1  14
ATOM     14  C   UNL     1       4.581   5.925  17.878  0.00  0.00    +0.000 C 
BRANCH  14  15
ATOM     15  N   UNL     1       5.753   5.018  18.094  0.00  0.00    +0.000 NA
ATOM     16  H   UNL     1       6.218   5.284  18.966  0.00  0.00    +0.000 HD
BRANCH  15  17
ATOM     17  S   UNL     1       6.898   4.967  16.842  0.00  0.00    +0.000 S 
ATOM     18  O   UNL     1       8.032   4.251  17.378  0.00  0.00    +0.000 OA
ATOM     19  O   UNL     1       7.026   6.301  16.302  0.00  0.00    +0.000 OA
BRANCH  17  21
ATOM     20  C   UNL     1       6.459   4.250  14.243  0.00  0.00    +0.000 C 
ATOM     21  C   UNL     1       6.047   3.925  15.663  0.00  0.00    +0.000 C 
ENDBRANCH  17  21
ENDBRANCH  15  17
ENDBRANCH  14  15
ENDBRANCH   1  14
TORSDOF 6
ENDMDL
MODEL 8
REMARK VINA RESULT:      -6.9      1.487      1.895
REMARK  Name = 
REMARK  7 active torsions:
REMARK  status: ('A' for Active; 'I' for Inactive)
REMARK    1  A    between atoms: C_1  and  C_2
REMARK    2  A    between atoms: C_2  and  S_3
REMARK    3  A    between atoms: S_3  and  N_6
REMARK    4  A    between atoms: N_6  and  C_7
REMARK    5  A    between atoms: C_7  and  C_8
REMARK    6  A    between atoms: C_8  and  C_9
REMARK    7  A    between atoms: C_8  and  N_16
REMARK                            x       y       z     vdW  Elec       q    Type
REMARK                         _______ _______ _______ _____ _____    ______ ____
ROOT
ATOM      1  C   UNL     1       3.953   5.101  19.498  0.00  0.00    +0.000 C 
ENDROOT
BRANCH   1   2
ATOM      2  C   UNL     1       3.149   6.353  19.157  0.00  0.00    +0.000 A 
ATOM      3  C   UNL     1       3.342   7.072  17.966  0.00  0.00    +0.000 A 
ATOM      4  C   UNL     1       2.674   8.283  17.748  0.00  0.00    +0.000 A 
ATOM      5  C   UNL     1       1.800   8.783  18.711  0.00  0.00    +0.000 A 
ATOM      6 CL   UNL     1       1.043  10.308  18.476  0.00  0.00    +0.000 Cl
ATOM      7  C   UNL     1       1.558   8.062  19.875  0.00  0.00    +0.000 A 
ATOM      8  C   UNL     1       2.222   6.851  20.092  0.00  0.00    +0.000 A 
ENDBRANCH   1   2
BRANCH   1   9
ATOM      9  N   UNL     1       3.406   3.914  18.823  0.00  0.00    +0.000 N 
ATOM     10  C   UNL     1       3.333   2.631  19.302  0.00  0.00    +0.000 A 
ATOM     11  C   UNL     1       2.568   1.946  18.389  0.00  0.00    +0.000 A 
ATOM     12  N   UNL     1       2.194   2.764  17.360  0.00  0.00    +0.000 NA
ATOM     13  C   UNL     1       2.709   3.940  17.643  0.00  0.00    +0.000 A 
ENDBRANCH   1   9
BRANCH   1  14
ATOM     14  C   UNL     1       5.470   5.239  19.224  0.00  0.00    +0.000 C 
BRANCH  14  15
ATOM     15  N   UNL     1       6.095   4.177  18.374  0.00  0.00    +0.000 NA
ATOM     16  H   UNL     1       6.787   3.673  18.934  0.00  0.00    +0.000 HD
BRANCH  15  17
ATOM     17  S   UNL     1       6.818   4.704  16.932  0.00  0.00    +0.000 S 
ATOM     18  O   UNL     1       8.170   4.198  16.964  0.00  0.00    +0.000 OA
ATOM     19  O   UNL     1       6.537   6.114  16.783  0.00  0.00    +0.000 OA
BRANCH  17  21
ATOM     20  C   UNL     1       6.229   4.177  14.317  0.00  0.00    +0.000 C 
ATOM     21  C   UNL     1       5.869   3.776  15.732  0.00  0.00    +0.000 C 
ENDBRANCH  17  21
ENDBRANCH  15  17
ENDBRANCH  14  15
ENDBRANCH   1  14
TORSDOF 6
ENDMDL
MODEL 9
REMARK VINA RESULT:      -6.8      1.277      1.502
REMARK  Name = 
REMARK  7 active torsions:
REMARK  status: ('A' for Active; 'I' for Inactive)
REMARK    1  A    between atoms: C_1  and  C_2
REMARK    2  A    between atoms: C_2  and  S_3
REMARK    3  A    between atoms: S_3  and  N_6
REMARK    4  A    between atoms: N_6  and  C_7
REMARK    5  A    between atoms: C_7  and  C_8
REMARK    6  A    between atoms: C_8  and  C_9
REMARK    7  A    between atoms: C_8  and  N_16
REMARK                            x       y       z     vdW  Elec       q    Type
REMARK                         _______ _______ _______ _____ _____    ______ ____
ROOT
ATOM      1  C   UNL     1       3.486   5.392  19.099  0.00  0.00    +0.000 C 
ENDROOT
BRANCH   1   2
ATOM      2  C   UNL     1       2.736   6.717  18.996  0.00  0.00    +0.000 A 
ATOM      3  C   UNL     1       2.795   7.530  17.851  0.00  0.00    +0.000 A 
ATOM      4  C   UNL     1       2.194   8.795  17.843  0.00  0.00    +0.000 A 
ATOM      5  C   UNL     1       1.522   9.256  18.972  0.00  0.00    +0.000 A 
ATOM      6 CL   UNL     1       0.854  10.841  18.987  0.00  0.00    +0.000 Cl
ATOM      7  C   UNL     1       1.409   8.448  20.098  0.00  0.00    +0.000 A 
ATOM      8  C   UNL     1       2.005   7.183  20.105  0.00  0.00    +0.000 A 
ENDBRANCH   1   2
BRANCH   1   9
ATOM      9  N   UNL     1       2.556   4.258  19.213  0.00  0.00    +0.000 N 
ATOM     10  C   UNL     1       1.692   3.778  18.261  0.00  0.00    +0.000 A 
ATOM     11  C   UNL     1       1.201   2.603  18.778  0.00  0.00    +0.000 A 
ATOM     12  N   UNL     1       1.720   2.366  20.020  0.00  0.00    +0.000 NA
ATOM     13  C   UNL     1       2.530   3.373  20.259  0.00  0.00    +0.000 A 
ENDBRANCH   1   9
BRANCH   1  14
ATOM     14  C   UNL     1       4.501   5.158  17.955  0.00  0.00    +0.000 C 
BRANCH  14  15
ATOM     15  N   UNL     1       5.905   5.614  18.203  0.00  0.00    +0.000 NA
ATOM     16  H   UNL     1       5.910   6.634  18.284  0.00  0.00    +0.000 HD
BRANCH  15  17
ATOM     17  S   UNL     1       7.060   5.139  17.053  0.00  0.00    +0.000 S 
ATOM     18  O   UNL     1       8.014   4.326  17.769  0.00  0.00    +0.000 OA
ATOM     19  O   UNL     1       7.463   6.315  16.317  0.00  0.00    +0.000 OA
BRANCH  17  21
ATOM     20  C   UNL     1       6.093   4.563  14.564  0.00  0.00    +0.000 C 
ATOM     21  C   UNL     1       6.061   4.090  16.002  0.00  0.00    +0.000 C 
ENDBRANCH  17  21
ENDBRANCH  15  17
ENDBRANCH  14  15
ENDBRANCH   1  14
TORSDOF 6
ENDMDL
