MODEL 1
REMARK VINA RESULT:      -8.3      0.000      0.000
REMARK  Name = 
REMARK  13 active torsions:
REMARK  status: ('A' for Active; 'I' for Inactive)
REMARK    1  A    between atoms: C_1  and  O_2
REMARK    2  A    between atoms: O_2  and  C_3
REMARK    3  A    between atoms: C_6  and  C_7
REMARK    4  A    between atoms: C_8  and  C_9
REMARK    5  A    between atoms: C_9  and  C_11
REMARK    6  A    between atoms: C_20  and  O_21
REMARK    7  A    between atoms: N_24  and  C_25
REMARK    8  A    between atoms: C_25  and  C_26
REMARK    9  A    between atoms: C_26  and  N_27
REMARK   10  A    between atoms: N_27  and  C_28
REMARK   11  A    between atoms: N_27  and  C_29
REMARK   12  A    between atoms: C_31  and  O_32
REMARK   13  A    between atoms: O_32  and  C_33
REMARK                            x       y       z     vdW  Elec       q    Type
REMARK                         _______ _______ _______ _____ _____    ______ ____
ROOT
ATOM      1  C   UNL     1       3.242   5.666  18.435  0.00  0.00    +0.000 C 
ATOM      2  C   UNL     1       4.648   5.448  18.001  0.00  0.00    +0.000 C 
ATOM      3  C   UNL     1       5.262   4.504  18.750  0.00  0.00    +0.000 C 
ATOM      4  C   UNL     1       4.338   4.097  19.828  0.00  0.00    +0.000 C 
ATOM      5  O   UNL     1       4.588   3.298  20.722  0.00  0.00    +0.000 OA
ATOM      6  N   UNL     1       3.195   4.846  19.650  0.00  0.00    +0.000 N 
ENDROOT
BRANCH   1  10
ATOM      7  C   UNL     1       1.315   9.496  18.968  0.00  0.00    +0.000 A 
ATOM      8  C   UNL     1       1.911   9.135  17.754  0.00  0.00    +0.000 A 
ATOM      9  C   UNL     1       2.626   7.946  17.636  0.00  0.00    +0.000 A 
ATOM     10  C   UNL     1       2.754   7.070  18.721  0.00  0.00    +0.000 A 
ATOM     11  C   UNL     1       2.233   7.474  19.958  0.00  0.00    +0.000 A 
ATOM     12  C   UNL     1       1.527   8.686  20.098  0.00  0.00    +0.000 A 
BRANCH   7  14
ATOM     13  C   UNL     1       1.248  11.819  19.416  0.00  0.00    +0.000 C 
ATOM     14  O   UNL     1       0.546  10.627  19.063  0.00  0.00    +0.000 OA
ENDBRANCH   7  14
BRANCH  12  15
ATOM     15  O   UNL     1       1.081   8.879  21.380  0.00  0.00    +0.000 OA
ATOM     16  C   UNL     1      -0.289   8.647  21.672  0.00  0.00    +0.000 C 
ENDBRANCH  12  15
ENDBRANCH   1  10
BRANCH   2  17
ATOM     17  C   UNL     1       5.422   6.057  16.902  0.00  0.00    +0.000 C 
ATOM     18  O   UNL     1       5.828   7.205  17.135  0.00  0.00    +0.000 OA
BRANCH  17  19
ATOM     19  C   UNL     1       5.829   5.449  15.645  0.00  0.00    +0.000 A 
ATOM     20  C   UNL     1       5.161   4.387  15.054  0.00  0.00    +0.000 A 
ATOM     21  C   UNL     1       5.762   4.135  13.813  0.00  0.00    +0.000 A 
ATOM     22  C   UNL     1       5.476   3.264  12.746  0.00  0.00    +0.000 A 
ATOM     23  C   UNL     1       6.337   3.242  11.648  0.00  0.00    +0.000 A 
ATOM     24  C   UNL     1       7.473   4.053  11.627  0.00  0.00    +0.000 A 
ATOM     25  C   UNL     1       7.763   4.946  12.679  0.00  0.00    +0.000 A 
ATOM     26  C   UNL     1       6.865   4.982  13.749  0.00  0.00    +0.000 A 
ATOM     27  O   UNL     1       6.892   5.813  14.858  0.00  0.00    +0.000 OA
ENDBRANCH  17  19
ENDBRANCH   2  17
BRANCH   3  28
ATOM     28  O   UNL     1       6.516   3.969  18.623  0.00  0.00    +0.000 OA
ATOM     29  H   UNL     1       6.859   3.809  19.527  0.00  0.00    +0.000 HD
ENDBRANCH   3  28
BRANCH   6  30
ATOM     30  C   UNL     1       2.083   4.798  20.597  0.00  0.00    +0.000 C 
BRANCH  30  31
ATOM     31  C   UNL     1       0.857   4.012  20.107  0.00  0.00    +0.000 C 
BRANCH  31  32
ATOM     32  N   UNL     1       0.868   2.566  20.402  0.00  0.00    +0.000 NA
ATOM     33  C   UNL     1       1.561   1.815  19.351  0.00  0.00    +0.000 C 
ATOM     34  C   UNL     1       1.523   2.334  21.691  0.00  0.00    +0.000 C 
ENDBRANCH  31  32
ENDBRANCH  30  31
ENDBRANCH   6  30
TORSDOF 9
ENDMDL
MODEL 2
REMARK VINA RESULT:      -7.6      2.332      7.684
REMARK  Name = 
REMARK  13 active torsions:
REMARK  status: ('A' for Active; 'I' for Inactive)
REMARK    1  A    between atoms: C_1  and  O_2
REMARK    2  A    between atoms: O_2  and  C_3
REMARK    3  A    between atoms: C_6  and  C_7
REMARK    4  A    between atoms: C_8  and  C_9
REMARK    5  A    between atoms: C_9  and  C_11
REMARK    6  A    between atoms: C_20  and  O_21
REMARK    7  A    between atoms: N_24  and  C_25
REMARK    8  A    between atoms: C_25  and  C_26
REMARK    9  A    between atoms: C_26  and  N_27
REMARK   10  A    between atoms: N_27  and  C_28
REMARK   11  A    between atoms: N_27  and  C_29
REMARK   12  A    between atoms: C_31  and  O_32
REMARK   13  A    between atoms: O_32  and  C_33
REMARK                            x       y       z     vdW  Elec       q    Type
REMARK                         _______ _______ _______ _____ _____    ______ ____
ROOT
ATOM      1  C   UNL     1       4.146   4.649  19.546  0.00  0.00    +0.000 C 
ATOM      2  C   UNL     1       2.868   5.410  19.586  0.00  0.00    +0.000 C 
ATOM      3  C   UNL     1       1.846   4.648  20.038  0.00  0.00    +0.000 C 
ATOM      4  C   UNL     1       2.347   3.271  20.229  0.00  0.00    +0.000 C 
ATOM      5  O   UNL     1       1.677   2.307  20.578  0.00  0.00    +0.000 OA
ATOM      6  N   UNL     1       3.676   3.297  19.866  0.00  0.00    +0.000 N 
ENDROOT
BRANCH   1  10
ATOM      7  C   UNL     1       6.049   4.975  15.682  0.00  0.00    +0.000 A 
ATOM      8  C   UNL     1       5.020   4.056  15.919  0.00  0.00    +0.000 A 
ATOM      9  C   UNL     1       4.499   3.885  17.199  0.00  0.00    +0.000 A 
ATOM     10  C   UNL     1       4.973   4.640  18.279  0.00  0.00    +0.000 A 
ATOM     11  C   UNL     1       6.063   5.494  18.056  0.00  0.00    +0.000 A 
ATOM     12  C   UNL     1       6.617   5.659  16.770  0.00  0.00    +0.000 A 
BRANCH   7  14
ATOM     13  C   UNL     1       6.411   4.089  13.516  0.00  0.00    +0.000 C 
ATOM     14  O   UNL     1       6.509   5.199  14.409  0.00  0.00    +0.000 OA
ENDBRANCH   7  14
BRANCH  12  15
ATOM     15  O   UNL     1       7.655   6.555  16.767  0.00  0.00    +0.000 OA
ATOM     16  C   UNL     1       7.634   7.631  17.693  0.00  0.00    +0.000 C 
ENDBRANCH  12  15
ENDBRANCH   1  10
BRANCH   2  17
ATOM     17  C   UNL     1       2.573   6.817  19.254  0.00  0.00    +0.000 C 
ATOM     18  O   UNL     1       2.953   7.169  18.127  0.00  0.00    +0.000 OA
BRANCH  17  19
ATOM     19  C   UNL     1       1.830   7.789  20.040  0.00  0.00    +0.000 A 
ATOM     20  C   UNL     1       1.364   8.992  19.532  0.00  0.00    +0.000 A 
ATOM     21  C   UNL     1       0.607   9.619  20.532  0.00  0.00    +0.000 A 
ATOM     22  C   UNL     1      -0.174  10.788  20.581  0.00  0.00    +0.000 A 
ATOM     23  C   UNL     1      -0.771  11.148  21.789  0.00  0.00    +0.000 A 
ATOM     24  C   UNL     1      -0.571  10.371  22.932  0.00  0.00    +0.000 A 
ATOM     25  C   UNL     1       0.192   9.185  22.896  0.00  0.00    +0.000 A 
ATOM     26  C   UNL     1       0.745   8.822  21.665  0.00  0.00    +0.000 A 
ATOM     27  O   UNL     1       1.469   7.680  21.360  0.00  0.00    +0.000 OA
ENDBRANCH  17  19
ENDBRANCH   2  17
BRANCH   3  28
ATOM     28  O   UNL     1       0.545   4.992  20.290  0.00  0.00    +0.000 OA
ATOM     29  H   UNL     1       0.070   4.990  19.433  0.00  0.00    +0.000 HD
ENDBRANCH   3  28
BRANCH   6  30
ATOM     30  C   UNL     1       4.490   2.085  19.818  0.00  0.00    +0.000 C 
BRANCH  30  31
ATOM     31  C   UNL     1       4.947   1.565  21.192  0.00  0.00    +0.000 C 
BRANCH  31  32
ATOM     32  N   UNL     1       5.999   0.531  21.163  0.00  0.00    +0.000 NA
ATOM     33  C   UNL     1       6.232  -0.028  22.498  0.00  0.00    +0.000 C 
ATOM     34  C   UNL     1       5.611  -0.538  20.239  0.00  0.00    +0.000 C 
ENDBRANCH  31  32
ENDBRANCH  30  31
ENDBRANCH   6  30
TORSDOF 9
ENDMDL
MODEL 3
REMARK VINA RESULT:      -7.6      0.654      1.115
REMARK  Name = 
REMARK  13 active torsions:
REMARK  status: ('A' for Active; 'I' for Inactive)
REMARK    1  A    between atoms: C_1  and  O_2
REMARK    2  A    between atoms: O_2  and  C_3
REMARK    3  A    between atoms: C_6  and  C_7
REMARK    4  A    between atoms: C_8  and  C_9
REMARK    5  A    between atoms: C_9  and  C_11
REMARK    6  A    between atoms: C_20  and  O_21
REMARK    7  A    between atoms: N_24  and  C_25
REMARK    8  A    between atoms: C_25  and  C_26
REMARK    9  A    between atoms: C_26  and  N_27
REMARK   10  A    between atoms: N_27  and  C_28
REMARK   11  A    between atoms: N_27  and  C_29
REMARK   12  A    between atoms: C_31  and  O_32
REMARK   13  A    between atoms: O_32  and  C_33
REMARK                            x       y       z     vdW  Elec       q    Type
REMARK                         _______ _______ _______ _____ _____    ______ ____
ROOT
ATOM      1  C   UNL     1       3.131   5.712  18.422  0.00  0.00    +0.000 C 
ATOM      2  C   UNL     1       4.526   5.459  17.970  0.00  0.00    +0.000 C 
ATOM      3  C   UNL     1       5.131   4.511  18.722  0.00  0.00    +0.000 C 
ATOM      4  C   UNL     1       4.213   4.137  19.818  0.00  0.00    +0.000 C 
ATOM      5  O   UNL     1       4.459   3.344  20.719  0.00  0.00    +0.000 OA
ATOM      6  N   UNL     1       3.085   4.908  19.648  0.00  0.00    +0.000 N 
ENDROOT
BRANCH   1  10
ATOM      7  C   UNL     1       1.303   9.595  18.914  0.00  0.00    +0.000 A 
ATOM      8  C   UNL     1       1.909   9.215  17.712  0.00  0.00    +0.000 A 
ATOM      9  C   UNL     1       2.593   8.007  17.608  0.00  0.00    +0.000 A 
ATOM     10  C   UNL     1       2.678   7.130  18.696  0.00  0.00    +0.000 A 
ATOM     11  C   UNL     1       2.147   7.551  19.924  0.00  0.00    +0.000 A 
ATOM     12  C   UNL     1       1.473   8.783  20.049  0.00  0.00    +0.000 A 
BRANCH   7  14
ATOM     13  C   UNL     1      -0.829  10.604  18.714  0.00  0.00    +0.000 C 
ATOM     14  O   UNL     1       0.564  10.747  18.994  0.00  0.00    +0.000 OA
ENDBRANCH   7  14
BRANCH  12  15
ATOM     15  O   UNL     1       1.011   8.991  21.324  0.00  0.00    +0.000 OA
ATOM     16  C   UNL     1      -0.259   8.471  21.686  0.00  0.00    +0.000 C 
ENDBRANCH  12  15
ENDBRANCH   1  10
BRANCH   2  17
ATOM     17  C   UNL     1       5.297   6.037  16.853  0.00  0.00    +0.000 C 
ATOM     18  O   UNL     1       5.793   7.148  17.092  0.00  0.00    +0.000 OA
BRANCH  17  19
ATOM     19  C   UNL     1       5.609   5.431  15.568  0.00  0.00    +0.000 A 
ATOM     20  C   UNL     1       6.743   5.736  14.831  0.00  0.00    +0.000 A 
ATOM     21  C   UNL     1       6.771   4.892  13.712  0.00  0.00    +0.000 A 
ATOM     22  C   UNL     1       7.694   4.672  12.675  0.00  0.00    +0.000 A 
ATOM     23  C   UNL     1       7.371   3.761  11.668  0.00  0.00    +0.000 A 
ATOM     24  C   UNL     1       6.140   3.104  11.683  0.00  0.00    +0.000 A 
ATOM     25  C   UNL     1       5.211   3.297  12.726  0.00  0.00    +0.000 A 
ATOM     26  C   UNL     1       5.574   4.182  13.745  0.00  0.00    +0.000 A 
ATOM     27  O   UNL     1       4.872   4.486  14.901  0.00  0.00    +0.000 OA
ENDBRANCH  17  19
ENDBRANCH   2  17
BRANCH   3  28
ATOM     28  O   UNL     1       6.371   3.947  18.585  0.00  0.00    +0.000 OA
ATOM     29  H   UNL     1       6.319   3.035  18.939  0.00  0.00    +0.000 HD
ENDBRANCH   3  28
BRANCH   6  30
ATOM     30  C   UNL     1       1.985   4.897  20.611  0.00  0.00    +0.000 C 
BRANCH  30  31
ATOM     31  C   UNL     1       0.751   4.095  20.165  0.00  0.00    +0.000 C 
BRANCH  31  32
ATOM     32  N   UNL     1       0.789   2.650  20.460  0.00  0.00    +0.000 NA
ATOM     33  C   UNL     1       1.455   1.906  19.387  0.00  0.00    +0.000 C 
ATOM     34  C   UNL     1       1.491   2.427  21.727  0.00  0.00    +0.000 C 
ENDBRANCH  31  32
ENDBRANCH  30  31
ENDBRANCH   6  30
TORSDOF 9
ENDMDL
MODEL 4
REMARK VINA RESULT:      -7.6      4.313      8.392
REMARK  Name = 
REMARK  13 active torsions:
REMARK  status: ('A' for Active; 'I' for Inactive)
REMARK    1  A    between atoms: C_1  and  O_2
REMARK    2  A    between atoms: O_2  and  C_3
REMARK    3  A    between atoms: C_6  and  C_7
REMARK    4  A    between atoms: C_8  and  C_9
REMARK    5  A    between atoms: C_9  and  C_11
REMARK    6  A    between atoms: C_20  and  O_21
REMARK    7  A    between atoms: N_24  and  C_25
REMARK    8  A    between atoms: C_25  and  C_26
REMARK    9  A    between atoms: C_26  and  N_27
REMARK   10  A    between atoms: N_27  and  C_28
REMARK   11  A    between atoms: N_27  and  C_29
REMARK   12  A    between atoms: C_31  and  O_32
REMARK   13  A    between atoms: O_32  and  C_33
REMARK                            x       y       z     vdW  Elec       q    Type
REMARK                         _______ _______ _______ _____ _____    ______ ____
ROOT
ATOM      1  C   UNL     1       0.822  11.968  20.709  0.00  0.00    +0.000 C 
ATOM      2  C   UNL     1       1.158  11.477  19.345  0.00  0.00    +0.000 C 
ATOM      3  C   UNL     1       1.872  12.390  18.648  0.00  0.00    +0.000 C 
ATOM      4  C   UNL     1       1.971  13.619  19.462  0.00  0.00    +0.000 C 
ATOM      5  O   UNL     1       2.504  14.666  19.115  0.00  0.00    +0.000 OA
ATOM      6  N   UNL     1       1.288  13.357  20.629  0.00  0.00    +0.000 N 
ENDROOT
BRANCH   1  10
ATOM      7  C   UNL     1      -3.124  12.324  22.432  0.00  0.00    +0.000 A 
ATOM      8  C   UNL     1      -2.066  11.735  23.133  0.00  0.00    +0.000 A 
ATOM      9  C   UNL     1      -0.834  11.524  22.520  0.00  0.00    +0.000 A 
ATOM     10  C   UNL     1      -0.611  11.914  21.194  0.00  0.00    +0.000 A 
ATOM     11  C   UNL     1      -1.696  12.423  20.467  0.00  0.00    +0.000 A 
ATOM     12  C   UNL     1      -2.956  12.619  21.067  0.00  0.00    +0.000 A 
BRANCH   7  14
ATOM     13  C   UNL     1      -4.305  13.750  23.907  0.00  0.00    +0.000 C 
ATOM     14  O   UNL     1      -4.311  12.602  23.057  0.00  0.00    +0.000 OA
ENDBRANCH   7  14
BRANCH  12  15
ATOM     15  O   UNL     1      -3.869  13.148  20.191  0.00  0.00    +0.000 OA
ATOM     16  C   UNL     1      -4.770  12.273  19.528  0.00  0.00    +0.000 C 
ENDBRANCH  12  15
ENDBRANCH   1  10
BRANCH   2  17
ATOM     17  C   UNL     1       0.870  10.188  18.687  0.00  0.00    +0.000 C 
ATOM     18  O   UNL     1      -0.223  10.143  18.105  0.00  0.00    +0.000 OA
BRANCH  17  19
ATOM     19  C   UNL     1       1.736   9.026  18.571  0.00  0.00    +0.000 A 
ATOM     20  C   UNL     1       1.823   8.033  19.534  0.00  0.00    +0.000 A 
ATOM     21  C   UNL     1       2.666   7.027  19.043  0.00  0.00    +0.000 A 
ATOM     22  C   UNL     1       3.054   5.760  19.514  0.00  0.00    +0.000 A 
ATOM     23  C   UNL     1       3.972   5.017  18.769  0.00  0.00    +0.000 A 
ATOM     24  C   UNL     1       4.509   5.541  17.592  0.00  0.00    +0.000 A 
ATOM     25  C   UNL     1       4.116   6.801  17.095  0.00  0.00    +0.000 A 
ATOM     26  C   UNL     1       3.164   7.507  17.836  0.00  0.00    +0.000 A 
ATOM     27  O   UNL     1       2.572   8.721  17.525  0.00  0.00    +0.000 OA
ENDBRANCH  17  19
ENDBRANCH   2  17
BRANCH   3  28
ATOM     28  O   UNL     1       2.431  12.293  17.402  0.00  0.00    +0.000 OA
ATOM     29  H   UNL     1       2.992  11.490  17.393  0.00  0.00    +0.000 HD
ENDBRANCH   3  28
BRANCH   6  30
ATOM     30  C   UNL     1       1.073  14.382  21.648  0.00  0.00    +0.000 C 
BRANCH  30  31
ATOM     31  C   UNL     1       0.058  15.470  21.258  0.00  0.00    +0.000 C 
BRANCH  31  32
ATOM     32  N   UNL     1      -1.150  15.544  22.101  0.00  0.00    +0.000 NA
ATOM     33  C   UNL     1      -0.839  15.251  23.503  0.00  0.00    +0.000 C 
ATOM     34  C   UNL     1      -1.742  16.880  21.993  0.00  0.00    +0.000 C 
ENDBRANCH  31  32
ENDBRANCH  30  31
ENDBRANCH   6  30
TORSDOF 9
ENDMDL
MODEL 5
REMARK VINA RESULT:      -7.5      4.432      8.613
REMARK  Name = 
REMARK  13 active torsions:
REMARK  status: ('A' for Active; 'I' for Inactive)
REMARK    1  A    between atoms: C_1  and  O_2
REMARK    2  A    between atoms: O_2  and  C_3
REMARK    3  A    between atoms: C_6  and  C_7
REMARK    4  A    between atoms: C_8  and  C_9
REMARK    5  A    between atoms: C_9  and  C_11
REMARK    6  A    between atoms: C_20  and  O_21
REMARK    7  A    between atoms: N_24  and  C_25
REMARK    8  A    between atoms: C_25  and  C_26
REMARK    9  A    between atoms: C_26  and  N_27
REMARK   10  A    between atoms: N_27  and  C_28
REMARK   11  A    between atoms: N_27  and  C_29
REMARK   12  A    between atoms: C_31  and  O_32
REMARK   13  A    between atoms: O_32  and  C_33
REMARK                            x       y       z     vdW  Elec       q    Type
REMARK                         _______ _______ _______ _____ _____    ______ ____
ROOT
ATOM      1  C   UNL     1       0.857  11.928  20.747  0.00  0.00    +0.000 C 
ATOM      2  C   UNL     1       1.165  11.410  19.387  0.00  0.00    +0.000 C 
ATOM      3  C   UNL     1       1.902  12.290  18.672  0.00  0.00    +0.000 C 
ATOM      4  C   UNL     1       2.049  13.525  19.469  0.00  0.00    +0.000 C 
ATOM      5  O   UNL     1       2.612  14.550  19.106  0.00  0.00    +0.000 OA
ATOM      6  N   UNL     1       1.368  13.299  20.646  0.00  0.00    +0.000 N 
ENDROOT
BRANCH   1  10
ATOM      7  C   UNL     1      -3.058  12.432  22.500  0.00  0.00    +0.000 A 
ATOM      8  C   UNL     1      -2.015  11.813  23.197  0.00  0.00    +0.000 A 
ATOM      9  C   UNL     1      -0.797  11.556  22.576  0.00  0.00    +0.000 A 
ATOM     10  C   UNL     1      -0.572  11.927  21.245  0.00  0.00    +0.000 A 
ATOM     11  C   UNL     1      -1.646  12.466  20.522  0.00  0.00    +0.000 A 
ATOM     12  C   UNL     1      -2.893  12.710  21.132  0.00  0.00    +0.000 A 
BRANCH   7  14
ATOM     13  C   UNL     1      -4.266  12.484  24.536  0.00  0.00    +0.000 C 
ATOM     14  O   UNL     1      -4.230  12.756  23.134  0.00  0.00    +0.000 OA
ENDBRANCH   7  14
BRANCH  12  15
ATOM     15  O   UNL     1      -3.795  13.263  20.259  0.00  0.00    +0.000 OA
ATOM     16  C   UNL     1      -4.744  12.417  19.627  0.00  0.00    +0.000 C 
ENDBRANCH  12  15
ENDBRANCH   1  10
BRANCH   2  17
ATOM     17  C   UNL     1       0.829  10.123  18.747  0.00  0.00    +0.000 C 
ATOM     18  O   UNL     1      -0.222  10.136  18.089  0.00  0.00    +0.000 OA
BRANCH  17  19
ATOM     19  C   UNL     1       1.613   8.899  18.726  0.00  0.00    +0.000 A 
ATOM     20  C   UNL     1       2.406   8.513  17.655  0.00  0.00    +0.000 A 
ATOM     21  C   UNL     1       3.092   7.348  18.023  0.00  0.00    +0.000 A 
ATOM     22  C   UNL     1       4.083   6.561  17.410  0.00  0.00    +0.000 A 
ATOM     23  C   UNL     1       4.524   5.407  18.060  0.00  0.00    +0.000 A 
ATOM     24  C   UNL     1       3.968   5.035  19.285  0.00  0.00    +0.000 A 
ATOM     25  C   UNL     1       2.989   5.823  19.924  0.00  0.00    +0.000 A 
ATOM     26  C   UNL     1       2.594   6.996  19.274  0.00  0.00    +0.000 A 
ATOM     27  O   UNL     1       1.708   7.962  19.724  0.00  0.00    +0.000 OA
ENDBRANCH  17  19
ENDBRANCH   2  17
BRANCH   3  28
ATOM     28  O   UNL     1       2.447  12.160  17.422  0.00  0.00    +0.000 OA
ATOM     29  H   UNL     1       1.801  12.525  16.782  0.00  0.00    +0.000 HD
ENDBRANCH   3  28
BRANCH   6  30
ATOM     30  C   UNL     1       1.195  14.343  21.654  0.00  0.00    +0.000 C 
BRANCH  30  31
ATOM     31  C   UNL     1       0.214  15.459  21.259  0.00  0.00    +0.000 C 
BRANCH  31  32
ATOM     32  N   UNL     1       0.155  16.610  22.180  0.00  0.00    +0.000 NA
ATOM     33  C   UNL     1       1.371  17.425  22.091  0.00  0.00    +0.000 C 
ATOM     34  C   UNL     1      -1.016  17.432  21.863  0.00  0.00    +0.000 C 
ENDBRANCH  31  32
ENDBRANCH  30  31
ENDBRANCH   6  30
TORSDOF 9
ENDMDL
MODEL 6
REMARK VINA RESULT:      -7.5      4.453      8.431
REMARK  Name = 
REMARK  13 active torsions:
REMARK  status: ('A' for Active; 'I' for Inactive)
REMARK    1  A    between atoms: C_1  and  O_2
REMARK    2  A    between atoms: O_2  and  C_3
REMARK    3  A    between atoms: C_6  and  C_7
REMARK    4  A    between atoms: C_8  and  C_9
REMARK    5  A    between atoms: C_9  and  C_11
REMARK    6  A    between atoms: C_20  and  O_21
REMARK    7  A    between atoms: N_24  and  C_25
REMARK    8  A    between atoms: C_25  and  C_26
REMARK    9  A    between atoms: C_26  and  N_27
REMARK   10  A    between atoms: N_27  and  C_28
REMARK   11  A    between atoms: N_27  and  C_29
REMARK   12  A    between atoms: C_31  and  O_32
REMARK   13  A    between atoms: O_32  and  C_33
REMARK                            x       y       z     vdW  Elec       q    Type
REMARK                         _______ _______ _______ _____ _____    ______ ____
ROOT
ATOM      1  C   UNL     1       0.841  11.949  20.702  0.00  0.00    +0.000 C 
ATOM      2  C   UNL     1       1.161  11.416  19.350  0.00  0.00    +0.000 C 
ATOM      3  C   UNL     1       1.909  12.286  18.634  0.00  0.00    +0.000 C 
ATOM      4  C   UNL     1       2.051  13.529  19.421  0.00  0.00    +0.000 C 
ATOM      5  O   UNL     1       2.623  14.548  19.053  0.00  0.00    +0.000 OA
ATOM      6  N   UNL     1       1.357  13.317  20.592  0.00  0.00    +0.000 N 
ENDROOT
BRANCH   1  10
ATOM      7  C   UNL     1      -3.135  12.559  22.278  0.00  0.00    +0.000 A 
ATOM      8  C   UNL     1      -2.062  12.208  23.105  0.00  0.00    +0.000 A 
ATOM      9  C   UNL     1      -0.816  11.903  22.565  0.00  0.00    +0.000 A 
ATOM     10  C   UNL     1      -0.594  11.958  21.184  0.00  0.00    +0.000 A 
ATOM     11  C   UNL     1      -1.691  12.223  20.352  0.00  0.00    +0.000 A 
ATOM     12  C   UNL     1      -2.965  12.510  20.883  0.00  0.00    +0.000 A 
BRANCH   7  14
ATOM     13  C   UNL     1      -4.436  14.303  23.210  0.00  0.00    +0.000 C 
ATOM     14  O   UNL     1      -4.340  12.935  22.814  0.00  0.00    +0.000 OA
ENDBRANCH   7  14
BRANCH  12  15
ATOM     15  O   UNL     1      -3.888  12.764  19.902  0.00  0.00    +0.000 OA
ATOM     16  C   UNL     1      -3.945  11.904  18.774  0.00  0.00    +0.000 C 
ENDBRANCH  12  15
ENDBRANCH   1  10
BRANCH   2  17
ATOM     17  C   UNL     1       0.827  10.124  18.720  0.00  0.00    +0.000 C 
ATOM     18  O   UNL     1      -0.219  10.133  18.055  0.00  0.00    +0.000 OA
BRANCH  17  19
ATOM     19  C   UNL     1       1.609   8.898  18.716  0.00  0.00    +0.000 A 
ATOM     20  C   UNL     1       2.444   8.523  17.674  0.00  0.00    +0.000 A 
ATOM     21  C   UNL     1       3.113   7.352  18.056  0.00  0.00    +0.000 A 
ATOM     22  C   UNL     1       4.126   6.569  17.474  0.00  0.00    +0.000 A 
ATOM     23  C   UNL     1       4.538   5.407  18.128  0.00  0.00    +0.000 A 
ATOM     24  C   UNL     1       3.932   5.021  19.325  0.00  0.00    +0.000 A 
ATOM     25  C   UNL     1       2.930   5.805  19.933  0.00  0.00    +0.000 A 
ATOM     26  C   UNL     1       2.563   6.986  19.281  0.00  0.00    +0.000 A 
ATOM     27  O   UNL     1       1.662   7.949  19.706  0.00  0.00    +0.000 OA
ENDBRANCH  17  19
ENDBRANCH   2  17
BRANCH   3  28
ATOM     28  O   UNL     1       2.467  12.141  17.392  0.00  0.00    +0.000 OA
ATOM     29  H   UNL     1       2.965  12.962  17.197  0.00  0.00    +0.000 HD
ENDBRANCH   3  28
BRANCH   6  30
ATOM     30  C   UNL     1       1.178  14.372  21.587  0.00  0.00    +0.000 C 
BRANCH  30  31
ATOM     31  C   UNL     1       0.558  15.670  21.041  0.00  0.00    +0.000 C 
BRANCH  31  32
ATOM     32  N   UNL     1      -0.650  15.498  20.211  0.00  0.00    +0.000 NA
ATOM     33  C   UNL     1      -1.853  15.927  20.930  0.00  0.00    +0.000 C 
ATOM     34  C   UNL     1      -0.509  16.271  18.975  0.00  0.00    +0.000 C 
ENDBRANCH  31  32
ENDBRANCH  30  31
ENDBRANCH   6  30
TORSDOF 9
ENDMDL
MODEL 7
REMARK VINA RESULT:      -7.4      4.274      8.413
REMARK  Name = 
REMARK  13 active torsions:
REMARK  status: ('A' for Active; 'I' for Inactive)
REMARK    1  A    between atoms: C_1  and  O_2
REMARK    2  A    between atoms: O_2  and  C_3
REMARK    3  A    between atoms: C_6  and  C_7
REMARK    4  A    between atoms: C_8  and  C_9
REMARK    5  A    between atoms: C_9  and  C_11
REMARK    6  A    between atoms: C_20  and  O_21
REMARK    7  A    between atoms: N_24  and  C_25
REMARK    8  A    between atoms: C_25  and  C_26
REMARK    9  A    between atoms: C_26  and  N_27
REMARK   10  A    between atoms: N_27  and  C_28
REMARK   11  A    between atoms: N_27  and  C_29
REMARK   12  A    between atoms: C_31  and  O_32
REMARK   13  A    between atoms: O_32  and  C_33
REMARK                            x       y       z     vdW  Elec       q    Type
REMARK                         _______ _______ _______ _____ _____    ______ ____
ROOT
ATOM      1  C   UNL     1       0.897  11.943  20.620  0.00  0.00    +0.000 C 
ATOM      2  C   UNL     1       1.213  11.416  19.265  0.00  0.00    +0.000 C 
ATOM      3  C   UNL     1       1.906  12.315  18.529  0.00  0.00    +0.000 C 
ATOM      4  C   UNL     1       2.006  13.568  19.304  0.00  0.00    +0.000 C 
ATOM      5  O   UNL     1       2.522  14.610  18.918  0.00  0.00    +0.000 OA
ATOM      6  N   UNL     1       1.347  13.333  20.491  0.00  0.00    +0.000 N 
ENDROOT
BRANCH   1  10
ATOM      7  C   UNL     1      -3.010  12.290  22.430  0.00  0.00    +0.000 A 
ATOM      8  C   UNL     1      -1.944  11.672  23.095  0.00  0.00    +0.000 A 
ATOM      9  C   UNL     1      -0.727  11.467  22.452  0.00  0.00    +0.000 A 
ATOM     10  C   UNL     1      -0.526  11.889  21.132  0.00  0.00    +0.000 A 
ATOM     11  C   UNL     1      -1.621  12.427  20.440  0.00  0.00    +0.000 A 
ATOM     12  C   UNL     1      -2.867  12.618  21.071  0.00  0.00    +0.000 A 
BRANCH   7  14
ATOM     13  C   UNL     1      -4.115  12.507  24.513  0.00  0.00    +0.000 C 
ATOM     14  O   UNL     1      -4.182  12.561  23.087  0.00  0.00    +0.000 OA
ENDBRANCH   7  14
BRANCH  12  15
ATOM     15  O   UNL     1      -3.792  13.178  20.227  0.00  0.00    +0.000 OA
ATOM     16  C   UNL     1      -4.704  12.328  19.547  0.00  0.00    +0.000 C 
ENDBRANCH  12  15
ENDBRANCH   1  10
BRANCH   2  17
ATOM     17  C   UNL     1       0.927  10.106  18.650  0.00  0.00    +0.000 C 
ATOM     18  O   UNL     1      -0.183  10.027  18.104  0.00  0.00    +0.000 OA
BRANCH  17  19
ATOM     19  C   UNL     1       1.809   8.955  18.536  0.00  0.00    +0.000 A 
ATOM     20  C   UNL     1       1.930   7.981  19.516  0.00  0.00    +0.000 A 
ATOM     21  C   UNL     1       2.778   6.978  19.026  0.00  0.00    +0.000 A 
ATOM     22  C   UNL     1       3.195   5.726  19.511  0.00  0.00    +0.000 A 
ATOM     23  C   UNL     1       4.110   4.985  18.760  0.00  0.00    +0.000 A 
ATOM     24  C   UNL     1       4.616   5.496  17.564  0.00  0.00    +0.000 A 
ATOM     25  C   UNL     1       4.193   6.740  17.053  0.00  0.00    +0.000 A 
ATOM     26  C   UNL     1       3.245   7.445  17.800  0.00  0.00    +0.000 A 
ATOM     27  O   UNL     1       2.628   8.644  17.480  0.00  0.00    +0.000 OA
ENDBRANCH  17  19
ENDBRANCH   2  17
BRANCH   3  28
ATOM     28  O   UNL     1       2.443  12.187  17.276  0.00  0.00    +0.000 OA
ATOM     29  H   UNL     1       1.841  11.616  16.755  0.00  0.00    +0.000 HD
ENDBRANCH   3  28
BRANCH   6  30
ATOM     30  C   UNL     1       1.139  14.386  21.483  0.00  0.00    +0.000 C 
BRANCH  30  31
ATOM     31  C   UNL     1       2.432  14.980  22.067  0.00  0.00    +0.000 C 
BRANCH  31  32
ATOM     32  N   UNL     1       2.538  16.451  22.013  0.00  0.00    +0.000 NA
ATOM     33  C   UNL     1       3.742  16.871  21.289  0.00  0.00    +0.000 C 
ATOM     34  C   UNL     1       1.349  17.004  21.360  0.00  0.00    +0.000 C 
ENDBRANCH  31  32
ENDBRANCH  30  31
ENDBRANCH   6  30
TORSDOF 9
ENDMDL
MODEL 8
REMARK VINA RESULT:      -7.4      4.600      8.513
REMARK  Name = 
REMARK  13 active torsions:
REMARK  status: ('A' for Active; 'I' for Inactive)
REMARK    1  A    between atoms: C_1  and  O_2
REMARK    2  A    between atoms: O_2  and  C_3
REMARK    3  A    between atoms: C_6  and  C_7
REMARK    4  A    between atoms: C_8  and  C_9
REMARK    5  A    between atoms: C_9  and  C_11
REMARK    6  A    between atoms: C_20  and  O_21
REMARK    7  A    between atoms: N_24  and  C_25
REMARK    8  A    between atoms: C_25  and  C_26
REMARK    9  A    between atoms: C_26  and  N_27
REMARK   10  A    between atoms: N_27  and  C_28
REMARK   11  A    between atoms: N_27  and  C_29
REMARK   12  A    between atoms: C_31  and  O_32
REMARK   13  A    between atoms: O_32  and  C_33
REMARK                            x       y       z     vdW  Elec       q    Type
REMARK                         _______ _______ _______ _____ _____    ______ ____
ROOT
ATOM      1  C   UNL     1       0.125  11.416  20.261  0.00  0.00    +0.000 C 
ATOM      2  C   UNL     1       0.197  10.474  21.410  0.00  0.00    +0.000 C 
ATOM      3  C   UNL     1      -0.816  10.673  22.284  0.00  0.00    +0.000 C 
ATOM      4  C   UNL     1      -1.586  11.853  21.838  0.00  0.00    +0.000 C 
ATOM      5  O   UNL     1      -2.539  12.350  22.425  0.00  0.00    +0.000 OA
ATOM      6  N   UNL     1      -0.965  12.299  20.692  0.00  0.00    +0.000 N 
ENDROOT
BRANCH   1  10
ATOM      7  C   UNL     1       3.201  14.143  18.934  0.00  0.00    +0.000 A 
ATOM      8  C   UNL     1       2.574  13.257  18.051  0.00  0.00    +0.000 A 
ATOM      9  C   UNL     1       1.669  12.308  18.518  0.00  0.00    +0.000 A 
ATOM     10  C   UNL     1       1.345  12.225  19.877  0.00  0.00    +0.000 A 
ATOM     11  C   UNL     1       2.040  13.053  20.770  0.00  0.00    +0.000 A 
ATOM     12  C   UNL     1       2.977  14.003  20.314  0.00  0.00    +0.000 A 
BRANCH   7  14
ATOM     13  C   UNL     1       3.379  16.278  17.925  0.00  0.00    +0.000 C 
ATOM     14  O   UNL     1       4.032  15.128  18.465  0.00  0.00    +0.000 OA
ENDBRANCH   7  14
BRANCH  12  15
ATOM     15  O   UNL     1       3.523  14.726  21.344  0.00  0.00    +0.000 OA
ATOM     16  C   UNL     1       4.717  14.258  21.953  0.00  0.00    +0.000 C 
ENDBRANCH  12  15
ENDBRANCH   1  10
BRANCH   2  17
ATOM     17  C   UNL     1       1.146   9.382  21.703  0.00  0.00    +0.000 C 
ATOM     18  O   UNL     1       1.649   9.430  22.835  0.00  0.00    +0.000 OA
BRANCH  17  19
ATOM     19  C   UNL     1       1.482   8.238  20.872  0.00  0.00    +0.000 A 
ATOM     20  C   UNL     1       1.992   8.345  19.587  0.00  0.00    +0.000 A 
ATOM     21  C   UNL     1       2.295   7.054  19.134  0.00  0.00    +0.000 A 
ATOM     22  C   UNL     1       2.908   6.542  17.975  0.00  0.00    +0.000 A 
ATOM     23  C   UNL     1       3.013   5.159  17.825  0.00  0.00    +0.000 A 
ATOM     24  C   UNL     1       2.494   4.304  18.800  0.00  0.00    +0.000 A 
ATOM     25  C   UNL     1       1.896   4.799  19.977  0.00  0.00    +0.000 A 
ATOM     26  C   UNL     1       1.840   6.189  20.124  0.00  0.00    +0.000 A 
ATOM     27  O   UNL     1       1.368   6.912  21.209  0.00  0.00    +0.000 OA
ENDBRANCH  17  19
ENDBRANCH   2  17
BRANCH   3  28
ATOM     28  O   UNL     1      -1.144   9.974  23.415  0.00  0.00    +0.000 OA
ATOM     29  H   UNL     1      -1.265  10.625  24.137  0.00  0.00    +0.000 HD
ENDBRANCH   3  28
BRANCH   6  30
ATOM     30  C   UNL     1      -1.379  13.526  20.014  0.00  0.00    +0.000 C 
BRANCH  30  31
ATOM     31  C   UNL     1      -1.139  14.814  20.818  0.00  0.00    +0.000 C 
BRANCH  31  32
ATOM     32  N   UNL     1      -0.183  15.767  20.223  0.00  0.00    +0.000 NA
ATOM     33  C   UNL     1      -0.218  15.709  18.758  0.00  0.00    +0.000 C 
ATOM     34  C   UNL     1      -0.500  17.125  20.672  0.00  0.00    +0.000 C 
ENDBRANCH  31  32
ENDBRANCH  30  31
ENDBRANCH   6  30
TORSDOF 9
ENDMDL
MODEL 9
REMARK VINA RESULT:      -7.4      4.366      8.383
REMARK  Name = 
REMARK  13 active torsions:
REMARK  status: ('A' for Active; 'I' for Inactive)
REMARK    1  A    between atoms: C_1  and  O_2
REMARK    2  A    between atoms: O_2  and  C_3
REMARK    3  A    between atoms: C_6  and  C_7
REMARK    4  A    between atoms: C_8  and  C_9
REMARK    5  A    between atoms: C_9  and  C_11
REMARK    6  A    between atoms: C_20  and  O_21
REMARK    7  A    between atoms: N_24  and  C_25
REMARK    8  A    between atoms: C_25  and  C_26
REMARK    9  A    between atoms: C_26  and  N_27
REMARK   10  A    between atoms: N_27  and  C_28
REMARK   11  A    between atoms: N_27  and  C_29
REMARK   12  A    between atoms: C_31  and  O_32
REMARK   13  A    between atoms: O_32  and  C_33
REMARK                            x       y       z     vdW  Elec       q    Type
REMARK                         _______ _______ _______ _____ _____    ______ ____
ROOT
ATOM      1  C   UNL     1       0.989  11.835  20.568  0.00  0.00    +0.000 C 
ATOM      2  C   UNL     1       1.268  11.236  19.235  0.00  0.00    +0.000 C 
ATOM      3  C   UNL     1       1.984  12.074  18.451  0.00  0.00    +0.000 C 
ATOM      4  C   UNL     1       2.142  13.356  19.168  0.00  0.00    +0.000 C 
ATOM      5  O   UNL     1       2.691  14.359  18.730  0.00  0.00    +0.000 OA
ATOM      6  N   UNL     1       1.490  13.200  20.371  0.00  0.00    +0.000 N 
ENDROOT
BRANCH   1  10
ATOM      7  C   UNL     1      -2.912  12.469  22.311  0.00  0.00    +0.000 A 
ATOM      8  C   UNL     1      -1.826  12.035  23.079  0.00  0.00    +0.000 A 
ATOM      9  C   UNL     1      -0.608  11.726  22.480  0.00  0.00    +0.000 A 
ATOM     10  C   UNL     1      -0.428  11.858  21.098  0.00  0.00    +0.000 A 
ATOM     11  C   UNL     1      -1.542  12.207  20.321  0.00  0.00    +0.000 A 
ATOM     12  C   UNL     1      -2.788  12.500  20.911  0.00  0.00    +0.000 A 
BRANCH   7  14
ATOM     13  C   UNL     1      -4.163  12.615  24.316  0.00  0.00    +0.000 C 
ATOM     14  O   UNL     1      -4.087  12.847  22.909  0.00  0.00    +0.000 OA
ENDBRANCH   7  14
BRANCH  12  15
ATOM     15  O   UNL     1      -3.734  12.842  19.979  0.00  0.00    +0.000 OA
ATOM     16  C   UNL     1      -3.922  11.998  18.852  0.00  0.00    +0.000 C 
ENDBRANCH  12  15
ENDBRANCH   1  10
BRANCH   2  17
ATOM     17  C   UNL     1       0.925   9.911  18.683  0.00  0.00    +0.000 C 
ATOM     18  O   UNL     1      -0.154   9.874  18.074  0.00  0.00    +0.000 OA
BRANCH  17  19
ATOM     19  C   UNL     1       1.727   8.699  18.694  0.00  0.00    +0.000 A 
ATOM     20  C   UNL     1       2.545   8.309  17.645  0.00  0.00    +0.000 A 
ATOM     21  C   UNL     1       3.241   7.159  18.043  0.00  0.00    +0.000 A 
ATOM     22  C   UNL     1       4.255   6.378  17.459  0.00  0.00    +0.000 A 
ATOM     23  C   UNL     1       4.699   5.240  18.134  0.00  0.00    +0.000 A 
ATOM     24  C   UNL     1       4.125   4.877  19.354  0.00  0.00    +0.000 A 
ATOM     25  C   UNL     1       3.124   5.660  19.963  0.00  0.00    +0.000 A 
ATOM     26  C   UNL     1       2.724   6.817  19.288  0.00  0.00    +0.000 A 
ATOM     27  O   UNL     1       1.816   7.777  19.708  0.00  0.00    +0.000 OA
ENDBRANCH  17  19
ENDBRANCH   2  17
BRANCH   3  28
ATOM     28  O   UNL     1       2.501  11.870  17.199  0.00  0.00    +0.000 OA
ATOM     29  H   UNL     1       2.159  11.010  16.878  0.00  0.00    +0.000 HD
ENDBRANCH   3  28
BRANCH   6  30
ATOM     30  C   UNL     1       1.335  14.303  21.318  0.00  0.00    +0.000 C 
BRANCH  30  31
ATOM     31  C   UNL     1       2.647  14.794  21.950  0.00  0.00    +0.000 C 
BRANCH  31  32
ATOM     32  N   UNL     1       3.068  16.155  21.568  0.00  0.00    +0.000 NA
ATOM     33  C   UNL     1       1.914  16.987  21.212  0.00  0.00    +0.000 C 
ATOM     34  C   UNL     1       3.799  16.772  22.677  0.00  0.00    +0.000 C 
ENDBRANCH  31  32
ENDBRANCH  30  31
ENDBRANCH   6  30
TORSDOF 9
ENDMDL
