MODEL 1
REMARK VINA RESULT:      -6.9      0.000      0.000
REMARK  Name = 
REMARK  7 active torsions:
REMARK  status: ('A' for Active; 'I' for Inactive)
REMARK    1  A    between atoms: C_1  and  C_2
REMARK    2  A    between atoms: C_6  and  C_7
REMARK    3  A    between atoms: C_8  and  N_9
REMARK    4  A    between atoms: C_10  and  C_12
REMARK    5  A    between atoms: C_12  and  C_13
REMARK    6  A    between atoms: C_12  and  N_19
REMARK    7  A    between atoms: N_22  and  C_23
REMARK                            x       y       z     vdW  Elec       q    Type
REMARK                         _______ _______ _______ _____ _____    ______ ____
ROOT
ATOM      1  C   UNL     1      -3.226  12.307  19.743  0.00  0.00    +0.000 C 
ENDROOT
BRANCH   1   2
ATOM      2  C   UNL     1      -4.722  12.229  19.407  0.00  0.00    +0.000 A 
ATOM      3  C   UNL     1      -5.192  12.247  18.085  0.00  0.00    +0.000 A 
ATOM      4  C   UNL     1      -6.566  12.258  17.821  0.00  0.00    +0.000 A 
ATOM      5  C   UNL     1      -7.486  12.231  18.869  0.00  0.00    +0.000 A 
ATOM      6  C   UNL     1      -7.035  12.173  20.183  0.00  0.00    +0.000 A 
ATOM      7  C   UNL     1      -5.665  12.175  20.450  0.00  0.00    +0.000 A 
ENDBRANCH   1   2
BRANCH   1   8
ATOM      8  N   UNL     1      -2.326  12.505  18.555  0.00  0.00    +0.000 NA
ATOM      9  C   UNL     1      -0.923  12.824  18.979  0.00  0.00    +0.000 C 
ATOM     10  C   UNL     1      -0.093  11.680  19.649  0.00  0.00    +0.000 C 
ATOM     11  N   UNL     1      -0.166  10.453  18.842  0.00  0.00    +0.000 N 
ATOM     12  C   UNL     1      -1.531  10.061  18.450  0.00  0.00    +0.000 C 
ATOM     13  C   UNL     1      -2.216  11.254  17.739  0.00  0.00    +0.000 C 
BRANCH  11  14
ATOM     14  C   UNL     1       0.810   9.468  18.905  0.00  0.00    +0.000 A 
ATOM     15  C   UNL     1       1.553   9.043  17.791  0.00  0.00    +0.000 A 
ATOM     16  C   UNL     1       2.488   8.001  17.892  0.00  0.00    +0.000 A 
ATOM     17  C   UNL     1       2.687   7.365  19.110  0.00  0.00    +0.000 A 
ATOM     18  F   UNL     1       3.561   6.354  19.199  0.00  0.00    +0.000 F 
ATOM     19  C   UNL     1       1.972   7.753  20.228  0.00  0.00    +0.000 A 
ATOM     20  C   UNL     1       1.044   8.795  20.119  0.00  0.00    +0.000 A 
ENDBRANCH  11  14
ENDBRANCH   1   8
BRANCH   1  22
ATOM     21  N   UNL     1      -2.455  12.895  22.076  0.00  0.00    +0.000 N 
ATOM     22  C   UNL     1      -3.018  13.353  20.889  0.00  0.00    +0.000 C 
ATOM     23  O   UNL     1      -3.303  14.537  20.691  0.00  0.00    +0.000 OA
ATOM     24  H   UNL     1      -1.837  12.101  21.963  0.00  0.00    +0.000 HD
BRANCH  21  32
ATOM     25  C   UNL     1      -4.606  12.964  24.052  0.00  0.00    +0.000 C 
ATOM     26  C   UNL     1      -3.362  13.804  24.161  0.00  0.00    +0.000 A 
ATOM     27  C   UNL     1      -3.234  14.634  25.290  0.00  0.00    +0.000 A 
ATOM     28  C   UNL     1      -2.083  15.384  25.501  0.00  0.00    +0.000 A 
ATOM     29  C   UNL     1      -1.051  15.325  24.574  0.00  0.00    +0.000 A 
ATOM     30  C   UNL     1      -1.147  14.518  23.423  0.00  0.00    +0.000 A 
ATOM     31  C   UNL     1      -0.025  14.625  22.422  0.00  0.00    +0.000 C 
ATOM     32  C   UNL     1      -2.302  13.724  23.227  0.00  0.00    +0.000 A 
ENDBRANCH  21  32
ENDBRANCH   1  22
TORSDOF 5
ENDMDL
MODEL 2
REMARK VINA RESULT:      -6.8      0.318      1.600
REMARK  Name = 
REMARK  7 active torsions:
REMARK  status: ('A' for Active; 'I' for Inactive)
REMARK    1  A    between atoms: C_1  and  C_2
REMARK    2  A    between atoms: C_6  and  C_7
REMARK    3  A    between atoms: C_8  and  N_9
REMARK    4  A    between atoms: C_10  and  C_12
REMARK    5  A    between atoms: C_12  and  C_13
REMARK    6  A    between atoms: C_12  and  N_19
REMARK    7  A    between atoms: N_22  and  C_23
REMARK                            x       y       z     vdW  Elec       q    Type
REMARK                         _______ _______ _______ _____ _____    ______ ____
ROOT
ATOM      1  C   UNL     1      -2.878  12.410  19.771  0.00  0.00    +0.000 C 
ENDROOT
BRANCH   1   2
ATOM      2  C   UNL     1      -4.350  12.247  19.368  0.00  0.00    +0.000 A 
ATOM      3  C   UNL     1      -4.740  12.011  18.041  0.00  0.00    +0.000 A 
ATOM      4  C   UNL     1      -6.096  11.951  17.700  0.00  0.00    +0.000 A 
ATOM      5  C   UNL     1      -7.077  12.105  18.679  0.00  0.00    +0.000 A 
ATOM      6  C   UNL     1      -6.706  12.299  20.005  0.00  0.00    +0.000 A 
ATOM      7  C   UNL     1      -5.355  12.373  20.346  0.00  0.00    +0.000 A 
ENDBRANCH   1   2
BRANCH   1   8
ATOM      8  N   UNL     1      -1.936  12.637  18.621  0.00  0.00    +0.000 NA
ATOM      9  C   UNL     1      -0.531  12.858  19.101  0.00  0.00    +0.000 C 
ATOM     10  C   UNL     1       0.222  11.634  19.716  0.00  0.00    +0.000 C 
ATOM     11  N   UNL     1       0.113  10.465  18.830  0.00  0.00    +0.000 N 
ATOM     12  C   UNL     1      -1.257  10.168  18.379  0.00  0.00    +0.000 C 
ATOM     13  C   UNL     1      -1.863  11.436  17.729  0.00  0.00    +0.000 C 
BRANCH  11  14
ATOM     14  C   UNL     1       1.038   9.431  18.854  0.00  0.00    +0.000 A 
ATOM     15  C   UNL     1       1.819   9.065  17.745  0.00  0.00    +0.000 A 
ATOM     16  C   UNL     1       2.698   7.972  17.800  0.00  0.00    +0.000 A 
ATOM     17  C   UNL     1       2.804   7.226  18.966  0.00  0.00    +0.000 A 
ATOM     18  F   UNL     1       3.625   6.169  19.009  0.00  0.00    +0.000 F 
ATOM     19  C   UNL     1       2.049   7.553  20.077  0.00  0.00    +0.000 A 
ATOM     20  C   UNL     1       1.177   8.646  20.014  0.00  0.00    +0.000 A 
ENDBRANCH  11  14
ENDBRANCH   1   8
BRANCH   1  22
ATOM     21  N   UNL     1      -2.289  13.063  22.138  0.00  0.00    +0.000 N 
ATOM     22  C   UNL     1      -2.779  13.482  20.905  0.00  0.00    +0.000 C 
ATOM     23  O   UNL     1      -3.080  14.654  20.664  0.00  0.00    +0.000 OA
ATOM     24  H   UNL     1      -1.643  12.284  22.086  0.00  0.00    +0.000 HD
BRANCH  21  32
ATOM     25  C   UNL     1       0.032  14.802  22.484  0.00  0.00    +0.000 C 
ATOM     26  C   UNL     1      -1.092  14.724  23.481  0.00  0.00    +0.000 A 
ATOM     27  C   UNL     1      -1.018  15.557  24.613  0.00  0.00    +0.000 A 
ATOM     28  C   UNL     1      -2.051  15.597  25.542  0.00  0.00    +0.000 A 
ATOM     29  C   UNL     1      -3.166  14.790  25.358  0.00  0.00    +0.000 A 
ATOM     30  C   UNL     1      -3.271  13.932  24.246  0.00  0.00    +0.000 A 
ATOM     31  C   UNL     1      -4.463  13.008  24.210  0.00  0.00    +0.000 C 
ATOM     32  C   UNL     1      -2.238  13.918  23.279  0.00  0.00    +0.000 A 
ENDBRANCH  21  32
ENDBRANCH   1  22
TORSDOF 5
ENDMDL
MODEL 3
REMARK VINA RESULT:      -6.7      8.305     12.228
REMARK  Name = 
REMARK  7 active torsions:
REMARK  status: ('A' for Active; 'I' for Inactive)
REMARK    1  A    between atoms: C_1  and  C_2
REMARK    2  A    between atoms: C_6  and  C_7
REMARK    3  A    between atoms: C_8  and  N_9
REMARK    4  A    between atoms: C_10  and  C_12
REMARK    5  A    between atoms: C_12  and  C_13
REMARK    6  A    between atoms: C_12  and  N_19
REMARK    7  A    between atoms: N_22  and  C_23
REMARK                            x       y       z     vdW  Elec       q    Type
REMARK                         _______ _______ _______ _____ _____    ______ ____
ROOT
ATOM      1  C   UNL     1       7.347  14.390  21.823  0.00  0.00    +0.000 C 
ENDROOT
BRANCH   1   2
ATOM      2  C   UNL     1       7.403  13.549  23.106  0.00  0.00    +0.000 A 
ATOM      3  C   UNL     1       8.205  13.909  24.201  0.00  0.00    +0.000 A 
ATOM      4  C   UNL     1       8.294  13.074  25.319  0.00  0.00    +0.000 A 
ATOM      5  C   UNL     1       7.572  11.882  25.370  0.00  0.00    +0.000 A 
ATOM      6  C   UNL     1       6.743  11.531  24.309  0.00  0.00    +0.000 A 
ATOM      7  C   UNL     1       6.662  12.355  23.187  0.00  0.00    +0.000 A 
ENDBRANCH   1   2
BRANCH   1   8
ATOM      8  N   UNL     1       7.038  15.845  22.041  0.00  0.00    +0.000 NA
ATOM      9  C   UNL     1       7.209  16.636  20.777  0.00  0.00    +0.000 C 
ATOM     10  C   UNL     1       6.173  16.398  19.631  0.00  0.00    +0.000 C 
ATOM     11  N   UNL     1       4.801  16.476  20.155  0.00  0.00    +0.000 N 
ATOM     12  C   UNL     1       4.563  15.667  21.363  0.00  0.00    +0.000 C 
ATOM     13  C   UNL     1       5.608  16.047  22.440  0.00  0.00    +0.000 C 
BRANCH  11  14
ATOM     14  C   UNL     1       3.717  16.785  19.345  0.00  0.00    +0.000 A 
ATOM     15  C   UNL     1       3.703  16.572  17.957  0.00  0.00    +0.000 A 
ATOM     16  C   UNL     1       2.606  16.956  17.170  0.00  0.00    +0.000 A 
ATOM     17  C   UNL     1       1.508  17.565  17.763  0.00  0.00    +0.000 A 
ATOM     18  F   UNL     1       0.473  17.954  17.008  0.00  0.00    +0.000 F 
ATOM     19  C   UNL     1       1.487  17.796  19.126  0.00  0.00    +0.000 A 
ATOM     20  C   UNL     1       2.584  17.406  19.903  0.00  0.00    +0.000 A 
ENDBRANCH  11  14
ENDBRANCH   1   8
BRANCH   1  22
ATOM     21  N   UNL     1       8.478  13.630  19.697  0.00  0.00    +0.000 N 
ATOM     22  C   UNL     1       8.642  14.126  20.987  0.00  0.00    +0.000 C 
ATOM     23  O   UNL     1       9.744  14.408  21.465  0.00  0.00    +0.000 OA
ATOM     24  H   UNL     1       7.607  13.900  19.256  0.00  0.00    +0.000 HD
BRANCH  21  32
ATOM     25  C   UNL     1       9.587  15.616  17.864  0.00  0.00    +0.000 C 
ATOM     26  C   UNL     1      10.086  14.199  17.940  0.00  0.00    +0.000 A 
ATOM     27  C   UNL     1      11.157  13.840  17.100  0.00  0.00    +0.000 A 
ATOM     28  C   UNL     1      11.723  12.573  17.164  0.00  0.00    +0.000 A 
ATOM     29  C   UNL     1      11.212  11.641  18.057  0.00  0.00    +0.000 A 
ATOM     30  C   UNL     1      10.130  11.957  18.904  0.00  0.00    +0.000 A 
ATOM     31  C   UNL     1       9.574  10.834  19.743  0.00  0.00    +0.000 C 
ATOM     32  C   UNL     1       9.578  13.259  18.868  0.00  0.00    +0.000 A 
ENDBRANCH  21  32
ENDBRANCH   1  22
TORSDOF 5
ENDMDL
MODEL 4
REMARK VINA RESULT:      -6.6      1.337      2.015
REMARK  Name = 
REMARK  7 active torsions:
REMARK  status: ('A' for Active; 'I' for Inactive)
REMARK    1  A    between atoms: C_1  and  C_2
REMARK    2  A    between atoms: C_6  and  C_7
REMARK    3  A    between atoms: C_8  and  N_9
REMARK    4  A    between atoms: C_10  and  C_12
REMARK    5  A    between atoms: C_12  and  C_13
REMARK    6  A    between atoms: C_12  and  N_19
REMARK    7  A    between atoms: N_22  and  C_23
REMARK                            x       y       z     vdW  Elec       q    Type
REMARK                         _______ _______ _______ _____ _____    ______ ____
ROOT
ATOM      1  C   UNL     1      -3.326  12.305  20.184  0.00  0.00    +0.000 C 
ENDROOT
BRANCH   1   2
ATOM      2  C   UNL     1      -4.652  12.310  19.411  0.00  0.00    +0.000 A 
ATOM      3  C   UNL     1      -5.516  13.416  19.416  0.00  0.00    +0.000 A 
ATOM      4  C   UNL     1      -6.754  13.353  18.768  0.00  0.00    +0.000 A 
ATOM      5  C   UNL     1      -7.137  12.195  18.091  0.00  0.00    +0.000 A 
ATOM      6  C   UNL     1      -6.275  11.104  18.043  0.00  0.00    +0.000 A 
ATOM      7  C   UNL     1      -5.045  11.160  18.700  0.00  0.00    +0.000 A 
ENDBRANCH   1   2
BRANCH   1   8
ATOM      8  N   UNL     1      -2.152  12.850  19.418  0.00  0.00    +0.000 NA
ATOM      9  C   UNL     1      -0.901  12.825  20.245  0.00  0.00    +0.000 C 
ATOM     10  C   UNL     1      -0.276  11.429  20.568  0.00  0.00    +0.000 C 
ATOM     11  N   UNL     1      -0.149  10.628  19.341  0.00  0.00    +0.000 N 
ATOM     12  C   UNL     1      -1.372  10.569  18.522  0.00  0.00    +0.000 C 
ATOM     13  C   UNL     1      -1.846  12.010  18.216  0.00  0.00    +0.000 C 
BRANCH  11  14
ATOM     14  C   UNL     1       0.772   9.596  19.224  0.00  0.00    +0.000 A 
ATOM     15  C   UNL     1       1.436   9.283  18.026  0.00  0.00    +0.000 A 
ATOM     16  C   UNL     1       2.314   8.192  17.941  0.00  0.00    +0.000 A 
ATOM     17  C   UNL     1       2.538   7.395  19.056  0.00  0.00    +0.000 A 
ATOM     18  F   UNL     1       3.358   6.340  18.967  0.00  0.00    +0.000 F 
ATOM     19  C   UNL     1       1.901   7.669  20.252  0.00  0.00    +0.000 A 
ATOM     20  C   UNL     1       1.029   8.761  20.328  0.00  0.00    +0.000 A 
ENDBRANCH  11  14
ENDBRANCH   1   8
BRANCH   1  22
ATOM     21  N   UNL     1      -3.324  14.344  21.674  0.00  0.00    +0.000 N 
ATOM     22  C   UNL     1      -3.551  12.974  21.580  0.00  0.00    +0.000 C 
ATOM     23  O   UNL     1      -3.965  12.294  22.521  0.00  0.00    +0.000 OA
ATOM     24  H   UNL     1      -3.478  14.851  20.811  0.00  0.00    +0.000 HD
BRANCH  21  32
ATOM     25  C   UNL     1      -0.929  14.529  23.337  0.00  0.00    +0.000 C 
ATOM     26  C   UNL     1      -2.259  15.103  23.745  0.00  0.00    +0.000 A 
ATOM     27  C   UNL     1      -2.326  15.783  24.976  0.00  0.00    +0.000 A 
ATOM     28  C   UNL     1      -3.499  16.403  25.388  0.00  0.00    +0.000 A 
ATOM     29  C   UNL     1      -4.627  16.338  24.581  0.00  0.00    +0.000 A 
ATOM     30  C   UNL     1      -4.604  15.654  23.349  0.00  0.00    +0.000 A 
ATOM     31  C   UNL     1      -5.915  15.537  22.613  0.00  0.00    +0.000 C 
ATOM     32  C   UNL     1      -3.401  15.055  22.909  0.00  0.00    +0.000 A 
ENDBRANCH  21  32
ENDBRANCH   1  22
TORSDOF 5
ENDMDL
MODEL 5
REMARK VINA RESULT:      -6.6      1.523      1.855
REMARK  Name = 
REMARK  7 active torsions:
REMARK  status: ('A' for Active; 'I' for Inactive)
REMARK    1  A    between atoms: C_1  and  C_2
REMARK    2  A    between atoms: C_6  and  C_7
REMARK    3  A    between atoms: C_8  and  N_9
REMARK    4  A    between atoms: C_10  and  C_12
REMARK    5  A    between atoms: C_12  and  C_13
REMARK    6  A    between atoms: C_12  and  N_19
REMARK    7  A    between atoms: N_22  and  C_23
REMARK                            x       y       z     vdW  Elec       q    Type
REMARK                         _______ _______ _______ _____ _____    ______ ____
ROOT
ATOM      1  C   UNL     1      -3.553  12.355  20.229  0.00  0.00    +0.000 C 
ENDROOT
BRANCH   1   2
ATOM      2  C   UNL     1      -4.866  12.339  19.435  0.00  0.00    +0.000 A 
ATOM      3  C   UNL     1      -5.426  11.150  18.942  0.00  0.00    +0.000 A 
ATOM      4  C   UNL     1      -6.580  11.184  18.152  0.00  0.00    +0.000 A 
ATOM      5  C   UNL     1      -7.200  12.398  17.860  0.00  0.00    +0.000 A 
ATOM      6  C   UNL     1      -6.680  13.581  18.374  0.00  0.00    +0.000 A 
ATOM      7  C   UNL     1      -5.522  13.552  19.152  0.00  0.00    +0.000 A 
ENDBRANCH   1   2
BRANCH   1   8
ATOM      8  N   UNL     1      -2.369  12.891  19.472  0.00  0.00    +0.000 NA
ATOM      9  C   UNL     1      -1.122  12.847  20.304  0.00  0.00    +0.000 C 
ATOM     10  C   UNL     1      -0.515  11.441  20.622  0.00  0.00    +0.000 C 
ATOM     11  N   UNL     1      -0.392  10.646  19.391  0.00  0.00    +0.000 N 
ATOM     12  C   UNL     1      -1.612  10.606  18.566  0.00  0.00    +0.000 C 
ATOM     13  C   UNL     1      -2.067  12.054  18.266  0.00  0.00    +0.000 C 
BRANCH  11  14
ATOM     14  C   UNL     1       0.518   9.604  19.273  0.00  0.00    +0.000 A 
ATOM     15  C   UNL     1       0.908   8.791  20.350  0.00  0.00    +0.000 A 
ATOM     16  C   UNL     1       1.877   7.788  20.194  0.00  0.00    +0.000 A 
ATOM     17  C   UNL     1       2.474   7.588  18.957  0.00  0.00    +0.000 A 
ATOM     18  F   UNL     1       3.417   6.648  18.816  0.00  0.00    +0.000 F 
ATOM     19  C   UNL     1       2.120   8.371  17.874  0.00  0.00    +0.000 A 
ATOM     20  C   UNL     1       1.150   9.367  18.038  0.00  0.00    +0.000 A 
ENDBRANCH  11  14
ENDBRANCH   1   8
BRANCH   1  22
ATOM     21  N   UNL     1      -3.660  14.434  21.660  0.00  0.00    +0.000 N 
ATOM     22  C   UNL     1      -3.803  13.051  21.608  0.00  0.00    +0.000 C 
ATOM     23  O   UNL     1      -4.165  12.374  22.574  0.00  0.00    +0.000 OA
ATOM     24  H   UNL     1      -3.854  14.905  20.785  0.00  0.00    +0.000 HD
BRANCH  21  32
ATOM     25  C   UNL     1      -6.192  15.750  22.281  0.00  0.00    +0.000 C 
ATOM     26  C   UNL     1      -4.974  15.859  23.156  0.00  0.00    +0.000 A 
ATOM     27  C   UNL     1      -5.087  16.612  24.340  0.00  0.00    +0.000 A 
ATOM     28  C   UNL     1      -4.029  16.700  25.237  0.00  0.00    +0.000 A 
ATOM     29  C   UNL     1      -2.837  16.049  24.952  0.00  0.00    +0.000 A 
ATOM     30  C   UNL     1      -2.679  15.297  23.770  0.00  0.00    +0.000 A 
ATOM     31  C   UNL     1      -1.305  14.737  23.499  0.00  0.00    +0.000 C 
ATOM     32  C   UNL     1      -3.767  15.175  22.874  0.00  0.00    +0.000 A 
ENDBRANCH  21  32
ENDBRANCH   1  22
TORSDOF 5
ENDMDL
MODEL 6
REMARK VINA RESULT:      -6.6      3.779      8.614
REMARK  Name = 
REMARK  7 active torsions:
REMARK  status: ('A' for Active; 'I' for Inactive)
REMARK    1  A    between atoms: C_1  and  C_2
REMARK    2  A    between atoms: C_6  and  C_7
REMARK    3  A    between atoms: C_8  and  N_9
REMARK    4  A    between atoms: C_10  and  C_12
REMARK    5  A    between atoms: C_12  and  C_13
REMARK    6  A    between atoms: C_12  and  N_19
REMARK    7  A    between atoms: N_22  and  C_23
REMARK                            x       y       z     vdW  Elec       q    Type
REMARK                         _______ _______ _______ _____ _____    ______ ____
ROOT
ATOM      1  C   UNL     1      -1.305  12.650  20.948  0.00  0.00    +0.000 C 
ENDROOT
BRANCH   1   2
ATOM      2  C   UNL     1      -0.607  11.416  21.534  0.00  0.00    +0.000 A 
ATOM      3  C   UNL     1      -1.025  10.821  22.735  0.00  0.00    +0.000 A 
ATOM      4  C   UNL     1      -0.312   9.748  23.281  0.00  0.00    +0.000 A 
ATOM      5  C   UNL     1       0.812   9.243  22.628  0.00  0.00    +0.000 A 
ATOM      6  C   UNL     1       1.216   9.796  21.417  0.00  0.00    +0.000 A 
ATOM      7  C   UNL     1       0.515  10.874  20.877  0.00  0.00    +0.000 A 
ENDBRANCH   1   2
BRANCH   1   8
ATOM      8  N   UNL     1      -0.609  13.954  21.223  0.00  0.00    +0.000 NA
ATOM      9  C   UNL     1      -1.415  15.119  20.730  0.00  0.00    +0.000 C 
ATOM     10  C   UNL     1      -2.739  15.455  21.492  0.00  0.00    +0.000 C 
ATOM     11  N   UNL     1      -2.495  15.518  22.940  0.00  0.00    +0.000 N 
ATOM     12  C   UNL     1      -1.758  14.365  23.486  0.00  0.00    +0.000 C 
ATOM     13  C   UNL     1      -0.441  14.185  22.693  0.00  0.00    +0.000 C 
BRANCH  11  14
ATOM     14  C   UNL     1      -3.314  16.242  23.796  0.00  0.00    +0.000 A 
ATOM     15  C   UNL     1      -4.713  16.111  23.824  0.00  0.00    +0.000 A 
ATOM     16  C   UNL     1      -5.504  16.908  24.664  0.00  0.00    +0.000 A 
ATOM     17  C   UNL     1      -4.906  17.853  25.488  0.00  0.00    +0.000 A 
ATOM     18  F   UNL     1      -5.665  18.630  26.271  0.00  0.00    +0.000 F 
ATOM     19  C   UNL     1      -3.533  18.014  25.486  0.00  0.00    +0.000 A 
ATOM     20  C   UNL     1      -2.751  17.212  24.646  0.00  0.00    +0.000 A 
ENDBRANCH  11  14
ENDBRANCH   1   8
BRANCH   1  22
ATOM     21  N   UNL     1      -2.606  11.468  19.135  0.00  0.00    +0.000 N 
ATOM     22  C   UNL     1      -1.608  12.389  19.435  0.00  0.00    +0.000 C 
ATOM     23  O   UNL     1      -1.005  13.034  18.573  0.00  0.00    +0.000 OA
ATOM     24  H   UNL     1      -3.327  11.391  19.842  0.00  0.00    +0.000 HD
BRANCH  21  32
ATOM     25  C   UNL     1      -5.119  12.366  17.947  0.00  0.00    +0.000 C 
ATOM     26  C   UNL     1      -4.153  11.459  17.236  0.00  0.00    +0.000 A 
ATOM     27  C   UNL     1      -4.479  11.058  15.927  0.00  0.00    +0.000 A 
ATOM     28  C   UNL     1      -3.604  10.281  15.177  0.00  0.00    +0.000 A 
ATOM     29  C   UNL     1      -2.397   9.880  15.735  0.00  0.00    +0.000 A 
ATOM     30  C   UNL     1      -2.041  10.249  17.048  0.00  0.00    +0.000 A 
ATOM     31  C   UNL     1      -0.768   9.656  17.598  0.00  0.00    +0.000 C 
ATOM     32  C   UNL     1      -2.913  11.071  17.799  0.00  0.00    +0.000 A 
ENDBRANCH  21  32
ENDBRANCH   1  22
TORSDOF 5
ENDMDL
MODEL 7
REMARK VINA RESULT:      -6.6      8.318     12.235
REMARK  Name = 
REMARK  7 active torsions:
REMARK  status: ('A' for Active; 'I' for Inactive)
REMARK    1  A    between atoms: C_1  and  C_2
REMARK    2  A    between atoms: C_6  and  C_7
REMARK    3  A    between atoms: C_8  and  N_9
REMARK    4  A    between atoms: C_10  and  C_12
REMARK    5  A    between atoms: C_12  and  C_13
REMARK    6  A    between atoms: C_12  and  N_19
REMARK    7  A    between atoms: N_22  and  C_23
REMARK                            x       y       z     vdW  Elec       q    Type
REMARK                         _______ _______ _______ _____ _____    ______ ____
ROOT
ATOM      1  C   UNL     1       7.379  14.459  21.872  0.00  0.00    +0.000 C 
ENDROOT
BRANCH   1   2
ATOM      2  C   UNL     1       7.443  13.588  23.134  0.00  0.00    +0.000 A 
ATOM      3  C   UNL     1       8.256  13.918  24.230  0.00  0.00    +0.000 A 
ATOM      4  C   UNL     1       8.351  13.056  25.327  0.00  0.00    +0.000 A 
ATOM      5  C   UNL     1       7.624  11.866  25.355  0.00  0.00    +0.000 A 
ATOM      6  C   UNL     1       6.784  11.544  24.295  0.00  0.00    +0.000 A 
ATOM      7  C   UNL     1       6.697  12.395  23.193  0.00  0.00    +0.000 A 
ENDBRANCH   1   2
BRANCH   1   8
ATOM      8  N   UNL     1       7.093  15.913  22.129  0.00  0.00    +0.000 NA
ATOM      9  C   UNL     1       7.250  16.730  20.880  0.00  0.00    +0.000 C 
ATOM     10  C   UNL     1       6.189  16.531  19.749  0.00  0.00    +0.000 C 
ATOM     11  N   UNL     1       4.829  16.614  20.301  0.00  0.00    +0.000 N 
ATOM     12  C   UNL     1       4.604  15.781  21.495  0.00  0.00    +0.000 C 
ATOM     13  C   UNL     1       5.673  16.123  22.560  0.00  0.00    +0.000 C 
BRANCH  11  14
ATOM     14  C   UNL     1       3.734  16.955  19.519  0.00  0.00    +0.000 A 
ATOM     15  C   UNL     1       2.571  17.551  20.034  0.00  0.00    +0.000 A 
ATOM     16  C   UNL     1       1.465  17.823  19.214  0.00  0.00    +0.000 A 
ATOM     17  C   UNL     1       1.506  17.497  17.865  0.00  0.00    +0.000 A 
ATOM     18  F   UNL     1       0.441  17.734  17.089  0.00  0.00    +0.000 F 
ATOM     19  C   UNL     1       2.632  16.906  17.322  0.00  0.00    +0.000 A 
ATOM     20  C   UNL     1       3.731  16.641  18.147  0.00  0.00    +0.000 A 
ENDBRANCH  11  14
ENDBRANCH   1   8
BRANCH   1  22
ATOM     21  N   UNL     1       8.473  13.642  19.747  0.00  0.00    +0.000 N 
ATOM     22  C   UNL     1       8.657  14.197  21.010  0.00  0.00    +0.000 C 
ATOM     23  O   UNL     1       9.763  14.533  21.443  0.00  0.00    +0.000 OA
ATOM     24  H   UNL     1       7.582  13.867  19.321  0.00  0.00    +0.000 HD
BRANCH  21  32
ATOM     25  C   UNL     1       9.584  10.953  20.002  0.00  0.00    +0.000 C 
ATOM     26  C   UNL     1      10.138  11.985  19.058  0.00  0.00    +0.000 A 
ATOM     27  C   UNL     1      11.226  11.609  18.247  0.00  0.00    +0.000 A 
ATOM     28  C   UNL     1      11.746  12.480  17.298  0.00  0.00    +0.000 A 
ATOM     29  C   UNL     1      11.196  13.748  17.160  0.00  0.00    +0.000 A 
ATOM     30  C   UNL     1      10.117  14.167  17.964  0.00  0.00    +0.000 A 
ATOM     31  C   UNL     1       9.680  15.603  17.819  0.00  0.00    +0.000 C 
ATOM     32  C   UNL     1       9.560  13.268  18.903  0.00  0.00    +0.000 A 
ENDBRANCH  21  32
ENDBRANCH   1  22
TORSDOF 5
ENDMDL
MODEL 8
REMARK VINA RESULT:      -6.6      8.155     12.100
REMARK  Name = 
REMARK  7 active torsions:
REMARK  status: ('A' for Active; 'I' for Inactive)
REMARK    1  A    between atoms: C_1  and  C_2
REMARK    2  A    between atoms: C_6  and  C_7
REMARK    3  A    between atoms: C_8  and  N_9
REMARK    4  A    between atoms: C_10  and  C_12
REMARK    5  A    between atoms: C_12  and  C_13
REMARK    6  A    between atoms: C_12  and  N_19
REMARK    7  A    between atoms: N_22  and  C_23
REMARK                            x       y       z     vdW  Elec       q    Type
REMARK                         _______ _______ _______ _____ _____    ______ ____
ROOT
ATOM      1  C   UNL     1       7.422  14.263  21.753  0.00  0.00    +0.000 C 
ENDROOT
BRANCH   1   2
ATOM      2  C   UNL     1       7.598  13.466  23.053  0.00  0.00    +0.000 A 
ATOM      3  C   UNL     1       7.084  12.169  23.209  0.00  0.00    +0.000 A 
ATOM      4  C   UNL     1       7.192  11.507  24.437  0.00  0.00    +0.000 A 
ATOM      5  C   UNL     1       7.829  12.120  25.516  0.00  0.00    +0.000 A 
ATOM      6  C   UNL     1       8.377  13.390  25.364  0.00  0.00    +0.000 A 
ATOM      7  C   UNL     1       8.260  14.058  24.145  0.00  0.00    +0.000 A 
ENDBRANCH   1   2
BRANCH   1   8
ATOM      8  N   UNL     1       6.971  15.684  21.944  0.00  0.00    +0.000 NA
ATOM      9  C   UNL     1       6.839  16.398  20.631  0.00  0.00    +0.000 C 
ATOM     10  C   UNL     1       5.673  15.962  19.686  0.00  0.00    +0.000 C 
ATOM     11  N   UNL     1       4.403  15.917  20.425  0.00  0.00    +0.000 N 
ATOM     12  C   UNL     1       4.463  15.173  21.695  0.00  0.00    +0.000 C 
ATOM     13  C   UNL     1       5.608  15.746  22.564  0.00  0.00    +0.000 C 
BRANCH  11  14
ATOM     14  C   UNL     1       3.174  16.040  19.791  0.00  0.00    +0.000 A 
ATOM     15  C   UNL     1       2.979  16.794  18.622  0.00  0.00    +0.000 A 
ATOM     16  C   UNL     1       1.706  16.939  18.050  0.00  0.00    +0.000 A 
ATOM     17  C   UNL     1       0.607  16.335  18.646  0.00  0.00    +0.000 A 
ATOM     18  F   UNL     1      -0.612  16.495  18.113  0.00  0.00    +0.000 F 
ATOM     19  C   UNL     1       0.758  15.589  19.800  0.00  0.00    +0.000 A 
ATOM     20  C   UNL     1       2.032  15.447  20.361  0.00  0.00    +0.000 A 
ENDBRANCH  11  14
ENDBRANCH   1   8
BRANCH   1  22
ATOM     21  N   UNL     1       8.564  13.609  19.596  0.00  0.00    +0.000 N 
ATOM     22  C   UNL     1       8.716  14.110  20.886  0.00  0.00    +0.000 C 
ATOM     23  O   UNL     1       9.801  14.479  21.342  0.00  0.00    +0.000 OA
ATOM     24  H   UNL     1       7.664  13.809  19.177  0.00  0.00    +0.000 HD
BRANCH  21  32
ATOM     25  C   UNL     1       9.560  15.738  17.861  0.00  0.00    +0.000 C 
ATOM     26  C   UNL     1      10.126  14.344  17.859  0.00  0.00    +0.000 A 
ATOM     27  C   UNL     1      11.205  14.080  16.994  0.00  0.00    +0.000 A 
ATOM     28  C   UNL     1      11.830  12.839  16.988  0.00  0.00    +0.000 A 
ATOM     29  C   UNL     1      11.372  11.839  17.835  0.00  0.00    +0.000 A 
ATOM     30  C   UNL     1      10.285  12.059  18.705  0.00  0.00    +0.000 A 
ATOM     31  C   UNL     1       9.791  10.870  19.489  0.00  0.00    +0.000 C 
ATOM     32  C   UNL     1       9.672  13.333  18.741  0.00  0.00    +0.000 A 
ENDBRANCH  21  32
ENDBRANCH   1  22
TORSDOF 5
ENDMDL
MODEL 9
REMARK VINA RESULT:      -6.5      8.197     12.125
REMARK  Name = 
REMARK  7 active torsions:
REMARK  status: ('A' for Active; 'I' for Inactive)
REMARK    1  A    between atoms: C_1  and  C_2
REMARK    2  A    between atoms: C_6  and  C_7
REMARK    3  A    between atoms: C_8  and  N_9
REMARK    4  A    between atoms: C_10  and  C_12
REMARK    5  A    between atoms: C_12  and  C_13
REMARK    6  A    between atoms: C_12  and  N_19
REMARK    7  A    between atoms: N_22  and  C_23
REMARK                            x       y       z     vdW  Elec       q    Type
REMARK                         _______ _______ _______ _____ _____    ______ ____
ROOT
ATOM      1  C   UNL     1       7.416  14.447  21.691  0.00  0.00    +0.000 C 
ENDROOT
BRANCH   1   2
ATOM      2  C   UNL     1       7.627  13.660  22.992  0.00  0.00    +0.000 A 
ATOM      3  C   UNL     1       8.163  14.253  24.145  0.00  0.00    +0.000 A 
ATOM      4  C   UNL     1       8.417  13.484  25.286  0.00  0.00    +0.000 A 
ATOM      5  C   UNL     1       8.123  12.121  25.297  0.00  0.00    +0.000 A 
ATOM      6  C   UNL     1       7.555  11.526  24.175  0.00  0.00    +0.000 A 
ATOM      7  C   UNL     1       7.312  12.288  23.032  0.00  0.00    +0.000 A 
ENDBRANCH   1   2
BRANCH   1   8
ATOM      8  N   UNL     1       6.959  15.866  21.884  0.00  0.00    +0.000 NA
ATOM      9  C   UNL     1       6.819  16.579  20.571  0.00  0.00    +0.000 C 
ATOM     10  C   UNL     1       5.652  16.136  19.630  0.00  0.00    +0.000 C 
ATOM     11  N   UNL     1       4.384  16.085  20.373  0.00  0.00    +0.000 N 
ATOM     12  C   UNL     1       4.452  15.342  21.644  0.00  0.00    +0.000 C 
ATOM     13  C   UNL     1       5.598  15.921  22.508  0.00  0.00    +0.000 C 
BRANCH  11  14
ATOM     14  C   UNL     1       3.153  16.202  19.743  0.00  0.00    +0.000 A 
ATOM     15  C   UNL     1       2.975  16.841  18.505  0.00  0.00    +0.000 A 
ATOM     16  C   UNL     1       1.701  16.989  17.936  0.00  0.00    +0.000 A 
ATOM     17  C   UNL     1       0.584  16.502  18.602  0.00  0.00    +0.000 A 
ATOM     18  F   UNL     1      -0.634  16.665  18.069  0.00  0.00    +0.000 F 
ATOM     19  C   UNL     1       0.719  15.870  19.825  0.00  0.00    +0.000 A 
ATOM     20  C   UNL     1       1.994  15.725  20.383  0.00  0.00    +0.000 A 
ENDBRANCH  11  14
ENDBRANCH   1   8
BRANCH   1  22
ATOM     21  N   UNL     1       8.534  13.684  19.558  0.00  0.00    +0.000 N 
ATOM     22  C   UNL     1       8.692  14.298  20.797  0.00  0.00    +0.000 C 
ATOM     23  O   UNL     1       9.765  14.767  21.184  0.00  0.00    +0.000 OA
ATOM     24  H   UNL     1       7.612  13.795  19.154  0.00  0.00    +0.000 HD
BRANCH  21  32
ATOM     25  C   UNL     1       9.754  11.031  19.655  0.00  0.00    +0.000 C 
ATOM     26  C   UNL     1      10.262  12.137  18.771  0.00  0.00    +0.000 A 
ATOM     27  C   UNL     1      11.360  11.853  17.938  0.00  0.00    +0.000 A 
ATOM     28  C   UNL     1      11.841  12.797  17.040  0.00  0.00    +0.000 A 
ATOM     29  C   UNL     1      11.240  14.048  16.976  0.00  0.00    +0.000 A 
ATOM     30  C   UNL     1      10.148  14.376  17.804  0.00  0.00    +0.000 A 
ATOM     31  C   UNL     1       9.653  15.799  17.744  0.00  0.00    +0.000 C 
ATOM     32  C   UNL     1       9.632  13.403  18.692  0.00  0.00    +0.000 A 
ENDBRANCH  21  32
ENDBRANCH   1  22
TORSDOF 5
ENDMDL
