MODEL 1
REMARK VINA RESULT:      -8.2      0.000      0.000
REMARK  Name = 
REMARK  6 active torsions:
REMARK  status: ('A' for Active; 'I' for Inactive)
REMARK    1  A    between atoms: C_1  and  N_2
REMARK    2  A    between atoms: N_2  and  C_3
REMARK    3  A    between atoms: N_2  and  C_4
REMARK    4  A    between atoms: C_7  and  C_8
REMARK    5  A    between atoms: C_8  and  N_9
REMARK    6  A    between atoms: C_10  and  C_12
REMARK                            x       y       z     vdW  Elec       q    Type
REMARK                         _______ _______ _______ _____ _____    ______ ____
ROOT
ATOM      1  C   UNL     1       7.163   4.808  17.462  0.00  0.00    +0.000 C 
ATOM      2  C   UNL     1       8.166   5.137  18.585  0.00  0.00    +0.000 C 
ATOM      3  C   UNL     1       7.865   6.483  19.257  0.00  0.00    +0.000 C 
ATOM      4  N   UNL     1       7.821   7.508  18.223  0.00  0.00    +0.000 N 
ATOM      5  C   UNL     1       8.224   8.790  18.410  0.00  0.00    +0.000 A 
ATOM      6  N   UNL     1       7.741   9.850  17.797  0.00  0.00    +0.000 NA
ATOM      7  C   UNL     1       8.623  10.859  18.036  0.00  0.00    +0.000 A 
ATOM      8  C   UNL     1       8.615  12.162  17.529  0.00  0.00    +0.000 A 
ATOM      9  C   UNL     1       9.686  13.009  17.850  0.00  0.00    +0.000 A 
ATOM     10  C   UNL     1      10.724  12.556  18.669  0.00  0.00    +0.000 A 
ATOM     11 CL   UNL     1      12.038  13.617  19.011  0.00  0.00    +0.000 Cl
ATOM     12  C   UNL     1      10.732  11.260  19.208  0.00  0.00    +0.000 A 
ATOM     13  C   UNL     1       9.654  10.437  18.866  0.00  0.00    +0.000 A 
ATOM     14  N   UNL     1       9.329   9.131  19.154  0.00  0.00    +0.000 N 
ATOM     15  C   UNL     1       6.773   7.303  17.211  0.00  0.00    +0.000 C 
ATOM     16  C   UNL     1       7.046   5.986  16.487  0.00  0.00    +0.000 C 
ATOM     17  H   UNL     1       9.878   8.494  19.704  0.00  0.00    +0.000 HD
ENDROOT
BRANCH   1  19
ATOM     18  N   UNL     1       4.736   4.836  17.243  0.00  0.00    +0.000 N 
ATOM     19  C   UNL     1       5.791   4.408  18.013  0.00  0.00    +0.000 C 
ATOM     20  O   UNL     1       5.642   3.772  19.047  0.00  0.00    +0.000 OA
ATOM     21  H   UNL     1       4.885   5.557  16.551  0.00  0.00    +0.000 HD
BRANCH  18  22
ATOM     22  C   UNL     1       3.369   4.550  17.623  0.00  0.00    +0.000 C 
BRANCH  22  26
ATOM     23  C   UNL     1       1.703   7.866  19.928  0.00  0.00    +0.000 A 
ATOM     24  C   UNL     1       2.174   8.027  18.615  0.00  0.00    +0.000 A 
ATOM     25  C   UNL     1       2.716   6.964  17.881  0.00  0.00    +0.000 A 
ATOM     26  C   UNL     1       2.795   5.682  18.429  0.00  0.00    +0.000 A 
ATOM     27  C   UNL     1       2.304   5.486  19.721  0.00  0.00    +0.000 A 
ATOM     28  C   UNL     1       1.768   6.561  20.448  0.00  0.00    +0.000 A 
BRANCH  23  30
ATOM     29  C   UNL     1       0.892  10.202  20.012  0.00  0.00    +0.000 C 
ATOM     30  N   UNL     1       1.178   8.930  20.665  0.00  0.00    +0.000 N 
ATOM     31  C   UNL     1       1.395   8.962  22.109  0.00  0.00    +0.000 C 
ENDBRANCH  23  30
ENDBRANCH  22  26
ENDBRANCH  18  22
ENDBRANCH   1  19
TORSDOF 4
ENDMDL
MODEL 2
REMARK VINA RESULT:      -8.1      0.237      1.102
REMARK  Name = 
REMARK  6 active torsions:
REMARK  status: ('A' for Active; 'I' for Inactive)
REMARK    1  A    between atoms: C_1  and  N_2
REMARK    2  A    between atoms: N_2  and  C_3
REMARK    3  A    between atoms: N_2  and  C_4
REMARK    4  A    between atoms: C_7  and  C_8
REMARK    5  A    between atoms: C_8  and  N_9
REMARK    6  A    between atoms: C_10  and  C_12
REMARK                            x       y       z     vdW  Elec       q    Type
REMARK                         _______ _______ _______ _____ _____    ______ ____
ROOT
ATOM      1  C   UNL     1       7.134   4.847  17.439  0.00  0.00    +0.000 C 
ATOM      2  C   UNL     1       8.149   5.159  18.556  0.00  0.00    +0.000 C 
ATOM      3  C   UNL     1       7.867   6.503  19.238  0.00  0.00    +0.000 C 
ATOM      4  N   UNL     1       7.823   7.535  18.211  0.00  0.00    +0.000 N 
ATOM      5  C   UNL     1       8.240   8.812  18.403  0.00  0.00    +0.000 A 
ATOM      6  N   UNL     1       7.761   9.880  17.800  0.00  0.00    +0.000 NA
ATOM      7  C   UNL     1       8.654  10.880  18.038  0.00  0.00    +0.000 A 
ATOM      8  C   UNL     1       8.655  12.186  17.540  0.00  0.00    +0.000 A 
ATOM      9  C   UNL     1       9.736  13.021  17.857  0.00  0.00    +0.000 A 
ATOM     10  C   UNL     1      10.776  12.554  18.664  0.00  0.00    +0.000 A 
ATOM     11 CL   UNL     1      12.104  13.601  19.001  0.00  0.00    +0.000 Cl
ATOM     12  C   UNL     1      10.778  11.254  19.195  0.00  0.00    +0.000 A 
ATOM     13  C   UNL     1       9.689  10.443  18.857  0.00  0.00    +0.000 A 
ATOM     14  N   UNL     1       9.354   9.139  19.140  0.00  0.00    +0.000 N 
ATOM     15  C   UNL     1       6.765   7.347  17.207  0.00  0.00    +0.000 C 
ATOM     16  C   UNL     1       7.019   6.032  16.473  0.00  0.00    +0.000 C 
ATOM     17  H   UNL     1       9.902   8.492  19.680  0.00  0.00    +0.000 HD
ENDROOT
BRANCH   1  19
ATOM     18  N   UNL     1       4.706   4.900  17.243  0.00  0.00    +0.000 N 
ATOM     19  C   UNL     1       5.764   4.455  17.999  0.00  0.00    +0.000 C 
ATOM     20  O   UNL     1       5.618   3.813  19.030  0.00  0.00    +0.000 OA
ATOM     21  H   UNL     1       4.855   5.625  16.555  0.00  0.00    +0.000 HD
BRANCH  18  22
ATOM     22  C   UNL     1       3.339   4.624  17.632  0.00  0.00    +0.000 C 
BRANCH  22  26
ATOM     23  C   UNL     1       1.656   7.971  19.879  0.00  0.00    +0.000 A 
ATOM     24  C   UNL     1       1.791   6.688  20.433  0.00  0.00    +0.000 A 
ATOM     25  C   UNL     1       2.323   5.614  19.708  0.00  0.00    +0.000 A 
ATOM     26  C   UNL     1       2.760   5.786  18.392  0.00  0.00    +0.000 A 
ATOM     27  C   UNL     1       2.667   7.058  17.827  0.00  0.00    +0.000 A 
ATOM     28  C   UNL     1       2.127   8.125  18.563  0.00  0.00    +0.000 A 
BRANCH  23  30
ATOM     29  C   UNL     1       0.259   8.781  21.753  0.00  0.00    +0.000 C 
ATOM     30  N   UNL     1       1.110   9.038  20.597  0.00  0.00    +0.000 N 
ATOM     31  C   UNL     1       0.950  10.327  19.932  0.00  0.00    +0.000 C 
ENDBRANCH  23  30
ENDBRANCH  22  26
ENDBRANCH  18  22
ENDBRANCH   1  19
TORSDOF 4
ENDMDL
MODEL 3
REMARK VINA RESULT:      -8.1      0.918      1.279
REMARK  Name = 
REMARK  6 active torsions:
REMARK  status: ('A' for Active; 'I' for Inactive)
REMARK    1  A    between atoms: C_1  and  N_2
REMARK    2  A    between atoms: N_2  and  C_3
REMARK    3  A    between atoms: N_2  and  C_4
REMARK    4  A    between atoms: C_7  and  C_8
REMARK    5  A    between atoms: C_8  and  N_9
REMARK    6  A    between atoms: C_10  and  C_12
REMARK                            x       y       z     vdW  Elec       q    Type
REMARK                         _______ _______ _______ _____ _____    ______ ____
ROOT
ATOM      1  C   UNL     1       7.162   4.563  16.912  0.00  0.00    +0.000 C 
ATOM      2  C   UNL     1       7.912   4.809  18.236  0.00  0.00    +0.000 C 
ATOM      3  C   UNL     1       7.505   6.133  18.895  0.00  0.00    +0.000 C 
ATOM      4  N   UNL     1       7.703   7.203  17.928  0.00  0.00    +0.000 N 
ATOM      5  C   UNL     1       8.085   8.463  18.259  0.00  0.00    +0.000 A 
ATOM      6  N   UNL     1       7.765   9.563  17.612  0.00  0.00    +0.000 NA
ATOM      7  C   UNL     1       8.598  10.533  18.082  0.00  0.00    +0.000 A 
ATOM      8  C   UNL     1       8.726  11.857  17.651  0.00  0.00    +0.000 A 
ATOM      9  C   UNL     1       9.723  12.654  18.231  0.00  0.00    +0.000 A 
ATOM     10  C   UNL     1      10.554  12.133  19.226  0.00  0.00    +0.000 A 
ATOM     11 CL   UNL     1      11.789  13.135  19.890  0.00  0.00    +0.000 Cl
ATOM     12  C   UNL     1      10.420  10.814  19.690  0.00  0.00    +0.000 A 
ATOM     13  C   UNL     1       9.422  10.042  19.088  0.00  0.00    +0.000 A 
ATOM     14  N   UNL     1       9.014   8.736  19.236  0.00  0.00    +0.000 N 
ATOM     15  C   UNL     1       6.888   7.077  16.710  0.00  0.00    +0.000 C 
ATOM     16  C   UNL     1       7.280   5.786  15.994  0.00  0.00    +0.000 C 
ATOM     17  H   UNL     1       9.421   8.057  19.856  0.00  0.00    +0.000 HD
ENDROOT
BRANCH   1  19
ATOM     18  N   UNL     1       5.330   4.156  18.465  0.00  0.00    +0.000 N 
ATOM     19  C   UNL     1       5.697   4.182  17.141  0.00  0.00    +0.000 C 
ATOM     20  O   UNL     1       4.922   3.916  16.233  0.00  0.00    +0.000 OA
ATOM     21  H   UNL     1       6.043   4.133  19.180  0.00  0.00    +0.000 HD
BRANCH  18  22
ATOM     22  C   UNL     1       3.981   3.809  18.861  0.00  0.00    +0.000 C 
BRANCH  22  26
ATOM     23  C   UNL     1       1.751   7.352  20.109  0.00  0.00    +0.000 A 
ATOM     24  C   UNL     1       1.716   6.150  20.834  0.00  0.00    +0.000 A 
ATOM     25  C   UNL     1       2.425   5.012  20.427  0.00  0.00    +0.000 A 
ATOM     26  C   UNL     1       3.218   5.036  19.276  0.00  0.00    +0.000 A 
ATOM     27  C   UNL     1       3.296   6.227  18.554  0.00  0.00    +0.000 A 
ATOM     28  C   UNL     1       2.576   7.359  18.970  0.00  0.00    +0.000 A 
BRANCH  23  30
ATOM     29  C   UNL     1       0.856   9.597  19.583  0.00  0.00    +0.000 C 
ATOM     30  N   UNL     1       1.031   8.481  20.505  0.00  0.00    +0.000 N 
ATOM     31  C   UNL     1       0.908   8.775  21.930  0.00  0.00    +0.000 C 
ENDBRANCH  23  30
ENDBRANCH  22  26
ENDBRANCH  18  22
ENDBRANCH   1  19
TORSDOF 4
ENDMDL
MODEL 4
REMARK VINA RESULT:      -8.0      0.907      1.093
REMARK  Name = 
REMARK  6 active torsions:
REMARK  status: ('A' for Active; 'I' for Inactive)
REMARK    1  A    between atoms: C_1  and  N_2
REMARK    2  A    between atoms: N_2  and  C_3
REMARK    3  A    between atoms: N_2  and  C_4
REMARK    4  A    between atoms: C_7  and  C_8
REMARK    5  A    between atoms: C_8  and  N_9
REMARK    6  A    between atoms: C_10  and  C_12
REMARK                            x       y       z     vdW  Elec       q    Type
REMARK                         _______ _______ _______ _____ _____    ______ ____
ROOT
ATOM      1  C   UNL     1       7.159   4.597  16.864  0.00  0.00    +0.000 C 
ATOM      2  C   UNL     1       7.903   4.838  18.192  0.00  0.00    +0.000 C 
ATOM      3  C   UNL     1       7.486   6.154  18.861  0.00  0.00    +0.000 C 
ATOM      4  N   UNL     1       7.679   7.233  17.902  0.00  0.00    +0.000 N 
ATOM      5  C   UNL     1       8.052   8.492  18.244  0.00  0.00    +0.000 A 
ATOM      6  N   UNL     1       7.727   9.596  17.605  0.00  0.00    +0.000 NA
ATOM      7  C   UNL     1       8.553  10.567  18.084  0.00  0.00    +0.000 A 
ATOM      8  C   UNL     1       8.674  11.895  17.664  0.00  0.00    +0.000 A 
ATOM      9  C   UNL     1       9.663  12.693  18.253  0.00  0.00    +0.000 A 
ATOM     10  C   UNL     1      10.495  12.170  19.247  0.00  0.00    +0.000 A 
ATOM     11 CL   UNL     1      11.722  13.175  19.922  0.00  0.00    +0.000 Cl
ATOM     12  C   UNL     1      10.369  10.847  19.700  0.00  0.00    +0.000 A 
ATOM     13  C   UNL     1       9.376  10.073  19.089  0.00  0.00    +0.000 A 
ATOM     14  N   UNL     1       8.977   8.763  19.225  0.00  0.00    +0.000 N 
ATOM     15  C   UNL     1       6.869   7.111  16.681  0.00  0.00    +0.000 C 
ATOM     16  C   UNL     1       7.271   5.828  15.956  0.00  0.00    +0.000 C 
ATOM     17  H   UNL     1       9.387   8.082  19.841  0.00  0.00    +0.000 HD
ENDROOT
BRANCH   1  19
ATOM     18  N   UNL     1       5.268   4.361  18.383  0.00  0.00    +0.000 N 
ATOM     19  C   UNL     1       5.695   4.205  17.086  0.00  0.00    +0.000 C 
ATOM     20  O   UNL     1       4.970   3.783  16.196  0.00  0.00    +0.000 OA
ATOM     21  H   UNL     1       5.949   4.467  19.122  0.00  0.00    +0.000 HD
BRANCH  18  22
ATOM     22  C   UNL     1       3.913   4.030  18.770  0.00  0.00    +0.000 C 
BRANCH  22  26
ATOM     23  C   UNL     1       1.766   7.633  19.993  0.00  0.00    +0.000 A 
ATOM     24  C   UNL     1       2.542   7.583  18.824  0.00  0.00    +0.000 A 
ATOM     25  C   UNL     1       3.237   6.429  18.438  0.00  0.00    +0.000 A 
ATOM     26  C   UNL     1       3.170   5.263  19.205  0.00  0.00    +0.000 A 
ATOM     27  C   UNL     1       2.380   5.275  20.355  0.00  0.00    +0.000 A 
ATOM     28  C   UNL     1       1.693   6.440  20.734  0.00  0.00    +0.000 A 
BRANCH  23  30
ATOM     29  C   UNL     1       0.129   8.735  21.485  0.00  0.00    +0.000 C 
ATOM     30  N   UNL     1       1.087   8.789  20.386  0.00  0.00    +0.000 N 
ATOM     31  C   UNL     1       0.931   9.877  19.426  0.00  0.00    +0.000 C 
ENDBRANCH  23  30
ENDBRANCH  22  26
ENDBRANCH  18  22
ENDBRANCH   1  19
TORSDOF 4
ENDMDL
MODEL 5
REMARK VINA RESULT:      -7.5      0.903      1.319
REMARK  Name = 
REMARK  6 active torsions:
REMARK  status: ('A' for Active; 'I' for Inactive)
REMARK    1  A    between atoms: C_1  and  N_2
REMARK    2  A    between atoms: N_2  and  C_3
REMARK    3  A    between atoms: N_2  and  C_4
REMARK    4  A    between atoms: C_7  and  C_8
REMARK    5  A    between atoms: C_8  and  N_9
REMARK    6  A    between atoms: C_10  and  C_12
REMARK                            x       y       z     vdW  Elec       q    Type
REMARK                         _______ _______ _______ _____ _____    ______ ____
ROOT
ATOM      1  C   UNL     1       7.174   4.786  17.140  0.00  0.00    +0.000 C 
ATOM      2  C   UNL     1       7.968   5.063  18.431  0.00  0.00    +0.000 C 
ATOM      3  C   UNL     1       7.593   6.407  19.067  0.00  0.00    +0.000 C 
ATOM      4  N   UNL     1       7.768   7.449  18.064  0.00  0.00    +0.000 N 
ATOM      5  C   UNL     1       8.170   8.714  18.348  0.00  0.00    +0.000 A 
ATOM      6  N   UNL     1       7.838   9.799  17.681  0.00  0.00    +0.000 NA
ATOM      7  C   UNL     1       8.693  10.774  18.096  0.00  0.00    +0.000 A 
ATOM      8  C   UNL     1       8.817  12.084  17.625  0.00  0.00    +0.000 A 
ATOM      9  C   UNL     1       9.838  12.888  18.150  0.00  0.00    +0.000 A 
ATOM     10  C   UNL     1      10.697  12.388  19.132  0.00  0.00    +0.000 A 
ATOM     11 CL   UNL     1      11.961  13.398  19.727  0.00  0.00    +0.000 Cl
ATOM     12  C   UNL     1      10.569  11.083  19.636  0.00  0.00    +0.000 A 
ATOM     13  C   UNL     1       9.545  10.303  19.089  0.00  0.00    +0.000 A 
ATOM     14  N   UNL     1       9.133   9.005  19.286  0.00  0.00    +0.000 N 
ATOM     15  C   UNL     1       6.913   7.296  16.877  0.00  0.00    +0.000 C 
ATOM     16  C   UNL     1       7.271   5.983  16.185  0.00  0.00    +0.000 C 
ATOM     17  H   UNL     1       9.554   8.341  19.911  0.00  0.00    +0.000 HD
ENDROOT
BRANCH   1  19
ATOM     18  N   UNL     1       5.151   5.153  18.446  0.00  0.00    +0.000 N 
ATOM     19  C   UNL     1       5.715   4.424  17.427  0.00  0.00    +0.000 C 
ATOM     20  O   UNL     1       5.103   3.561  16.813  0.00  0.00    +0.000 OA
ATOM     21  H   UNL     1       5.747   5.665  19.081  0.00  0.00    +0.000 HD
BRANCH  18  22
ATOM     22  C   UNL     1       3.779   4.934  18.854  0.00  0.00    +0.000 C 
BRANCH  22  26
ATOM     23  C   UNL     1       1.614   8.717  19.147  0.00  0.00    +0.000 A 
ATOM     24  C   UNL     1       1.675   7.803  20.212  0.00  0.00    +0.000 A 
ATOM     25  C   UNL     1       2.363   6.587  20.112  0.00  0.00    +0.000 A 
ATOM     26  C   UNL     1       3.036   6.239  18.938  0.00  0.00    +0.000 A 
ATOM     27  C   UNL     1       3.019   7.143  17.876  0.00  0.00    +0.000 A 
ATOM     28  C   UNL     1       2.322   8.357  17.986  0.00  0.00    +0.000 A 
BRANCH  23  30
ATOM     29  C   UNL     1       1.500  11.150  18.713  0.00  0.00    +0.000 C 
ATOM     30  N   UNL     1       0.915   9.923  19.241  0.00  0.00    +0.000 N 
ATOM     31  C   UNL     1      -0.105  10.068  20.275  0.00  0.00    +0.000 C 
ENDBRANCH  23  30
ENDBRANCH  22  26
ENDBRANCH  18  22
ENDBRANCH   1  19
TORSDOF 4
ENDMDL
MODEL 6
REMARK VINA RESULT:      -7.5      3.091      7.829
REMARK  Name = 
REMARK  6 active torsions:
REMARK  status: ('A' for Active; 'I' for Inactive)
REMARK    1  A    between atoms: C_1  and  N_2
REMARK    2  A    between atoms: N_2  and  C_3
REMARK    3  A    between atoms: N_2  and  C_4
REMARK    4  A    between atoms: C_7  and  C_8
REMARK    5  A    between atoms: C_8  and  N_9
REMARK    6  A    between atoms: C_10  and  C_12
REMARK                            x       y       z     vdW  Elec       q    Type
REMARK                         _______ _______ _______ _____ _____    ______ ____
ROOT
ATOM      1  C   UNL     1       2.566   4.633  18.702  0.00  0.00    +0.000 C 
ATOM      2  C   UNL     1       2.251   5.889  17.867  0.00  0.00    +0.000 C 
ATOM      3  C   UNL     1       2.559   7.185  18.628  0.00  0.00    +0.000 C 
ATOM      4  N   UNL     1       1.836   7.153  19.892  0.00  0.00    +0.000 N 
ATOM      5  C   UNL     1       1.325   8.254  20.499  0.00  0.00    +0.000 A 
ATOM      6  N   UNL     1       1.176   8.423  21.796  0.00  0.00    +0.000 NA
ATOM      7  C   UNL     1       0.355   9.498  21.945  0.00  0.00    +0.000 A 
ATOM      8  C   UNL     1      -0.184  10.028  23.121  0.00  0.00    +0.000 A 
ATOM      9  C   UNL     1      -1.084  11.099  23.020  0.00  0.00    +0.000 A 
ATOM     10  C   UNL     1      -1.417  11.626  21.770  0.00  0.00    +0.000 A 
ATOM     11 CL   UNL     1      -2.553  12.919  21.686  0.00  0.00    +0.000 Cl
ATOM     12  C   UNL     1      -0.864  11.123  20.581  0.00  0.00    +0.000 A 
ATOM     13  C   UNL     1       0.026  10.052  20.713  0.00  0.00    +0.000 A 
ATOM     14  N   UNL     1       0.726   9.284  19.811  0.00  0.00    +0.000 N 
ATOM     15  C   UNL     1       2.219   6.047  20.781  0.00  0.00    +0.000 C 
ATOM     16  C   UNL     1       1.901   4.727  20.081  0.00  0.00    +0.000 C 
ATOM     17  H   UNL     1       0.696   9.374  18.811  0.00  0.00    +0.000 HD
ENDROOT
BRANCH   1  19
ATOM     18  N   UNL     1       4.806   4.875  17.776  0.00  0.00    +0.000 N 
ATOM     19  C   UNL     1       4.071   4.388  18.830  0.00  0.00    +0.000 C 
ATOM     20  O   UNL     1       4.579   3.805  19.778  0.00  0.00    +0.000 OA
ATOM     21  H   UNL     1       4.339   5.118  16.914  0.00  0.00    +0.000 HD
BRANCH  18  22
ATOM     22  C   UNL     1       6.245   4.722  17.733  0.00  0.00    +0.000 C 
BRANCH  22  26
ATOM     23  C   UNL     1       8.251   8.553  18.361  0.00  0.00    +0.000 A 
ATOM     24  C   UNL     1       8.552   7.413  19.126  0.00  0.00    +0.000 A 
ATOM     25  C   UNL     1       7.902   6.189  18.928  0.00  0.00    +0.000 A 
ATOM     26  C   UNL     1       6.925   6.048  17.938  0.00  0.00    +0.000 A 
ATOM     27  C   UNL     1       6.629   7.155  17.143  0.00  0.00    +0.000 A 
ATOM     28  C   UNL     1       7.284   8.379  17.354  0.00  0.00    +0.000 A 
BRANCH  23  30
ATOM     29  C   UNL     1       9.343  10.147  19.905  0.00  0.00    +0.000 C 
ATOM     30  N   UNL     1       8.888   9.778  18.569  0.00  0.00    +0.000 N 
ATOM     31  C   UNL     1       8.646  10.867  17.628  0.00  0.00    +0.000 C 
ENDBRANCH  23  30
ENDBRANCH  22  26
ENDBRANCH  18  22
ENDBRANCH   1  19
TORSDOF 4
ENDMDL
MODEL 7
REMARK VINA RESULT:      -7.2      4.840      8.999
REMARK  Name = 
REMARK  6 active torsions:
REMARK  status: ('A' for Active; 'I' for Inactive)
REMARK    1  A    between atoms: C_1  and  N_2
REMARK    2  A    between atoms: N_2  and  C_3
REMARK    3  A    between atoms: N_2  and  C_4
REMARK    4  A    between atoms: C_7  and  C_8
REMARK    5  A    between atoms: C_8  and  N_9
REMARK    6  A    between atoms: C_10  and  C_12
REMARK                            x       y       z     vdW  Elec       q    Type
REMARK                         _______ _______ _______ _____ _____    ______ ____
ROOT
ATOM      1  C   UNL     1      -1.176  11.251  19.778  0.00  0.00    +0.000 C 
ATOM      2  C   UNL     1      -0.770  10.344  20.955  0.00  0.00    +0.000 C 
ATOM      3  C   UNL     1       0.711   9.950  20.901  0.00  0.00    +0.000 C 
ATOM      4  N   UNL     1       0.973   9.340  19.604  0.00  0.00    +0.000 N 
ATOM      5  C   UNL     1       1.867   8.339  19.404  0.00  0.00    +0.000 A 
ATOM      6  N   UNL     1       2.552   8.123  18.301  0.00  0.00    +0.000 NA
ATOM      7  C   UNL     1       3.069   6.869  18.418  0.00  0.00    +0.000 A 
ATOM      8  C   UNL     1       3.795   6.134  17.476  0.00  0.00    +0.000 A 
ATOM      9  C   UNL     1       4.152   4.815  17.790  0.00  0.00    +0.000 A 
ATOM     10  C   UNL     1       3.800   4.263  19.024  0.00  0.00    +0.000 A 
ATOM     11 CL   UNL     1       4.229   2.627  19.358  0.00  0.00    +0.000 Cl
ATOM     12  C   UNL     1       3.096   4.997  19.992  0.00  0.00    +0.000 A 
ATOM     13  C   UNL     1       2.748   6.307  19.648  0.00  0.00    +0.000 A 
ATOM     14  N   UNL     1       2.047   7.302  20.289  0.00  0.00    +0.000 N 
ATOM     15  C   UNL     1       0.736  10.231  18.458  0.00  0.00    +0.000 C 
ATOM     16  C   UNL     1      -0.739  10.628  18.446  0.00  0.00    +0.000 C 
ATOM     17  H   UNL     1       1.620   7.232  21.196  0.00  0.00    +0.000 HD
ENDROOT
BRANCH   1  19
ATOM     18  N   UNL     1      -0.646  13.403  18.766  0.00  0.00    +0.000 N 
ATOM     19  C   UNL     1      -0.628  12.672  19.929  0.00  0.00    +0.000 C 
ATOM     20  O   UNL     1      -0.204  13.119  20.986  0.00  0.00    +0.000 OA
ATOM     21  H   UNL     1      -0.764  12.928  17.881  0.00  0.00    +0.000 HD
BRANCH  18  22
ATOM     22  C   UNL     1      -0.157  14.765  18.729  0.00  0.00    +0.000 C 
BRANCH  22  26
ATOM     23  C   UNL     1       4.202  14.878  18.999  0.00  0.00    +0.000 A 
ATOM     24  C   UNL     1       3.386  15.835  19.625  0.00  0.00    +0.000 A 
ATOM     25  C   UNL     1       1.989  15.801  19.530  0.00  0.00    +0.000 A 
ATOM     26  C   UNL     1       1.344  14.792  18.811  0.00  0.00    +0.000 A 
ATOM     27  C   UNL     1       2.129  13.810  18.205  0.00  0.00    +0.000 A 
ATOM     28  C   UNL     1       3.529  13.858  18.303  0.00  0.00    +0.000 A 
BRANCH  23  30
ATOM     29  C   UNL     1       6.242  15.445  20.278  0.00  0.00    +0.000 C 
ATOM     30  N   UNL     1       5.595  14.921  19.080  0.00  0.00    +0.000 N 
ATOM     31  C   UNL     1       6.374  14.944  17.845  0.00  0.00    +0.000 C 
ENDBRANCH  23  30
ENDBRANCH  22  26
ENDBRANCH  18  22
ENDBRANCH   1  19
TORSDOF 4
ENDMDL
MODEL 8
REMARK VINA RESULT:      -7.2      4.568      8.934
REMARK  Name = 
REMARK  6 active torsions:
REMARK  status: ('A' for Active; 'I' for Inactive)
REMARK    1  A    between atoms: C_1  and  N_2
REMARK    2  A    between atoms: N_2  and  C_3
REMARK    3  A    between atoms: N_2  and  C_4
REMARK    4  A    between atoms: C_7  and  C_8
REMARK    5  A    between atoms: C_8  and  N_9
REMARK    6  A    between atoms: C_10  and  C_12
REMARK                            x       y       z     vdW  Elec       q    Type
REMARK                         _______ _______ _______ _____ _____    ______ ____
ROOT
ATOM      1  C   UNL     1      -0.318  10.827  19.854  0.00  0.00    +0.000 C 
ATOM      2  C   UNL     1      -0.323   9.588  20.769  0.00  0.00    +0.000 C 
ATOM      3  C   UNL     1       1.059   8.929  20.862  0.00  0.00    +0.000 C 
ATOM      4  N   UNL     1       1.514   8.631  19.511  0.00  0.00    +0.000 N 
ATOM      5  C   UNL     1       2.275   7.554  19.189  0.00  0.00    +0.000 A 
ATOM      6  N   UNL     1       3.150   7.492  18.208  0.00  0.00    +0.000 NA
ATOM      7  C   UNL     1       3.440   6.172  18.044  0.00  0.00    +0.000 A 
ATOM      8  C   UNL     1       4.243   5.569  17.071  0.00  0.00    +0.000 A 
ATOM      9  C   UNL     1       4.325   4.170  17.046  0.00  0.00    +0.000 A 
ATOM     10  C   UNL     1       3.629   3.405  17.985  0.00  0.00    +0.000 A 
ATOM     11 CL   UNL     1       3.729   1.686  17.899  0.00  0.00    +0.000 Cl
ATOM     12  C   UNL     1       2.840   3.995  18.985  0.00  0.00    +0.000 A 
ATOM     13  C   UNL     1       2.773   5.392  18.981  0.00  0.00    +0.000 A 
ATOM     14  N   UNL     1       2.098   6.311  19.751  0.00  0.00    +0.000 N 
ATOM     15  C   UNL     1       1.672   9.812  18.650  0.00  0.00    +0.000 C 
ATOM     16  C   UNL     1       0.311  10.489  18.496  0.00  0.00    +0.000 C 
ATOM     17  H   UNL     1       1.473   6.101  20.510  0.00  0.00    +0.000 HD
ENDROOT
BRANCH   1  19
ATOM     18  N   UNL     1       0.264  13.193  19.795  0.00  0.00    +0.000 N 
ATOM     19  C   UNL     1       0.383  12.022  20.505  0.00  0.00    +0.000 C 
ATOM     20  O   UNL     1       1.002  11.946  21.558  0.00  0.00    +0.000 OA
ATOM     21  H   UNL     1      -0.030  13.161  18.828  0.00  0.00    +0.000 HD
BRANCH  18  22
ATOM     22  C   UNL     1       0.873  14.419  20.264  0.00  0.00    +0.000 C 
BRANCH  22  26
ATOM     23  C   UNL     1       4.907  14.890  18.653  0.00  0.00    +0.000 A 
ATOM     24  C   UNL     1       4.559  15.321  19.944  0.00  0.00    +0.000 A 
ATOM     25  C   UNL     1       3.263  15.177  20.455  0.00  0.00    +0.000 A 
ATOM     26  C   UNL     1       2.256  14.576  19.695  0.00  0.00    +0.000 A 
ATOM     27  C   UNL     1       2.582  14.109  18.421  0.00  0.00    +0.000 A 
ATOM     28  C   UNL     1       3.883  14.264  17.918  0.00  0.00    +0.000 A 
BRANCH  23  30
ATOM     29  C   UNL     1       6.913  13.899  17.599  0.00  0.00    +0.000 C 
ATOM     30  N   UNL     1       6.195  15.049  18.137  0.00  0.00    +0.000 N 
ATOM     31  C   UNL     1       7.000  16.180  18.586  0.00  0.00    +0.000 C 
ENDBRANCH  23  30
ENDBRANCH  22  26
ENDBRANCH  18  22
ENDBRANCH   1  19
TORSDOF 4
ENDMDL
MODEL 9
REMARK VINA RESULT:      -7.1      5.890      9.540
REMARK  Name = 
REMARK  6 active torsions:
REMARK  status: ('A' for Active; 'I' for Inactive)
REMARK    1  A    between atoms: C_1  and  N_2
REMARK    2  A    between atoms: N_2  and  C_3
REMARK    3  A    between atoms: N_2  and  C_4
REMARK    4  A    between atoms: C_7  and  C_8
REMARK    5  A    between atoms: C_8  and  N_9
REMARK    6  A    between atoms: C_10  and  C_12
REMARK                            x       y       z     vdW  Elec       q    Type
REMARK                         _______ _______ _______ _____ _____    ______ ____
ROOT
ATOM      1  C   UNL     1      -0.531  10.815  20.989  0.00  0.00    +0.000 C 
ATOM      2  C   UNL     1      -0.287   9.640  21.955  0.00  0.00    +0.000 C 
ATOM      3  C   UNL     1       1.104   9.021  21.777  0.00  0.00    +0.000 C 
ATOM      4  N   UNL     1       1.259   8.642  20.379  0.00  0.00    +0.000 N 
ATOM      5  C   UNL     1       1.969   7.564  19.961  0.00  0.00    +0.000 A 
ATOM      6  N   UNL     1       2.608   7.456  18.815  0.00  0.00    +0.000 NA
ATOM      7  C   UNL     1       2.903   6.135  18.670  0.00  0.00    +0.000 A 
ATOM      8  C   UNL     1       3.493   5.487  17.581  0.00  0.00    +0.000 A 
ATOM      9  C   UNL     1       3.619   4.092  17.623  0.00  0.00    +0.000 A 
ATOM     10  C   UNL     1       3.177   3.376  18.737  0.00  0.00    +0.000 A 
ATOM     11 CL   UNL     1       3.320   1.658  18.735  0.00  0.00    +0.000 Cl
ATOM     12  C   UNL     1       2.608   4.013  19.851  0.00  0.00    +0.000 A 
ATOM     13  C   UNL     1       2.489   5.405  19.778  0.00  0.00    +0.000 A 
ATOM     14  N   UNL     1       1.968   6.358  20.622  0.00  0.00    +0.000 N 
ATOM     15  C   UNL     1       1.179   9.767  19.435  0.00  0.00    +0.000 C 
ATOM     16  C   UNL     1      -0.206  10.400  19.548  0.00  0.00    +0.000 C 
ATOM     17  H   UNL     1       1.535   6.185  21.513  0.00  0.00    +0.000 HD
ENDROOT
BRANCH   1  19
ATOM     18  N   UNL     1      -0.543  13.119  21.780  0.00  0.00    +0.000 N 
ATOM     19  C   UNL     1       0.252  12.067  21.394  0.00  0.00    +0.000 C 
ATOM     20  O   UNL     1       1.473  12.132  21.371  0.00  0.00    +0.000 OA
ATOM     21  H   UNL     1      -1.526  13.112  21.549  0.00  0.00    +0.000 HD
BRANCH  18  22
ATOM     22  C   UNL     1       0.035  14.383  22.188  0.00  0.00    +0.000 C 
BRANCH  22  26
ATOM     23  C   UNL     1       0.933  16.836  18.686  0.00  0.00    +0.000 A 
ATOM     24  C   UNL     1      -0.270  16.122  18.814  0.00  0.00    +0.000 A 
ATOM     25  C   UNL     1      -0.552  15.330  19.934  0.00  0.00    +0.000 A 
ATOM     26  C   UNL     1       0.359  15.230  20.988  0.00  0.00    +0.000 A 
ATOM     27  C   UNL     1       1.549  15.954  20.902  0.00  0.00    +0.000 A 
ATOM     28  C   UNL     1       1.822  16.741  19.772  0.00  0.00    +0.000 A 
BRANCH  23  30
ATOM     29  C   UNL     1       0.148  18.304  16.857  0.00  0.00    +0.000 C 
ATOM     30  N   UNL     1       1.221  17.613  17.562  0.00  0.00    +0.000 N 
ATOM     31  C   UNL     1       2.438  17.335  16.805  0.00  0.00    +0.000 C 
ENDBRANCH  23  30
ENDBRANCH  22  26
ENDBRANCH  18  22
ENDBRANCH   1  19
TORSDOF 4
ENDMDL
