MODEL 1
REMARK VINA RESULT:      -7.7      0.000      0.000
REMARK  Name = 
REMARK  4 active torsions:
REMARK  status: ('A' for Active; 'I' for Inactive)
REMARK    1  A    between atoms: C_2  and  C_11
REMARK    2  A    between atoms: N_3  and  C_4
REMARK    3  A    between atoms: C_15  and  N_16
REMARK    4  A    between atoms: C_17  and  C_19
REMARK                            x       y       z     vdW  Elec       q    Type
REMARK                         _______ _______ _______ _____ _____    ______ ____
ROOT
ATOM      1  C   UNL     1       2.570   4.614  20.200  0.00  0.00    +0.000 A 
ATOM      2  C   UNL     1       2.624   3.561  21.117  0.00  0.00    +0.000 A 
ATOM      3  C   UNL     1       3.398   2.445  20.820  0.00  0.00    +0.000 A 
ATOM      4  C   UNL     1       4.124   2.389  19.626  0.00  0.00    +0.000 A 
ATOM      5  C   UNL     1       4.089   3.440  18.703  0.00  0.00    +0.000 A 
ATOM      6  C   UNL     1       3.292   4.553  18.994  0.00  0.00    +0.000 A 
ENDROOT
BRANCH   1   8
ATOM      7  O   UNL     1       0.503   5.575  20.686  0.00  0.00    +0.000 OA
ATOM      8  C   UNL     1       1.688   5.776  20.461  0.00  0.00    +0.000 C 
ATOM      9  N   UNL     1       2.300   7.014  20.344  0.00  0.00    +0.000 N 
ATOM     10  H   UNL     1       3.133   7.055  19.765  0.00  0.00    +0.000 HD
BRANCH   9  11
ATOM     11  C   UNL     1       1.598   8.232  20.506  0.00  0.00    +0.000 A 
ATOM     12  C   UNL     1       1.181   8.662  21.770  0.00  0.00    +0.000 A 
ATOM     13  C   UNL     1       0.496   9.874  21.914  0.00  0.00    +0.000 A 
ATOM     14  C   UNL     1       0.204  10.650  20.793  0.00  0.00    +0.000 A 
ATOM     15  C   UNL     1       0.615  10.229  19.528  0.00  0.00    +0.000 A 
ATOM     16  C   UNL     1       1.328   9.034  19.388  0.00  0.00    +0.000 A 
ATOM     17 CL   UNL     1       1.788   8.530  17.799  0.00  0.00    +0.000 Cl
ENDBRANCH   9  11
ENDBRANCH   1   8
BRANCH   5  18
ATOM     18  N   UNL     1       4.806   3.429  17.482  0.00  0.00    +0.000 N 
ATOM     19  C   UNL     1       5.803   4.313  17.100  0.00  0.00    +0.000 C 
ATOM     20  O   UNL     1       6.213   5.264  17.759  0.00  0.00    +0.000 OA
ATOM     21  H   UNL     1       4.571   2.689  16.830  0.00  0.00    +0.000 HD
BRANCH  19  22
ATOM     22  C   UNL     1       6.419   3.988  15.742  0.00  0.00    +0.000 C 
ATOM     23  C   UNL     1       5.400   3.800  14.623  0.00  0.00    +0.000 C 
ATOM     24  C   UNL     1       6.227   3.948  13.351  0.00  0.00    +0.000 C 
ATOM     25  C   UNL     1       7.362   4.908  13.699  0.00  0.00    +0.000 C 
ATOM     26  C   UNL     1       7.275   5.139  15.202  0.00  0.00    +0.000 C 
ENDBRANCH  19  22
ENDBRANCH   5  18
TORSDOF 4
ENDMDL
MODEL 2
REMARK VINA RESULT:      -7.6      1.941      2.528
REMARK  Name = 
REMARK  4 active torsions:
REMARK  status: ('A' for Active; 'I' for Inactive)
REMARK    1  A    between atoms: C_2  and  C_11
REMARK    2  A    between atoms: N_3  and  C_4
REMARK    3  A    between atoms: C_15  and  N_16
REMARK    4  A    between atoms: C_17  and  C_19
REMARK                            x       y       z     vdW  Elec       q    Type
REMARK                         _______ _______ _______ _____ _____    ______ ____
ROOT
ATOM      1  C   UNL     1       3.116   6.638  18.467  0.00  0.00    +0.000 A 
ATOM      2  C   UNL     1       3.084   5.884  19.642  0.00  0.00    +0.000 A 
ATOM      3  C   UNL     1       3.693   4.634  19.659  0.00  0.00    +0.000 A 
ATOM      4  C   UNL     1       4.342   4.151  18.518  0.00  0.00    +0.000 A 
ATOM      5  C   UNL     1       4.392   4.900  17.338  0.00  0.00    +0.000 A 
ATOM      6  C   UNL     1       3.759   6.148  17.315  0.00  0.00    +0.000 A 
ENDROOT
BRANCH   1   8
ATOM      7  O   UNL     1       2.614   8.677  17.454  0.00  0.00    +0.000 OA
ATOM      8  C   UNL     1       2.403   7.937  18.404  0.00  0.00    +0.000 C 
ATOM      9  N   UNL     1       1.605   8.220  19.501  0.00  0.00    +0.000 N 
ATOM     10  H   UNL     1       1.839   7.745  20.367  0.00  0.00    +0.000 HD
BRANCH   9  11
ATOM     11  C   UNL     1       0.894   9.436  19.635  0.00  0.00    +0.000 A 
ATOM     12  C   UNL     1       0.339  10.075  18.521  0.00  0.00    +0.000 A 
ATOM     13  C   UNL     1      -0.369  11.272  18.672  0.00  0.00    +0.000 A 
ATOM     14  C   UNL     1      -0.507  11.849  19.934  0.00  0.00    +0.000 A 
ATOM     15  C   UNL     1       0.044  11.220  21.052  0.00  0.00    +0.000 A 
ATOM     16  C   UNL     1       0.723  10.006  20.905  0.00  0.00    +0.000 A 
ATOM     17 CL   UNL     1       1.420   9.277  22.309  0.00  0.00    +0.000 Cl
ENDBRANCH   9  11
ENDBRANCH   1   8
BRANCH   5  18
ATOM     18  N   UNL     1       5.036   4.454  16.157  0.00  0.00    +0.000 N 
ATOM     19  C   UNL     1       6.184   4.985  15.591  0.00  0.00    +0.000 C 
ATOM     20  O   UNL     1       6.819   5.945  16.015  0.00  0.00    +0.000 OA
ATOM     21  H   UNL     1       4.618   3.656  15.692  0.00  0.00    +0.000 HD
BRANCH  19  22
ATOM     22  C   UNL     1       6.655   4.231  14.350  0.00  0.00    +0.000 C 
ATOM     23  C   UNL     1       5.524   3.706  13.471  0.00  0.00    +0.000 C 
ATOM     24  C   UNL     1       6.203   3.426  12.136  0.00  0.00    +0.000 C 
ATOM     25  C   UNL     1       7.346   4.432  12.027  0.00  0.00    +0.000 C 
ATOM     26  C   UNL     1       7.419   5.136  13.377  0.00  0.00    +0.000 C 
ENDBRANCH  19  22
ENDBRANCH   5  18
TORSDOF 4
ENDMDL
MODEL 3
REMARK VINA RESULT:      -7.6      0.822      1.241
REMARK  Name = 
REMARK  4 active torsions:
REMARK  status: ('A' for Active; 'I' for Inactive)
REMARK    1  A    between atoms: C_2  and  C_11
REMARK    2  A    between atoms: N_3  and  C_4
REMARK    3  A    between atoms: C_15  and  N_16
REMARK    4  A    between atoms: C_17  and  C_19
REMARK                            x       y       z     vdW  Elec       q    Type
REMARK                         _______ _______ _______ _____ _____    ______ ____
ROOT
ATOM      1  C   UNL     1       2.839   4.887  19.599  0.00  0.00    +0.000 A 
ATOM      2  C   UNL     1       3.182   3.753  20.340  0.00  0.00    +0.000 A 
ATOM      3  C   UNL     1       3.979   2.777  19.753  0.00  0.00    +0.000 A 
ATOM      4  C   UNL     1       4.441   2.940  18.443  0.00  0.00    +0.000 A 
ATOM      5  C   UNL     1       4.116   4.074  17.692  0.00  0.00    +0.000 A 
ATOM      6  C   UNL     1       3.296   5.045  18.277  0.00  0.00    +0.000 A 
ENDROOT
BRANCH   1   8
ATOM      7  O   UNL     1       0.871   5.525  20.672  0.00  0.00    +0.000 OA
ATOM      8  C   UNL     1       1.925   5.899  20.179  0.00  0.00    +0.000 C 
ATOM      9  N   UNL     1       2.337   7.214  20.029  0.00  0.00    +0.000 N 
ATOM     10  H   UNL     1       2.981   7.404  19.267  0.00  0.00    +0.000 HD
BRANCH   9  11
ATOM     11  C   UNL     1       1.564   8.312  20.474  0.00  0.00    +0.000 A 
ATOM     12  C   UNL     1       1.270   8.487  21.831  0.00  0.00    +0.000 A 
ATOM     13  C   UNL     1       0.513   9.583  22.254  0.00  0.00    +0.000 A 
ATOM     14  C   UNL     1       0.025  10.499  21.323  0.00  0.00    +0.000 A 
ATOM     15  C   UNL     1       0.312  10.334  19.967  0.00  0.00    +0.000 A 
ATOM     16  C   UNL     1       1.097   9.256  19.548  0.00  0.00    +0.000 A 
ATOM     17 CL   UNL     1       1.400   9.067  17.855  0.00  0.00    +0.000 Cl
ENDBRANCH   9  11
ENDBRANCH   1   8
BRANCH   5  18
ATOM     18  N   UNL     1       4.559   4.284  16.363  0.00  0.00    +0.000 N 
ATOM     19  C   UNL     1       5.642   5.053  15.965  0.00  0.00    +0.000 C 
ATOM     20  O   UNL     1       6.382   5.693  16.705  0.00  0.00    +0.000 OA
ATOM     21  H   UNL     1       4.037   3.810  15.636  0.00  0.00    +0.000 HD
BRANCH  19  22
ATOM     22  C   UNL     1       5.890   5.021  14.459  0.00  0.00    +0.000 C 
ATOM     23  C   UNL     1       7.365   5.035  14.069  0.00  0.00    +0.000 C 
ATOM     24  C   UNL     1       7.362   4.545  12.626  0.00  0.00    +0.000 C 
ATOM     25  C   UNL     1       6.170   3.600  12.505  0.00  0.00    +0.000 C 
ATOM     26  C   UNL     1       5.406   3.715  13.818  0.00  0.00    +0.000 C 
ENDBRANCH  19  22
ENDBRANCH   5  18
TORSDOF 4
ENDMDL
MODEL 4
REMARK VINA RESULT:      -7.5      1.986      2.802
REMARK  Name = 
REMARK  4 active torsions:
REMARK  status: ('A' for Active; 'I' for Inactive)
REMARK    1  A    between atoms: C_2  and  C_11
REMARK    2  A    between atoms: N_3  and  C_4
REMARK    3  A    between atoms: C_15  and  N_16
REMARK    4  A    between atoms: C_17  and  C_19
REMARK                            x       y       z     vdW  Elec       q    Type
REMARK                         _______ _______ _______ _____ _____    ______ ____
ROOT
ATOM      1  C   UNL     1       1.894   7.330  19.983  0.00  0.00    +0.000 A 
ATOM      2  C   UNL     1       1.292   6.419  20.853  0.00  0.00    +0.000 A 
ATOM      3  C   UNL     1       1.597   5.067  20.735  0.00  0.00    +0.000 A 
ATOM      4  C   UNL     1       2.509   4.634  19.766  0.00  0.00    +0.000 A 
ATOM      5  C   UNL     1       3.128   5.536  18.895  0.00  0.00    +0.000 A 
ATOM      6  C   UNL     1       2.803   6.892  19.001  0.00  0.00    +0.000 A 
ENDROOT
BRANCH   1   8
ATOM      7  O   UNL     1       1.305   9.271  21.131  0.00  0.00    +0.000 OA
ATOM      8  C   UNL     1       1.520   8.763  20.040  0.00  0.00    +0.000 C 
ATOM      9  N   UNL     1       1.373   9.379  18.807  0.00  0.00    +0.000 N 
ATOM     10  H   UNL     1       1.170   8.773  18.018  0.00  0.00    +0.000 HD
BRANCH   9  11
ATOM     11  C   UNL     1       0.968  10.728  18.671  0.00  0.00    +0.000 A 
ATOM     12  C   UNL     1       1.906  11.765  18.649  0.00  0.00    +0.000 A 
ATOM     13  C   UNL     1       1.489  13.092  18.504  0.00  0.00    +0.000 A 
ATOM     14  C   UNL     1       0.132  13.393  18.403  0.00  0.00    +0.000 A 
ATOM     15  C   UNL     1      -0.813  12.365  18.425  0.00  0.00    +0.000 A 
ATOM     16  C   UNL     1      -0.394  11.036  18.536  0.00  0.00    +0.000 A 
ATOM     17 CL   UNL     1      -1.598   9.795  18.595  0.00  0.00    +0.000 Cl
ENDBRANCH   9  11
ENDBRANCH   1   8
BRANCH   5  18
ATOM     18  N   UNL     1       4.057   5.145  17.899  0.00  0.00    +0.000 N 
ATOM     19  C   UNL     1       5.358   4.714  18.105  0.00  0.00    +0.000 C 
ATOM     20  O   UNL     1       5.922   4.620  19.191  0.00  0.00    +0.000 OA
ATOM     21  H   UNL     1       3.725   5.171  16.941  0.00  0.00    +0.000 HD
BRANCH  19  22
ATOM     22  C   UNL     1       6.075   4.306  16.821  0.00  0.00    +0.000 C 
ATOM     23  C   UNL     1       5.140   3.982  15.660  0.00  0.00    +0.000 C 
ATOM     24  C   UNL     1       6.044   4.063  14.434  0.00  0.00    +0.000 C 
ATOM     25  C   UNL     1       7.114   5.098  14.770  0.00  0.00    +0.000 C 
ATOM     26  C   UNL     1       6.918   5.447  16.240  0.00  0.00    +0.000 C 
ENDBRANCH  19  22
ENDBRANCH   5  18
TORSDOF 4
ENDMDL
MODEL 5
REMARK VINA RESULT:      -7.5      1.633      7.704
REMARK  Name = 
REMARK  4 active torsions:
REMARK  status: ('A' for Active; 'I' for Inactive)
REMARK    1  A    between atoms: C_2  and  C_11
REMARK    2  A    between atoms: N_3  and  C_4
REMARK    3  A    between atoms: C_15  and  N_16
REMARK    4  A    between atoms: C_17  and  C_19
REMARK                            x       y       z     vdW  Elec       q    Type
REMARK                         _______ _______ _______ _____ _____    ______ ____
ROOT
ATOM      1  C   UNL     1       3.181   4.263  19.047  0.00  0.00    +0.000 A 
ATOM      2  C   UNL     1       2.399   3.129  19.278  0.00  0.00    +0.000 A 
ATOM      3  C   UNL     1       1.327   3.215  20.160  0.00  0.00    +0.000 A 
ATOM      4  C   UNL     1       1.032   4.428  20.792  0.00  0.00    +0.000 A 
ATOM      5  C   UNL     1       1.800   5.575  20.561  0.00  0.00    +0.000 A 
ATOM      6  C   UNL     1       2.890   5.480  19.691  0.00  0.00    +0.000 A 
ENDROOT
BRANCH   1   8
ATOM      7  O   UNL     1       5.409   3.712  18.638  0.00  0.00    +0.000 OA
ATOM      8  C   UNL     1       4.375   4.170  18.173  0.00  0.00    +0.000 C 
ATOM      9  N   UNL     1       4.213   4.698  16.902  0.00  0.00    +0.000 N 
ATOM     10  H   UNL     1       3.484   5.395  16.790  0.00  0.00    +0.000 HD
BRANCH   9  11
ATOM     11  C   UNL     1       5.262   4.743  15.954  0.00  0.00    +0.000 A 
ATOM     12  C   UNL     1       5.305   3.847  14.880  0.00  0.00    +0.000 A 
ATOM     13  C   UNL     1       6.344   3.912  13.947  0.00  0.00    +0.000 A 
ATOM     14  C   UNL     1       7.359   4.856  14.093  0.00  0.00    +0.000 A 
ATOM     15  C   UNL     1       7.326   5.754  15.160  0.00  0.00    +0.000 A 
ATOM     16  C   UNL     1       6.270   5.712  16.075  0.00  0.00    +0.000 A 
ATOM     17 CL   UNL     1       6.285   6.818  17.404  0.00  0.00    +0.000 Cl
ENDBRANCH   9  11
ENDBRANCH   1   8
BRANCH   5  18
ATOM     18  N   UNL     1       1.540   6.823  21.177  0.00  0.00    +0.000 N 
ATOM     19  C   UNL     1       1.508   8.062  20.555  0.00  0.00    +0.000 C 
ATOM     20  O   UNL     1       1.719   8.275  19.365  0.00  0.00    +0.000 OA
ATOM     21  H   UNL     1       1.345   6.802  22.172  0.00  0.00    +0.000 HD
BRANCH  19  22
ATOM     22  C   UNL     1       1.136   9.206  21.494  0.00  0.00    +0.000 C 
ATOM     23  C   UNL     1       0.654  10.466  20.781  0.00  0.00    +0.000 C 
ATOM     24  C   UNL     1      -0.064  11.248  21.875  0.00  0.00    +0.000 C 
ATOM     25  C   UNL     1      -0.631  10.204  22.834  0.00  0.00    +0.000 C 
ATOM     26  C   UNL     1      -0.067   8.863  22.379  0.00  0.00    +0.000 C 
ENDBRANCH  19  22
ENDBRANCH   5  18
TORSDOF 4
ENDMDL
MODEL 6
REMARK VINA RESULT:      -7.5      1.991      8.181
REMARK  Name = 
REMARK  4 active torsions:
REMARK  status: ('A' for Active; 'I' for Inactive)
REMARK    1  A    between atoms: C_2  and  C_11
REMARK    2  A    between atoms: N_3  and  C_4
REMARK    3  A    between atoms: C_15  and  N_16
REMARK    4  A    between atoms: C_17  and  C_19
REMARK                            x       y       z     vdW  Elec       q    Type
REMARK                         _______ _______ _______ _____ _____    ______ ____
ROOT
ATOM      1  C   UNL     1       3.080   5.525  18.548  0.00  0.00    +0.000 A 
ATOM      2  C   UNL     1       2.677   4.236  18.902  0.00  0.00    +0.000 A 
ATOM      3  C   UNL     1       1.878   4.062  20.026  0.00  0.00    +0.000 A 
ATOM      4  C   UNL     1       1.472   5.169  20.779  0.00  0.00    +0.000 A 
ATOM      5  C   UNL     1       1.858   6.467  20.430  0.00  0.00    +0.000 A 
ATOM      6  C   UNL     1       2.681   6.637  19.312  0.00  0.00    +0.000 A 
ENDROOT
BRANCH   1   8
ATOM      7  O   UNL     1       4.091   6.838  16.908  0.00  0.00    +0.000 OA
ATOM      8  C   UNL     1       3.998   5.723  17.400  0.00  0.00    +0.000 C 
ATOM      9  N   UNL     1       4.617   4.571  16.941  0.00  0.00    +0.000 N 
ATOM     10  H   UNL     1       4.153   3.692  17.149  0.00  0.00    +0.000 HD
BRANCH   9  11
ATOM     11  C   UNL     1       5.483   4.563  15.822  0.00  0.00    +0.000 A 
ATOM     12  C   UNL     1       5.050   4.096  14.577  0.00  0.00    +0.000 A 
ATOM     13  C   UNL     1       5.916   4.105  13.479  0.00  0.00    +0.000 A 
ATOM     14  C   UNL     1       7.226   4.558  13.624  0.00  0.00    +0.000 A 
ATOM     15  C   UNL     1       7.669   5.026  14.862  0.00  0.00    +0.000 A 
ATOM     16  C   UNL     1       6.793   5.049  15.952  0.00  0.00    +0.000 A 
ATOM     17 CL   UNL     1       7.390   5.602  17.478  0.00  0.00    +0.000 Cl
ENDBRANCH   9  11
ENDBRANCH   1   8
BRANCH   5  18
ATOM     18  N   UNL     1       1.474   7.618  21.162  0.00  0.00    +0.000 N 
ATOM     19  C   UNL     1       1.139   8.857  20.637  0.00  0.00    +0.000 C 
ATOM     20  O   UNL     1       1.141   9.160  19.448  0.00  0.00    +0.000 OA
ATOM     21  H   UNL     1       1.427   7.515  22.169  0.00  0.00    +0.000 HD
BRANCH  19  22
ATOM     22  C   UNL     1       0.709   9.870  21.695  0.00  0.00    +0.000 C 
ATOM     23  C   UNL     1       0.055  11.125  21.126  0.00  0.00    +0.000 C 
ATOM     24  C   UNL     1      -0.672  11.728  22.323  0.00  0.00    +0.000 C 
ATOM     25  C   UNL     1      -1.066  10.550  23.211  0.00  0.00    +0.000 C 
ATOM     26  C   UNL     1      -0.395   9.323  22.607  0.00  0.00    +0.000 C 
ENDBRANCH  19  22
ENDBRANCH   5  18
TORSDOF 4
ENDMDL
MODEL 7
REMARK VINA RESULT:      -7.5      2.189      2.984
REMARK  Name = 
REMARK  4 active torsions:
REMARK  status: ('A' for Active; 'I' for Inactive)
REMARK    1  A    between atoms: C_2  and  C_11
REMARK    2  A    between atoms: N_3  and  C_4
REMARK    3  A    between atoms: C_15  and  N_16
REMARK    4  A    between atoms: C_17  and  C_19
REMARK                            x       y       z     vdW  Elec       q    Type
REMARK                         _______ _______ _______ _____ _____    ______ ____
ROOT
ATOM      1  C   UNL     1       2.283   7.864  18.773  0.00  0.00    +0.000 A 
ATOM      2  C   UNL     1       1.886   7.170  19.918  0.00  0.00    +0.000 A 
ATOM      3  C   UNL     1       2.309   5.858  20.095  0.00  0.00    +0.000 A 
ATOM      4  C   UNL     1       3.136   5.251  19.144  0.00  0.00    +0.000 A 
ATOM      5  C   UNL     1       3.551   5.937  17.997  0.00  0.00    +0.000 A 
ATOM      6  C   UNL     1       3.105   7.249  17.810  0.00  0.00    +0.000 A 
ENDROOT
BRANCH   1   8
ATOM      7  O   UNL     1       2.168   9.838  17.538  0.00  0.00    +0.000 OA
ATOM      8  C   UNL     1       1.775   9.235  18.527  0.00  0.00    +0.000 C 
ATOM      9  N   UNL     1       0.943   9.736  19.514  0.00  0.00    +0.000 N 
ATOM     10  H   UNL     1       1.034   9.325  20.438  0.00  0.00    +0.000 HD
BRANCH   9  11
ATOM     11  C   UNL     1       0.409  11.047  19.471  0.00  0.00    +0.000 A 
ATOM     12  C   UNL     1       1.033  12.103  20.145  0.00  0.00    +0.000 A 
ATOM     13  C   UNL     1       0.498  13.393  20.084  0.00  0.00    +0.000 A 
ATOM     14  C   UNL     1      -0.675  13.632  19.369  0.00  0.00    +0.000 A 
ATOM     15  C   UNL     1      -1.305  12.586  18.694  0.00  0.00    +0.000 A 
ATOM     16  C   UNL     1      -0.752  11.302  18.727  0.00  0.00    +0.000 A 
ATOM     17 CL   UNL     1      -1.583  10.026  17.907  0.00  0.00    +0.000 Cl
ENDBRANCH   9  11
ENDBRANCH   1   8
BRANCH   5  18
ATOM     18  N   UNL     1       4.386   5.364  17.006  0.00  0.00    +0.000 N 
ATOM     19  C   UNL     1       5.649   4.827  17.200  0.00  0.00    +0.000 C 
ATOM     20  O   UNL     1       6.256   4.778  18.266  0.00  0.00    +0.000 OA
ATOM     21  H   UNL     1       4.011   5.336  16.065  0.00  0.00    +0.000 HD
BRANCH  19  22
ATOM     22  C   UNL     1       6.259   4.233  15.933  0.00  0.00    +0.000 C 
ATOM     23  C   UNL     1       5.250   3.967  14.820  0.00  0.00    +0.000 C 
ATOM     24  C   UNL     1       6.114   3.832  13.572  0.00  0.00    +0.000 C 
ATOM     25  C   UNL     1       7.331   4.724  13.806  0.00  0.00    +0.000 C 
ATOM     26  C   UNL     1       7.235   5.198  15.251  0.00  0.00    +0.000 C 
ENDBRANCH  19  22
ENDBRANCH   5  18
TORSDOF 4
ENDMDL
MODEL 8
REMARK VINA RESULT:      -7.5      1.990      2.639
REMARK  Name = 
REMARK  4 active torsions:
REMARK  status: ('A' for Active; 'I' for Inactive)
REMARK    1  A    between atoms: C_2  and  C_11
REMARK    2  A    between atoms: N_3  and  C_4
REMARK    3  A    between atoms: C_15  and  N_16
REMARK    4  A    between atoms: C_17  and  C_19
REMARK                            x       y       z     vdW  Elec       q    Type
REMARK                         _______ _______ _______ _____ _____    ______ ____
ROOT
ATOM      1  C   UNL     1       2.020   6.969  19.876  0.00  0.00    +0.000 A 
ATOM      2  C   UNL     1       1.652   6.076  20.885  0.00  0.00    +0.000 A 
ATOM      3  C   UNL     1       2.124   4.769  20.837  0.00  0.00    +0.000 A 
ATOM      4  C   UNL     1       2.970   4.365  19.799  0.00  0.00    +0.000 A 
ATOM      5  C   UNL     1       3.357   5.251  18.788  0.00  0.00    +0.000 A 
ATOM      6  C   UNL     1       2.862   6.559  18.826  0.00  0.00    +0.000 A 
ENDROOT
BRANCH   1   8
ATOM      7  O   UNL     1       1.949   9.169  19.109  0.00  0.00    +0.000 OA
ATOM      8  C   UNL     1       1.462   8.343  19.866  0.00  0.00    +0.000 C 
ATOM      9  N   UNL     1       0.465   8.576  20.800  0.00  0.00    +0.000 N 
ATOM     10  H   UNL     1       0.452   7.967  21.612  0.00  0.00    +0.000 HD
BRANCH   9  11
ATOM     11  C   UNL     1      -0.143   9.843  20.968  0.00  0.00    +0.000 A 
ATOM     12  C   UNL     1      -0.559  10.596  19.865  0.00  0.00    +0.000 A 
ATOM     13  C   UNL     1      -1.167  11.842  20.050  0.00  0.00    +0.000 A 
ATOM     14  C   UNL     1      -1.343  12.353  21.335  0.00  0.00    +0.000 A 
ATOM     15  C   UNL     1      -0.930  11.609  22.442  0.00  0.00    +0.000 A 
ATOM     16  C   UNL     1      -0.353  10.349  22.259  0.00  0.00    +0.000 A 
ATOM     17 CL   UNL     1       0.177   9.475  23.655  0.00  0.00    +0.000 Cl
ENDBRANCH   9  11
ENDBRANCH   1   8
BRANCH   5  18
ATOM     18  N   UNL     1       4.210   4.887  17.717  0.00  0.00    +0.000 N 
ATOM     19  C   UNL     1       5.552   4.555  17.806  0.00  0.00    +0.000 C 
ATOM     20  O   UNL     1       6.224   4.539  18.834  0.00  0.00    +0.000 OA
ATOM     21  H   UNL     1       3.787   4.856  16.796  0.00  0.00    +0.000 HD
BRANCH  19  22
ATOM     22  C   UNL     1       6.170   4.150  16.470  0.00  0.00    +0.000 C 
ATOM     23  C   UNL     1       5.165   4.029  15.329  0.00  0.00    +0.000 C 
ATOM     24  C   UNL     1       6.031   4.079  14.076  0.00  0.00    +0.000 C 
ATOM     25  C   UNL     1       7.237   4.944  14.435  0.00  0.00    +0.000 C 
ATOM     26  C   UNL     1       7.135   5.211  15.932  0.00  0.00    +0.000 C 
ENDBRANCH  19  22
ENDBRANCH   5  18
TORSDOF 4
ENDMDL
MODEL 9
REMARK VINA RESULT:      -7.4      3.547      5.146
REMARK  Name = 
REMARK  4 active torsions:
REMARK  status: ('A' for Active; 'I' for Inactive)
REMARK    1  A    between atoms: C_2  and  C_11
REMARK    2  A    between atoms: N_3  and  C_4
REMARK    3  A    between atoms: C_15  and  N_16
REMARK    4  A    between atoms: C_17  and  C_19
REMARK                            x       y       z     vdW  Elec       q    Type
REMARK                         _______ _______ _______ _____ _____    ______ ____
ROOT
ATOM      1  C   UNL     1       5.476   5.457  17.640  0.00  0.00    +0.000 A 
ATOM      2  C   UNL     1       6.555   6.286  17.957  0.00  0.00    +0.000 A 
ATOM      3  C   UNL     1       7.568   6.465  17.022  0.00  0.00    +0.000 A 
ATOM      4  C   UNL     1       7.495   5.833  15.776  0.00  0.00    +0.000 A 
ATOM      5  C   UNL     1       6.416   5.009  15.440  0.00  0.00    +0.000 A 
ATOM      6  C   UNL     1       5.408   4.813  16.391  0.00  0.00    +0.000 A 
ENDROOT
BRANCH   1   8
ATOM      7  O   UNL     1       4.120   6.083  19.429  0.00  0.00    +0.000 OA
ATOM      8  C   UNL     1       4.427   5.190  18.654  0.00  0.00    +0.000 C 
ATOM      9  N   UNL     1       3.945   3.891  18.668  0.00  0.00    +0.000 N 
ATOM     10  H   UNL     1       4.554   3.176  18.283  0.00  0.00    +0.000 HD
BRANCH   9  11
ATOM     11  C   UNL     1       2.981   3.445  19.603  0.00  0.00    +0.000 A 
ATOM     12  C   UNL     1       3.365   2.910  20.837  0.00  0.00    +0.000 A 
ATOM     13  C   UNL     1       2.398   2.482  21.753  0.00  0.00    +0.000 A 
ATOM     14  C   UNL     1       1.044   2.565  21.433  0.00  0.00    +0.000 A 
ATOM     15  C   UNL     1       0.650   3.097  20.204  0.00  0.00    +0.000 A 
ATOM     16  C   UNL     1       1.615   3.555  19.301  0.00  0.00    +0.000 A 
ATOM     17 CL   UNL     1       1.087   4.175  17.775  0.00  0.00    +0.000 Cl
ENDBRANCH   9  11
ENDBRANCH   1   8
BRANCH   5  18
ATOM     18  N   UNL     1       6.298   4.349  14.192  0.00  0.00    +0.000 N 
ATOM     19  C   UNL     1       7.022   4.620  13.042  0.00  0.00    +0.000 C 
ATOM     20  O   UNL     1       7.874   5.495  12.916  0.00  0.00    +0.000 OA
ATOM     21  H   UNL     1       5.625   3.593  14.146  0.00  0.00    +0.000 HD
BRANCH  19  22
ATOM     22  C   UNL     1       6.698   3.682  11.882  0.00  0.00    +0.000 C 
ATOM     23  C   UNL     1       7.713   2.562  11.683  0.00  0.00    +0.000 C 
ATOM     24  C   UNL     1       6.967   1.544  10.827  0.00  0.00    +0.000 C 
ATOM     25  C   UNL     1       5.494   1.682  11.201  0.00  0.00    +0.000 C 
ATOM     26  C   UNL     1       5.402   2.898  12.115  0.00  0.00    +0.000 C 
ENDBRANCH  19  22
ENDBRANCH   5  18
TORSDOF 4
ENDMDL
