MODEL 1
REMARK VINA RESULT:      -6.7      0.000      0.000
REMARK  Name = 
REMARK  7 active torsions:
REMARK  status: ('A' for Active; 'I' for Inactive)
REMARK    1  A    between atoms: C_1  and  O_2
REMARK    2  A    between atoms: O_2  and  C_3
REMARK    3  A    between atoms: C_5  and  N_6
REMARK    4  A    between atoms: N_9  and  C_10
REMARK    5  A    between atoms: C_10  and  C_11
REMARK    6  A    between atoms: C_10  and  C_14
REMARK    7  A    between atoms: C_19  and  N_20
REMARK                            x       y       z     vdW  Elec       q    Type
REMARK                         _______ _______ _______ _____ _____    ______ ____
ROOT
ATOM      1  C   UNL     1       0.145   9.259  21.151  0.00  0.00    +0.000 A 
ATOM      2  C   UNL     1       1.014   8.169  20.995  0.00  0.00    +0.000 A 
ATOM      3  C   UNL     1       1.867   8.028  19.907  0.00  0.00    +0.000 A 
ATOM      4  C   UNL     1       1.771   8.966  18.884  0.00  0.00    +0.000 A 
ATOM      5  C   UNL     1       0.856  10.030  18.985  0.00  0.00    +0.000 A 
ATOM      6  C   UNL     1       0.041  10.216  20.121  0.00  0.00    +0.000 A 
ENDROOT
BRANCH   3   7
ATOM      7  N   UNL     1       2.814   6.977  19.821  0.00  0.00    +0.000 N 
ATOM      8  C   UNL     1       2.860   6.023  18.817  0.00  0.00    +0.000 C 
ATOM      9  O   UNL     1       2.093   5.931  17.871  0.00  0.00    +0.000 OA
ATOM     10  N   UNL     1       3.898   5.142  18.958  0.00  0.00    +0.000 N 
ATOM     11  H   UNL     1       3.477   6.893  20.574  0.00  0.00    +0.000 HD
ATOM     12  H   UNL     1       4.412   5.086  19.825  0.00  0.00    +0.000 HD
BRANCH  10  13
ATOM     13  C   UNL     1       4.121   4.125  17.946  0.00  0.00    +0.000 C 
BRANCH  13  14
ATOM     14  C   UNL     1       5.396   4.447  17.203  0.00  0.00    +0.000 C 
ATOM     15  C   UNL     1       5.665   3.829  15.851  0.00  0.00    +0.000 C 
ATOM     16  C   UNL     1       5.384   5.300  15.953  0.00  0.00    +0.000 C 
ENDBRANCH  13  14
BRANCH  13  17
ATOM     17  C   UNL     1       4.189   2.776  18.611  0.00  0.00    +0.000 C 
ATOM     18  C   UNL     1       3.084   2.317  19.534  0.00  0.00    +0.000 C 
ATOM     19  C   UNL     1       3.239   1.680  18.184  0.00  0.00    +0.000 C 
ENDBRANCH  13  17
ENDBRANCH  10  13
ENDBRANCH   3   7
BRANCH   6  20
ATOM     20  N   UNL     1      -0.797  11.363  20.216  0.00  0.00    +0.000 N 
ATOM     21  C   UNL     1      -1.937  11.593  19.383  0.00  0.00    +0.000 C 
ATOM     22  C   UNL     1      -2.683  12.661  20.136  0.00  0.00    +0.000 C 
ATOM     23  O   UNL     1      -1.681  13.328  20.899  0.00  0.00    +0.000 OA
ATOM     24  C   UNL     1      -0.625  12.460  21.048  0.00  0.00    +0.000 C 
ATOM     25  O   UNL     1       0.299  12.707  21.808  0.00  0.00    +0.000 OA
ENDBRANCH   6  20
BRANCH   1  27
ATOM     26  C   UNL     1       0.035   9.527  23.513  0.00  0.00    +0.000 C 
ATOM     27  O   UNL     1      -0.654   9.351  22.269  0.00  0.00    +0.000 OA
ENDBRANCH   1  27
TORSDOF 6
ENDMDL
MODEL 2
REMARK VINA RESULT:      -6.6      2.390      8.710
REMARK  Name = 
REMARK  7 active torsions:
REMARK  status: ('A' for Active; 'I' for Inactive)
REMARK    1  A    between atoms: C_1  and  O_2
REMARK    2  A    between atoms: O_2  and  C_3
REMARK    3  A    between atoms: C_5  and  N_6
REMARK    4  A    between atoms: N_9  and  C_10
REMARK    5  A    between atoms: C_10  and  C_11
REMARK    6  A    between atoms: C_10  and  C_14
REMARK    7  A    between atoms: C_19  and  N_20
REMARK                            x       y       z     vdW  Elec       q    Type
REMARK                         _______ _______ _______ _____ _____    ______ ____
ROOT
ATOM      1  C   UNL     1       4.077   5.416  18.926  0.00  0.00    +0.000 A 
ATOM      2  C   UNL     1       3.101   6.144  19.623  0.00  0.00    +0.000 A 
ATOM      3  C   UNL     1       2.538   7.317  19.135  0.00  0.00    +0.000 A 
ATOM      4  C   UNL     1       3.046   7.834  17.947  0.00  0.00    +0.000 A 
ATOM      5  C   UNL     1       4.074   7.157  17.265  0.00  0.00    +0.000 A 
ATOM      6  C   UNL     1       4.597   5.929  17.721  0.00  0.00    +0.000 A 
ENDROOT
BRANCH   3   7
ATOM      7  N   UNL     1       1.477   7.981  19.802  0.00  0.00    +0.000 N 
ATOM      8  C   UNL     1       1.056   9.274  19.543  0.00  0.00    +0.000 C 
ATOM      9  O   UNL     1       1.536  10.042  18.722  0.00  0.00    +0.000 OA
ATOM     10  N   UNL     1      -0.012   9.657  20.309  0.00  0.00    +0.000 N 
ATOM     11  H   UNL     1       1.025   7.485  20.553  0.00  0.00    +0.000 HD
ATOM     12  H   UNL     1      -0.288   9.116  21.115  0.00  0.00    +0.000 HD
BRANCH  10  13
ATOM     13  C   UNL     1      -0.612  10.963  20.106  0.00  0.00    +0.000 C 
BRANCH  13  14
ATOM     14  C   UNL     1      -1.589  10.878  18.956  0.00  0.00    +0.000 C 
ATOM     15  C   UNL     1      -2.740  11.851  18.862  0.00  0.00    +0.000 C 
ATOM     16  C   UNL     1      -1.618  11.930  17.869  0.00  0.00    +0.000 C 
ENDBRANCH  13  14
BRANCH  13  17
ATOM     17  C   UNL     1      -1.287  11.398  21.379  0.00  0.00    +0.000 C 
ATOM     18  C   UNL     1      -0.721  11.005  22.723  0.00  0.00    +0.000 C 
ATOM     19  C   UNL     1      -0.627  12.430  22.265  0.00  0.00    +0.000 C 
ENDBRANCH  13  17
ENDBRANCH  10  13
ENDBRANCH   3   7
BRANCH   6  20
ATOM     20  N   UNL     1       5.568   5.237  16.943  0.00  0.00    +0.000 N 
ATOM     21  C   UNL     1       5.251   4.237  15.971  0.00  0.00    +0.000 C 
ATOM     22  C   UNL     1       6.522   4.144  15.170  0.00  0.00    +0.000 C 
ATOM     23  O   UNL     1       7.543   4.572  16.067  0.00  0.00    +0.000 OA
ATOM     24  C   UNL     1       6.949   5.347  17.035  0.00  0.00    +0.000 C 
ATOM     25  O   UNL     1       7.613   5.990  17.832  0.00  0.00    +0.000 OA
ENDBRANCH   6  20
BRANCH   1  27
ATOM     26  C   UNL     1       3.603   3.229  19.737  0.00  0.00    +0.000 C 
ATOM     27  O   UNL     1       4.573   4.246  19.455  0.00  0.00    +0.000 OA
ENDBRANCH   1  27
TORSDOF 6
ENDMDL
MODEL 3
REMARK VINA RESULT:      -6.5      0.841      1.233
REMARK  Name = 
REMARK  7 active torsions:
REMARK  status: ('A' for Active; 'I' for Inactive)
REMARK    1  A    between atoms: C_1  and  O_2
REMARK    2  A    between atoms: O_2  and  C_3
REMARK    3  A    between atoms: C_5  and  N_6
REMARK    4  A    between atoms: N_9  and  C_10
REMARK    5  A    between atoms: C_10  and  C_11
REMARK    6  A    between atoms: C_10  and  C_14
REMARK    7  A    between atoms: C_19  and  N_20
REMARK                            x       y       z     vdW  Elec       q    Type
REMARK                         _______ _______ _______ _____ _____    ______ ____
ROOT
ATOM      1  C   UNL     1       0.123   9.245  21.028  0.00  0.00    +0.000 A 
ATOM      2  C   UNL     1       1.016   8.172  20.890  0.00  0.00    +0.000 A 
ATOM      3  C   UNL     1       1.878   8.037  19.809  0.00  0.00    +0.000 A 
ATOM      4  C   UNL     1       1.767   8.961  18.774  0.00  0.00    +0.000 A 
ATOM      5  C   UNL     1       0.830  10.006  18.858  0.00  0.00    +0.000 A 
ATOM      6  C   UNL     1       0.005  10.187  19.987  0.00  0.00    +0.000 A 
ENDROOT
BRANCH   3   7
ATOM      7  N   UNL     1       2.849   7.005  19.740  0.00  0.00    +0.000 N 
ATOM      8  C   UNL     1       2.893   6.014  18.774  0.00  0.00    +0.000 C 
ATOM      9  O   UNL     1       2.106   5.866  17.852  0.00  0.00    +0.000 OA
ATOM     10  N   UNL     1       3.955   5.164  18.923  0.00  0.00    +0.000 N 
ATOM     11  H   UNL     1       3.531   6.967  20.479  0.00  0.00    +0.000 HD
ATOM     12  H   UNL     1       4.492   5.154  19.778  0.00  0.00    +0.000 HD
BRANCH  10  13
ATOM     13  C   UNL     1       4.178   4.113  17.947  0.00  0.00    +0.000 C 
BRANCH  13  14
ATOM     14  C   UNL     1       5.435   4.426  17.170  0.00  0.00    +0.000 C 
ATOM     15  C   UNL     1       5.668   3.801  15.815  0.00  0.00    +0.000 C 
ATOM     16  C   UNL     1       5.395   5.273  15.917  0.00  0.00    +0.000 C 
ENDBRANCH  13  14
BRANCH  13  17
ATOM     17  C   UNL     1       4.280   2.791  18.661  0.00  0.00    +0.000 C 
ATOM     18  C   UNL     1       3.174   2.326  19.579  0.00  0.00    +0.000 C 
ATOM     19  C   UNL     1       3.378   1.647  18.256  0.00  0.00    +0.000 C 
ENDBRANCH  13  17
ENDBRANCH  10  13
ENDBRANCH   3   7
BRANCH   6  20
ATOM     20  N   UNL     1      -0.859  11.317  20.063  0.00  0.00    +0.000 N 
ATOM     21  C   UNL     1      -0.702  12.384  21.003  0.00  0.00    +0.000 C 
ATOM     22  C   UNL     1      -1.556  13.471  20.410  0.00  0.00    +0.000 C 
ATOM     23  O   UNL     1      -2.527  12.780  19.630  0.00  0.00    +0.000 OA
ATOM     24  C   UNL     1      -2.008  11.544  19.319  0.00  0.00    +0.000 C 
ATOM     25  O   UNL     1      -2.555  10.809  18.511  0.00  0.00    +0.000 OA
ENDBRANCH   6  20
BRANCH   1  27
ATOM     26  C   UNL     1      -0.006   9.539  23.386  0.00  0.00    +0.000 C 
ATOM     27  O   UNL     1      -0.684   9.333  22.141  0.00  0.00    +0.000 OA
ENDBRANCH   1  27
TORSDOF 6
ENDMDL
MODEL 4
REMARK VINA RESULT:      -6.5      1.844      2.610
REMARK  Name = 
REMARK  7 active torsions:
REMARK  status: ('A' for Active; 'I' for Inactive)
REMARK    1  A    between atoms: C_1  and  O_2
REMARK    2  A    between atoms: O_2  and  C_3
REMARK    3  A    between atoms: C_5  and  N_6
REMARK    4  A    between atoms: N_9  and  C_10
REMARK    5  A    between atoms: C_10  and  C_11
REMARK    6  A    between atoms: C_10  and  C_14
REMARK    7  A    between atoms: C_19  and  N_20
REMARK                            x       y       z     vdW  Elec       q    Type
REMARK                         _______ _______ _______ _____ _____    ______ ____
ROOT
ATOM      1  C   UNL     1       0.089  10.966  20.545  0.00  0.00    +0.000 A 
ATOM      2  C   UNL     1       0.820   9.778  20.395  0.00  0.00    +0.000 A 
ATOM      3  C   UNL     1       0.939   8.829  21.402  0.00  0.00    +0.000 A 
ATOM      4  C   UNL     1       0.387   9.129  22.643  0.00  0.00    +0.000 A 
ATOM      5  C   UNL     1      -0.291  10.346  22.838  0.00  0.00    +0.000 A 
ATOM      6  C   UNL     1      -0.475  11.280  21.797  0.00  0.00    +0.000 A 
ENDROOT
BRANCH   3   7
ATOM      7  N   UNL     1       1.590   7.586  21.196  0.00  0.00    +0.000 N 
ATOM      8  C   UNL     1       2.143   7.163  19.999  0.00  0.00    +0.000 C 
ATOM      9  O   UNL     1       2.143   7.778  18.944  0.00  0.00    +0.000 OA
ATOM     10  N   UNL     1       2.741   5.934  20.085  0.00  0.00    +0.000 N 
ATOM     11  H   UNL     1       1.611   6.944  21.972  0.00  0.00    +0.000 HD
ATOM     12  H   UNL     1       2.579   5.338  20.884  0.00  0.00    +0.000 HD
BRANCH  10  13
ATOM     13  C   UNL     1       3.426   5.384  18.931  0.00  0.00    +0.000 C 
BRANCH  13  14
ATOM     14  C   UNL     1       4.912   5.374  19.203  0.00  0.00    +0.000 C 
ATOM     15  C   UNL     1       5.822   4.450  18.429  0.00  0.00    +0.000 C 
ATOM     16  C   UNL     1       5.900   5.932  18.202  0.00  0.00    +0.000 C 
ENDBRANCH  13  14
BRANCH  13  17
ATOM     17  C   UNL     1       2.901   4.000  18.659  0.00  0.00    +0.000 C 
ATOM     18  C   UNL     1       1.420   3.761  18.478  0.00  0.00    +0.000 C 
ATOM     19  C   UNL     1       2.339   3.664  17.296  0.00  0.00    +0.000 C 
ENDBRANCH  13  17
ENDBRANCH  10  13
ENDBRANCH   3   7
BRANCH   6  20
ATOM     20  N   UNL     1      -1.252  12.452  22.022  0.00  0.00    +0.000 N 
ATOM     21  C   UNL     1      -2.664  12.529  21.808  0.00  0.00    +0.000 C 
ATOM     22  C   UNL     1      -3.042  13.773  22.566  0.00  0.00    +0.000 C 
ATOM     23  O   UNL     1      -1.852  14.557  22.586  0.00  0.00    +0.000 OA
ATOM     24  C   UNL     1      -0.790  13.704  22.402  0.00  0.00    +0.000 C 
ATOM     25  O   UNL     1       0.362  14.081  22.551  0.00  0.00    +0.000 OA
ENDBRANCH   6  20
BRANCH   1  27
ATOM     26  C   UNL     1       1.209  12.495  19.105  0.00  0.00    +0.000 C 
ATOM     27  O   UNL     1      -0.011  11.852  19.495  0.00  0.00    +0.000 OA
ENDBRANCH   1  27
TORSDOF 6
ENDMDL
MODEL 5
REMARK VINA RESULT:      -6.4      2.440      8.628
REMARK  Name = 
REMARK  7 active torsions:
REMARK  status: ('A' for Active; 'I' for Inactive)
REMARK    1  A    between atoms: C_1  and  O_2
REMARK    2  A    between atoms: O_2  and  C_3
REMARK    3  A    between atoms: C_5  and  N_6
REMARK    4  A    between atoms: N_9  and  C_10
REMARK    5  A    between atoms: C_10  and  C_11
REMARK    6  A    between atoms: C_10  and  C_14
REMARK    7  A    between atoms: C_19  and  N_20
REMARK                            x       y       z     vdW  Elec       q    Type
REMARK                         _______ _______ _______ _____ _____    ______ ____
ROOT
ATOM      1  C   UNL     1       2.508   5.878  19.525  0.00  0.00    +0.000 A 
ATOM      2  C   UNL     1       2.195   7.231  19.323  0.00  0.00    +0.000 A 
ATOM      3  C   UNL     1       2.593   7.942  18.198  0.00  0.00    +0.000 A 
ATOM      4  C   UNL     1       3.424   7.298  17.286  0.00  0.00    +0.000 A 
ATOM      5  C   UNL     1       3.808   5.962  17.502  0.00  0.00    +0.000 A 
ATOM      6  C   UNL     1       3.347   5.216  18.607  0.00  0.00    +0.000 A 
ENDROOT
BRANCH   3   7
ATOM      7  N   UNL     1       2.176   9.276  17.960  0.00  0.00    +0.000 N 
ATOM      8  C   UNL     1       1.293   9.990  18.753  0.00  0.00    +0.000 C 
ATOM      9  O   UNL     1       0.730   9.583  19.758  0.00  0.00    +0.000 OA
ATOM     10  N   UNL     1       1.089  11.271  18.314  0.00  0.00    +0.000 N 
ATOM     11  H   UNL     1       2.517   9.722  17.124  0.00  0.00    +0.000 HD
ATOM     12  H   UNL     1       1.387  11.553  17.392  0.00  0.00    +0.000 HD
BRANCH  10  13
ATOM     13  C   UNL     1       0.242  12.167  19.079  0.00  0.00    +0.000 C 
BRANCH  13  14
ATOM     14  C   UNL     1       0.993  13.452  19.332  0.00  0.00    +0.000 C 
ATOM     15  C   UNL     1       0.253  14.692  19.777  0.00  0.00    +0.000 C 
ATOM     16  C   UNL     1       1.176  13.994  20.734  0.00  0.00    +0.000 C 
ENDBRANCH  13  14
BRANCH  13  17
ATOM     17  C   UNL     1      -1.034  12.409  18.317  0.00  0.00    +0.000 C 
ATOM     18  C   UNL     1      -1.846  11.249  17.788  0.00  0.00    +0.000 C 
ATOM     19  C   UNL     1      -2.363  12.053  18.945  0.00  0.00    +0.000 C 
ENDBRANCH  13  17
ENDBRANCH  10  13
ENDBRANCH   3   7
BRANCH   6  20
ATOM     20  N   UNL     1       3.688   3.839  18.727  0.00  0.00    +0.000 N 
ATOM     21  C   UNL     1       4.754   3.346  19.544  0.00  0.00    +0.000 C 
ATOM     22  C   UNL     1       4.430   1.880  19.654  0.00  0.00    +0.000 C 
ATOM     23  O   UNL     1       3.669   1.592  18.485  0.00  0.00    +0.000 OA
ATOM     24  C   UNL     1       3.120   2.773  18.044  0.00  0.00    +0.000 C 
ATOM     25  O   UNL     1       2.278   2.792  17.160  0.00  0.00    +0.000 OA
ENDBRANCH   6  20
BRANCH   1  27
ATOM     26  C   UNL     1       0.928   4.364  20.460  0.00  0.00    +0.000 C 
ATOM     27  O   UNL     1       2.057   5.226  20.651  0.00  0.00    +0.000 OA
ENDBRANCH   1  27
TORSDOF 6
ENDMDL
MODEL 6
REMARK VINA RESULT:      -6.4      7.210      8.232
REMARK  Name = 
REMARK  7 active torsions:
REMARK  status: ('A' for Active; 'I' for Inactive)
REMARK    1  A    between atoms: C_1  and  O_2
REMARK    2  A    between atoms: O_2  and  C_3
REMARK    3  A    between atoms: C_5  and  N_6
REMARK    4  A    between atoms: N_9  and  C_10
REMARK    5  A    between atoms: C_10  and  C_11
REMARK    6  A    between atoms: C_10  and  C_14
REMARK    7  A    between atoms: C_19  and  N_20
REMARK                            x       y       z     vdW  Elec       q    Type
REMARK                         _______ _______ _______ _____ _____    ______ ____
ROOT
ATOM      1  C   UNL     1       9.746  11.466  19.815  0.00  0.00    +0.000 A 
ATOM      2  C   UNL     1       9.370  10.115  19.767  0.00  0.00    +0.000 A 
ATOM      3  C   UNL     1       8.758   9.537  18.662  0.00  0.00    +0.000 A 
ATOM      4  C   UNL     1       8.416  10.370  17.602  0.00  0.00    +0.000 A 
ATOM      5  C   UNL     1       8.720  11.743  17.656  0.00  0.00    +0.000 A 
ATOM      6  C   UNL     1       9.406  12.318  18.745  0.00  0.00    +0.000 A 
ENDROOT
BRANCH   3   7
ATOM      7  N   UNL     1       8.484   8.147  18.591  0.00  0.00    +0.000 N 
ATOM      8  C   UNL     1       7.448   7.574  17.872  0.00  0.00    +0.000 C 
ATOM      9  O   UNL     1       6.611   8.166  17.209  0.00  0.00    +0.000 OA
ATOM     10  N   UNL     1       7.432   6.207  17.948  0.00  0.00    +0.000 N 
ATOM     11  H   UNL     1       9.062   7.536  19.143  0.00  0.00    +0.000 HD
ATOM     12  H   UNL     1       7.986   5.722  18.638  0.00  0.00    +0.000 HD
BRANCH  10  13
ATOM     13  C   UNL     1       6.447   5.456  17.192  0.00  0.00    +0.000 C 
BRANCH  13  14
ATOM     14  C   UNL     1       7.160   4.617  16.158  0.00  0.00    +0.000 C 
ATOM     15  C   UNL     1       6.371   3.769  15.189  0.00  0.00    +0.000 C 
ATOM     16  C   UNL     1       7.114   4.972  14.688  0.00  0.00    +0.000 C 
ENDBRANCH  13  14
BRANCH  13  17
ATOM     17  C   UNL     1       5.641   4.606  18.139  0.00  0.00    +0.000 C 
ATOM     18  C   UNL     1       4.829   5.243  19.242  0.00  0.00    +0.000 C 
ATOM     19  C   UNL     1       4.131   4.625  18.066  0.00  0.00    +0.000 C 
ENDBRANCH  13  17
ENDBRANCH  10  13
ENDBRANCH   3   7
BRANCH   6  20
ATOM     20  N   UNL     1       9.775  13.693  18.707  0.00  0.00    +0.000 N 
ATOM     21  C   UNL     1       8.913  14.765  19.098  0.00  0.00    +0.000 C 
ATOM     22  C   UNL     1       9.874  15.910  19.276  0.00  0.00    +0.000 C 
ATOM     23  O   UNL     1      10.974  15.589  18.430  0.00  0.00    +0.000 OA
ATOM     24  C   UNL     1      10.964  14.228  18.233  0.00  0.00    +0.000 C 
ATOM     25  O   UNL     1      11.898  13.657  17.690  0.00  0.00    +0.000 OA
ENDBRANCH   6  20
BRANCH   1  27
ATOM     26  C   UNL     1       9.512  12.439  21.974  0.00  0.00    +0.000 C 
ATOM     27  O   UNL     1      10.375  11.968  20.932  0.00  0.00    +0.000 OA
ENDBRANCH   1  27
TORSDOF 6
ENDMDL
MODEL 7
REMARK VINA RESULT:      -6.4      2.181      3.334
REMARK  Name = 
REMARK  7 active torsions:
REMARK  status: ('A' for Active; 'I' for Inactive)
REMARK    1  A    between atoms: C_1  and  O_2
REMARK    2  A    between atoms: O_2  and  C_3
REMARK    3  A    between atoms: C_5  and  N_6
REMARK    4  A    between atoms: N_9  and  C_10
REMARK    5  A    between atoms: C_10  and  C_11
REMARK    6  A    between atoms: C_10  and  C_14
REMARK    7  A    between atoms: C_19  and  N_20
REMARK                            x       y       z     vdW  Elec       q    Type
REMARK                         _______ _______ _______ _____ _____    ______ ____
ROOT
ATOM      1  C   UNL     1      -0.376  11.298  18.983  0.00  0.00    +0.000 A 
ATOM      2  C   UNL     1       0.048  10.056  18.486  0.00  0.00    +0.000 A 
ATOM      3  C   UNL     1       1.370   9.781  18.159  0.00  0.00    +0.000 A 
ATOM      4  C   UNL     1       2.286  10.826  18.236  0.00  0.00    +0.000 A 
ATOM      5  C   UNL     1       1.870  12.099  18.665  0.00  0.00    +0.000 A 
ATOM      6  C   UNL     1       0.544  12.361  19.067  0.00  0.00    +0.000 A 
ENDROOT
BRANCH   3   7
ATOM      7  N   UNL     1       1.797   8.488  17.762  0.00  0.00    +0.000 N 
ATOM      8  C   UNL     1       2.181   7.475  18.624  0.00  0.00    +0.000 C 
ATOM      9  O   UNL     1       2.225   7.538  19.843  0.00  0.00    +0.000 OA
ATOM     10  N   UNL     1       2.516   6.316  17.977  0.00  0.00    +0.000 N 
ATOM     11  H   UNL     1       1.870   8.312  16.773  0.00  0.00    +0.000 HD
ATOM     12  H   UNL     1       2.672   6.308  16.980  0.00  0.00    +0.000 HD
BRANCH  10  13
ATOM     13  C   UNL     1       2.874   5.139  18.748  0.00  0.00    +0.000 C 
BRANCH  13  14
ATOM     14  C   UNL     1       1.730   4.154  18.694  0.00  0.00    +0.000 C 
ATOM     15  C   UNL     1       1.902   2.758  19.245  0.00  0.00    +0.000 C 
ATOM     16  C   UNL     1       0.998   3.728  19.948  0.00  0.00    +0.000 C 
ENDBRANCH  13  14
BRANCH  13  17
ATOM     17  C   UNL     1       4.143   4.551  18.189  0.00  0.00    +0.000 C 
ATOM     18  C   UNL     1       5.247   5.448  17.680  0.00  0.00    +0.000 C 
ATOM     19  C   UNL     1       5.436   4.688  18.960  0.00  0.00    +0.000 C 
ENDBRANCH  13  17
ENDBRANCH  10  13
ENDBRANCH   3   7
BRANCH   6  20
ATOM     20  N   UNL     1       0.198  13.642  19.584  0.00  0.00    +0.000 N 
ATOM     21  C   UNL     1      -0.191  14.755  18.774  0.00  0.00    +0.000 C 
ATOM     22  C   UNL     1      -0.836  15.677  19.773  0.00  0.00    +0.000 C 
ATOM     23  O   UNL     1      -0.235  15.335  21.018  0.00  0.00    +0.000 OA
ATOM     24  C   UNL     1       0.244  14.050  20.910  0.00  0.00    +0.000 C 
ATOM     25  O   UNL     1       0.652  13.438  21.885  0.00  0.00    +0.000 OA
ENDBRANCH   6  20
BRANCH   1  27
ATOM     26  C   UNL     1      -2.624  11.474  18.220  0.00  0.00    +0.000 C 
ATOM     27  O   UNL     1      -1.698  11.493  19.314  0.00  0.00    +0.000 OA
ENDBRANCH   1  27
TORSDOF 6
ENDMDL
MODEL 8
REMARK VINA RESULT:      -6.4      2.065      3.171
REMARK  Name = 
REMARK  7 active torsions:
REMARK  status: ('A' for Active; 'I' for Inactive)
REMARK    1  A    between atoms: C_1  and  O_2
REMARK    2  A    between atoms: O_2  and  C_3
REMARK    3  A    between atoms: C_5  and  N_6
REMARK    4  A    between atoms: N_9  and  C_10
REMARK    5  A    between atoms: C_10  and  C_11
REMARK    6  A    between atoms: C_10  and  C_14
REMARK    7  A    between atoms: C_19  and  N_20
REMARK                            x       y       z     vdW  Elec       q    Type
REMARK                         _______ _______ _______ _____ _____    ______ ____
ROOT
ATOM      1  C   UNL     1       0.035  11.831  21.436  0.00  0.00    +0.000 A 
ATOM      2  C   UNL     1       0.894  10.741  21.232  0.00  0.00    +0.000 A 
ATOM      3  C   UNL     1       0.767   9.538  21.917  0.00  0.00    +0.000 A 
ATOM      4  C   UNL     1      -0.195   9.462  22.919  0.00  0.00    +0.000 A 
ATOM      5  C   UNL     1      -1.022  10.567  23.189  0.00  0.00    +0.000 A 
ATOM      6  C   UNL     1      -0.944  11.764  22.446  0.00  0.00    +0.000 A 
ENDROOT
BRANCH   3   7
ATOM      7  N   UNL     1       1.576   8.411  21.621  0.00  0.00    +0.000 N 
ATOM      8  C   UNL     1       1.608   7.750  20.405  0.00  0.00    +0.000 C 
ATOM      9  O   UNL     1       0.944   8.019  19.415  0.00  0.00    +0.000 OA
ATOM     10  N   UNL     1       2.502   6.713  20.378  0.00  0.00    +0.000 N 
ATOM     11  H   UNL     1       2.136   8.038  22.370  0.00  0.00    +0.000 HD
ATOM     12  H   UNL     1       2.907   6.360  21.233  0.00  0.00    +0.000 HD
BRANCH  10  13
ATOM     13  C   UNL     1       2.702   5.966  19.150  0.00  0.00    +0.000 C 
BRANCH  13  14
ATOM     14  C   UNL     1       4.104   6.219  18.647  0.00  0.00    +0.000 C 
ATOM     15  C   UNL     1       4.626   5.472  17.442  0.00  0.00    +0.000 C 
ATOM     16  C   UNL     1       4.352   6.945  17.342  0.00  0.00    +0.000 C 
ENDBRANCH  13  14
BRANCH  13  17
ATOM     17  C   UNL     1       2.462   4.504  19.419  0.00  0.00    +0.000 C 
ATOM     18  C   UNL     1       1.209   4.048  20.129  0.00  0.00    +0.000 C 
ATOM     19  C   UNL     1       1.378   3.769  18.664  0.00  0.00    +0.000 C 
ENDBRANCH  13  17
ENDBRANCH  10  13
ENDBRANCH   3   7
BRANCH   6  20
ATOM     20  N   UNL     1      -1.870  12.817  22.696  0.00  0.00    +0.000 N 
ATOM     21  C   UNL     1      -3.162  12.908  22.090  0.00  0.00    +0.000 C 
ATOM     22  C   UNL     1      -3.866  13.906  22.970  0.00  0.00    +0.000 C 
ATOM     23  O   UNL     1      -2.819  14.690  23.534  0.00  0.00    +0.000 OA
ATOM     24  C   UNL     1      -1.666  13.942  23.483  0.00  0.00    +0.000 C 
ATOM     25  O   UNL     1      -0.650  14.300  24.058  0.00  0.00    +0.000 OA
ENDBRANCH   6  20
BRANCH   1  27
ATOM     26  C   UNL     1      -0.085  12.877  19.301  0.00  0.00    +0.000 C 
ATOM     27  O   UNL     1       0.199  12.985  20.702  0.00  0.00    +0.000 OA
ENDBRANCH   1  27
TORSDOF 6
ENDMDL
MODEL 9
REMARK VINA RESULT:      -6.4      1.991      3.025
REMARK  Name = 
REMARK  7 active torsions:
REMARK  status: ('A' for Active; 'I' for Inactive)
REMARK    1  A    between atoms: C_1  and  O_2
REMARK    2  A    between atoms: O_2  and  C_3
REMARK    3  A    between atoms: C_5  and  N_6
REMARK    4  A    between atoms: N_9  and  C_10
REMARK    5  A    between atoms: C_10  and  C_11
REMARK    6  A    between atoms: C_10  and  C_14
REMARK    7  A    between atoms: C_19  and  N_20
REMARK                            x       y       z     vdW  Elec       q    Type
REMARK                         _______ _______ _______ _____ _____    ______ ____
ROOT
ATOM      1  C   UNL     1       0.379  11.505  21.121  0.00  0.00    +0.000 A 
ATOM      2  C   UNL     1       1.121  10.318  21.027  0.00  0.00    +0.000 A 
ATOM      3  C   UNL     1       0.860   9.197  21.806  0.00  0.00    +0.000 A 
ATOM      4  C   UNL     1      -0.119   9.306  22.788  0.00  0.00    +0.000 A 
ATOM      5  C   UNL     1      -0.829  10.509  22.947  0.00  0.00    +0.000 A 
ATOM      6  C   UNL     1      -0.616  11.624  22.111  0.00  0.00    +0.000 A 
ENDROOT
BRANCH   3   7
ATOM      7  N   UNL     1       1.549   7.971  21.622  0.00  0.00    +0.000 N 
ATOM      8  C   UNL     1       1.872   7.413  20.396  0.00  0.00    +0.000 C 
ATOM      9  O   UNL     1       1.604   7.874  19.297  0.00  0.00    +0.000 OA
ATOM     10  N   UNL     1       2.569   6.240  20.505  0.00  0.00    +0.000 N 
ATOM     11  H   UNL     1       1.782   7.446  22.449  0.00  0.00    +0.000 HD
ATOM     12  H   UNL     1       2.625   5.754  21.388  0.00  0.00    +0.000 HD
BRANCH  10  13
ATOM     13  C   UNL     1       3.040   5.569  19.307  0.00  0.00    +0.000 C 
BRANCH  13  14
ATOM     14  C   UNL     1       4.550   5.570  19.308  0.00  0.00    +0.000 C 
ATOM     15  C   UNL     1       5.313   4.492  18.574  0.00  0.00    +0.000 C 
ATOM     16  C   UNL     1       5.337   5.902  18.059  0.00  0.00    +0.000 C 
ENDBRANCH  13  14
BRANCH  13  17
ATOM     17  C   UNL     1       2.484   4.170  19.277  0.00  0.00    +0.000 C 
ATOM     18  C   UNL     1       1.057   3.899  19.692  0.00  0.00    +0.000 C 
ATOM     19  C   UNL     1       1.443   3.797  18.246  0.00  0.00    +0.000 C 
ENDBRANCH  13  17
ENDBRANCH  10  13
ENDBRANCH   3   7
BRANCH   6  20
ATOM     20  N   UNL     1      -1.429  12.785  22.252  0.00  0.00    +0.000 N 
ATOM     21  C   UNL     1      -1.254  13.766  23.279  0.00  0.00    +0.000 C 
ATOM     22  C   UNL     1      -2.038  14.936  22.750  0.00  0.00    +0.000 C 
ATOM     23  O   UNL     1      -3.013  14.356  21.889  0.00  0.00    +0.000 OA
ATOM     24  C   UNL     1      -2.541  13.126  21.495  0.00  0.00    +0.000 C 
ATOM     25  O   UNL     1      -3.093  12.484  20.615  0.00  0.00    +0.000 OA
ENDBRANCH   6  20
BRANCH   1  27
ATOM     26  C   UNL     1       1.861  13.301  20.628  0.00  0.00    +0.000 C 
ATOM     27  O   UNL     1       0.674  12.569  20.298  0.00  0.00    +0.000 OA
ENDBRANCH   1  27
TORSDOF 6
ENDMDL
