MODEL 1
REMARK VINA RESULT:      -8.5      0.000      0.000
REMARK  Name = 
REMARK  10 active torsions:
REMARK  status: ('A' for Active; 'I' for Inactive)
REMARK    1  A    between atoms: C_1  and  C_2
REMARK    2  A    between atoms: C_2  and  N_3
REMARK    3  A    between atoms: C_4  and  C_6
REMARK    4  A    between atoms: C_9  and  C_10
REMARK    5  A    between atoms: C_12  and  C_13
REMARK    6  A    between atoms: C_16  and  C_17
REMARK    7  A    between atoms: N_19  and  C_20
REMARK    8  A    between atoms: C_20  and  C_21
REMARK    9  A    between atoms: C_24  and  C_25
REMARK   10  A    between atoms: C_26  and  C_27
REMARK                            x       y       z     vdW  Elec       q    Type
REMARK                         _______ _______ _______ _____ _____    ______ ____
ROOT
ATOM      1  C   UNL     1       2.523   6.544  19.404  0.00  0.00    +0.000 A 
ATOM      2  O   UNL     1       3.337   6.566  18.293  0.00  0.00    +0.000 OA
ATOM      3  C   UNL     1       3.852   5.297  18.117  0.00  0.00    +0.000 A 
ATOM      4  C   UNL     1       3.386   4.468  19.132  0.00  0.00    +0.000 A 
ATOM      5  C   UNL     1       3.684   3.030  19.382  0.00  0.00    +0.000 C 
ATOM      6  C   UNL     1       2.496   5.260  19.929  0.00  0.00    +0.000 A 
ATOM      7  C   UNL     1       1.731   4.789  21.116  0.00  0.00    +0.000 C 
ENDROOT
BRANCH   1  11
ATOM      8  C   UNL     1       0.293  10.031  20.609  0.00  0.00    +0.000 A 
ATOM      9  C   UNL     1       0.744   9.902  19.298  0.00  0.00    +0.000 A 
ATOM     10  C   UNL     1       1.551   8.807  18.939  0.00  0.00    +0.000 A 
ATOM     11  C   UNL     1       1.906   7.802  19.862  0.00  0.00    +0.000 A 
ATOM     12  C   UNL     1       1.510   7.988  21.192  0.00  0.00    +0.000 A 
ATOM     13  C   UNL     1       0.715   9.091  21.561  0.00  0.00    +0.000 A 
BRANCH   8  15
ATOM     14  N   UNL     1      -0.826  11.447  22.351  0.00  0.00    +0.000 N 
ATOM     15  C   UNL     1      -0.652  11.135  21.013  0.00  0.00    +0.000 C 
ATOM     16  N   UNL     1      -1.261  11.771  20.068  0.00  0.00    +0.000 NA
ATOM     17  H   UNL     1      -0.168  10.986  22.973  0.00  0.00    +0.000 HD
ATOM     18  H   UNL     1      -1.899  12.457  20.470  0.00  0.00    +0.000 HD
BRANCH  14  20
ATOM     19  C   UNL     1      -2.574  12.876  23.326  0.00  0.00    +0.000 C 
ATOM     20  C   UNL     1      -1.145  12.798  22.807  0.00  0.00    +0.000 C 
ENDBRANCH  14  20
ENDBRANCH   8  15
ENDBRANCH   1  11
BRANCH   3  21
ATOM     21  C   UNL     1       4.718   5.057  16.948  0.00  0.00    +0.000 A 
ATOM     22  C   UNL     1       5.130   3.758  16.608  0.00  0.00    +0.000 A 
ATOM     23  C   UNL     1       5.779   3.474  15.390  0.00  0.00    +0.000 A 
ATOM     24  C   UNL     1       6.075   4.490  14.472  0.00  0.00    +0.000 A 
ATOM     25  C   UNL     1       5.726   5.800  14.840  0.00  0.00    +0.000 A 
ATOM     26  C   UNL     1       5.060   6.077  16.056  0.00  0.00    +0.000 A 
BRANCH  24  27
ATOM     27  C   UNL     1       6.694   4.175  13.116  0.00  0.00    +0.000 C 
ATOM     28  N   UNL     1       7.620   4.917  12.586  0.00  0.00    +0.000 NA
ATOM     29  N   UNL     1       6.302   3.065  12.399  0.00  0.00    +0.000 N 
ATOM     30  H   UNL     1       7.874   5.724  13.148  0.00  0.00    +0.000 HD
ATOM     31  H   UNL     1       5.604   2.444  12.783  0.00  0.00    +0.000 HD
BRANCH  29  32
ATOM     32  C   UNL     1       7.158   2.463  11.383  0.00  0.00    +0.000 C 
ATOM     33  C   UNL     1       6.664   1.073  11.024  0.00  0.00    +0.000 C 
ENDBRANCH  29  32
ENDBRANCH  24  27
ENDBRANCH   3  21
TORSDOF 6
ENDMDL
MODEL 2
REMARK VINA RESULT:      -8.4      0.647      1.156
REMARK  Name = 
REMARK  10 active torsions:
REMARK  status: ('A' for Active; 'I' for Inactive)
REMARK    1  A    between atoms: C_1  and  C_2
REMARK    2  A    between atoms: C_2  and  N_3
REMARK    3  A    between atoms: C_4  and  C_6
REMARK    4  A    between atoms: C_9  and  C_10
REMARK    5  A    between atoms: C_12  and  C_13
REMARK    6  A    between atoms: C_16  and  C_17
REMARK    7  A    between atoms: N_19  and  C_20
REMARK    8  A    between atoms: C_20  and  C_21
REMARK    9  A    between atoms: C_24  and  C_25
REMARK   10  A    between atoms: C_26  and  C_27
REMARK                            x       y       z     vdW  Elec       q    Type
REMARK                         _______ _______ _______ _____ _____    ______ ____
ROOT
ATOM      1  C   UNL     1       2.550   6.524  19.289  0.00  0.00    +0.000 A 
ATOM      2  O   UNL     1       3.301   6.509  18.134  0.00  0.00    +0.000 OA
ATOM      3  C   UNL     1       3.970   5.301  18.077  0.00  0.00    +0.000 A 
ATOM      4  C   UNL     1       3.664   4.554  19.210  0.00  0.00    +0.000 A 
ATOM      5  C   UNL     1       4.160   3.207  19.608  0.00  0.00    +0.000 C 
ATOM      6  C   UNL     1       2.716   5.322  19.962  0.00  0.00    +0.000 A 
ATOM      7  C   UNL     1       2.075   4.910  21.241  0.00  0.00    +0.000 C 
ENDROOT
BRANCH   1  11
ATOM      8  C   UNL     1       0.765  10.272  20.452  0.00  0.00    +0.000 A 
ATOM      9  C   UNL     1       0.897   9.238  21.376  0.00  0.00    +0.000 A 
ATOM     10  C   UNL     1       1.393   7.987  20.962  0.00  0.00    +0.000 A 
ATOM     11  C   UNL     1       1.795   7.743  19.633  0.00  0.00    +0.000 A 
ATOM     12  C   UNL     1       1.584   8.766  18.703  0.00  0.00    +0.000 A 
ATOM     13  C   UNL     1       1.072  10.015  19.107  0.00  0.00    +0.000 A 
BRANCH   8  15
ATOM     14  N   UNL     1      -1.010  12.001  20.840  0.00  0.00    +0.000 N 
ATOM     15  C   UNL     1       0.330  11.654  20.871  0.00  0.00    +0.000 C 
ATOM     16  N   UNL     1       1.249  12.470  21.271  0.00  0.00    +0.000 NA
ATOM     17  H   UNL     1      -1.635  11.220  20.665  0.00  0.00    +0.000 HD
ATOM     18  H   UNL     1       0.835  13.377  21.483  0.00  0.00    +0.000 HD
BRANCH  14  20
ATOM     19  C   UNL     1      -2.021  12.288  23.063  0.00  0.00    +0.000 C 
ATOM     20  C   UNL     1      -1.593  12.966  21.769  0.00  0.00    +0.000 C 
ENDBRANCH  14  20
ENDBRANCH   8  15
ENDBRANCH   1  11
BRANCH   3  21
ATOM     21  C   UNL     1       4.804   5.027  16.893  0.00  0.00    +0.000 A 
ATOM     22  C   UNL     1       5.142   3.712  16.535  0.00  0.00    +0.000 A 
ATOM     23  C   UNL     1       5.757   3.406  15.305  0.00  0.00    +0.000 A 
ATOM     24  C   UNL     1       6.092   4.414  14.392  0.00  0.00    +0.000 A 
ATOM     25  C   UNL     1       5.819   5.737  14.777  0.00  0.00    +0.000 A 
ATOM     26  C   UNL     1       5.187   6.037  16.006  0.00  0.00    +0.000 A 
BRANCH  24  27
ATOM     27  C   UNL     1       6.674   4.080  13.024  0.00  0.00    +0.000 C 
ATOM     28  N   UNL     1       7.617   4.789  12.478  0.00  0.00    +0.000 NA
ATOM     29  N   UNL     1       6.228   2.987  12.312  0.00  0.00    +0.000 N 
ATOM     30  H   UNL     1       7.911   5.584  13.037  0.00  0.00    +0.000 HD
ATOM     31  H   UNL     1       5.515   2.392  12.708  0.00  0.00    +0.000 HD
BRANCH  29  32
ATOM     32  C   UNL     1       7.041   2.357  11.279  0.00  0.00    +0.000 C 
ATOM     33  C   UNL     1       6.560   0.943  11.008  0.00  0.00    +0.000 C 
ENDBRANCH  29  32
ENDBRANCH  24  27
ENDBRANCH   3  21
TORSDOF 6
ENDMDL
MODEL 3
REMARK VINA RESULT:      -8.3      2.205     10.440
REMARK  Name = 
REMARK  10 active torsions:
REMARK  status: ('A' for Active; 'I' for Inactive)
REMARK    1  A    between atoms: C_1  and  C_2
REMARK    2  A    between atoms: C_2  and  N_3
REMARK    3  A    between atoms: C_4  and  C_6
REMARK    4  A    between atoms: C_9  and  C_10
REMARK    5  A    between atoms: C_12  and  C_13
REMARK    6  A    between atoms: C_16  and  C_17
REMARK    7  A    between atoms: N_19  and  C_20
REMARK    8  A    between atoms: C_20  and  C_21
REMARK    9  A    between atoms: C_24  and  C_25
REMARK   10  A    between atoms: C_26  and  C_27
REMARK                            x       y       z     vdW  Elec       q    Type
REMARK                         _______ _______ _______ _____ _____    ______ ____
ROOT
ATOM      1  C   UNL     1       3.136   7.074  18.523  0.00  0.00    +0.000 A 
ATOM      2  O   UNL     1       2.645   8.305  18.146  0.00  0.00    +0.000 OA
ATOM      3  C   UNL     1       1.697   8.687  19.075  0.00  0.00    +0.000 A 
ATOM      4  C   UNL     1       1.564   7.688  20.033  0.00  0.00    +0.000 A 
ATOM      5  C   UNL     1       0.654   7.631  21.211  0.00  0.00    +0.000 C 
ATOM      6  C   UNL     1       2.523   6.675  19.703  0.00  0.00    +0.000 A 
ATOM      7  C   UNL     1       2.770   5.422  20.466  0.00  0.00    +0.000 C 
ENDROOT
BRANCH   1  11
ATOM      8  C   UNL     1       5.697   5.202  15.604  0.00  0.00    +0.000 A 
ATOM      9  C   UNL     1       4.669   4.479  16.206  0.00  0.00    +0.000 A 
ATOM     10  C   UNL     1       3.901   5.071  17.226  0.00  0.00    +0.000 A 
ATOM     11  C   UNL     1       4.114   6.398  17.651  0.00  0.00    +0.000 A 
ATOM     12  C   UNL     1       5.199   7.082  17.090  0.00  0.00    +0.000 A 
ATOM     13  C   UNL     1       5.983   6.489  16.081  0.00  0.00    +0.000 A 
BRANCH   8  15
ATOM     14  N   UNL     1       6.020   3.521  13.770  0.00  0.00    +0.000 N 
ATOM     15  C   UNL     1       6.479   4.641  14.442  0.00  0.00    +0.000 C 
ATOM     16  N   UNL     1       7.564   5.257  14.104  0.00  0.00    +0.000 NA
ATOM     17  H   UNL     1       5.080   3.238  14.031  0.00  0.00    +0.000 HD
ATOM     18  H   UNL     1       8.020   4.758  13.341  0.00  0.00    +0.000 HD
BRANCH  14  20
ATOM     19  C   UNL     1       4.980   3.071  11.587  0.00  0.00    +0.000 C 
ATOM     20  C   UNL     1       6.278   3.297  12.349  0.00  0.00    +0.000 C 
ENDBRANCH  14  20
ENDBRANCH   8  15
ENDBRANCH   1  11
BRANCH   3  21
ATOM     21  C   UNL     1       1.063  10.008  18.912  0.00  0.00    +0.000 A 
ATOM     22  C   UNL     1      -0.318  10.176  19.105  0.00  0.00    +0.000 A 
ATOM     23  C   UNL     1      -0.917  11.450  19.161  0.00  0.00    +0.000 A 
ATOM     24  C   UNL     1      -0.157  12.615  18.991  0.00  0.00    +0.000 A 
ATOM     25  C   UNL     1       1.212  12.449  18.729  0.00  0.00    +0.000 A 
ATOM     26  C   UNL     1       1.810  11.168  18.689  0.00  0.00    +0.000 A 
BRANCH  24  27
ATOM     27  C   UNL     1      -0.784  13.996  19.141  0.00  0.00    +0.000 C 
ATOM     28  N   UNL     1      -1.782  14.222  19.945  0.00  0.00    +0.000 NA
ATOM     29  N   UNL     1      -0.300  15.075  18.435  0.00  0.00    +0.000 N 
ATOM     30  H   UNL     1      -2.106  13.398  20.441  0.00  0.00    +0.000 HD
ATOM     31  H   UNL     1       0.491  14.953  17.818  0.00  0.00    +0.000 HD
BRANCH  29  32
ATOM     32  C   UNL     1      -0.518  16.447  18.879  0.00  0.00    +0.000 C 
ATOM     33  C   UNL     1       0.750  17.020  19.486  0.00  0.00    +0.000 C 
ENDBRANCH  29  32
ENDBRANCH  24  27
ENDBRANCH   3  21
TORSDOF 6
ENDMDL
MODEL 4
REMARK VINA RESULT:      -8.3      0.416     10.600
REMARK  Name = 
REMARK  10 active torsions:
REMARK  status: ('A' for Active; 'I' for Inactive)
REMARK    1  A    between atoms: C_1  and  C_2
REMARK    2  A    between atoms: C_2  and  N_3
REMARK    3  A    between atoms: C_4  and  C_6
REMARK    4  A    between atoms: C_9  and  C_10
REMARK    5  A    between atoms: C_12  and  C_13
REMARK    6  A    between atoms: C_16  and  C_17
REMARK    7  A    between atoms: N_19  and  C_20
REMARK    8  A    between atoms: C_20  and  C_21
REMARK    9  A    between atoms: C_24  and  C_25
REMARK   10  A    between atoms: C_26  and  C_27
REMARK                            x       y       z     vdW  Elec       q    Type
REMARK                         _______ _______ _______ _____ _____    ______ ____
ROOT
ATOM      1  C   UNL     1       3.777   5.508  18.259  0.00  0.00    +0.000 A 
ATOM      2  O   UNL     1       3.312   6.790  18.461  0.00  0.00    +0.000 OA
ATOM      3  C   UNL     1       2.389   6.750  19.488  0.00  0.00    +0.000 A 
ATOM      4  C   UNL     1       2.245   5.438  19.925  0.00  0.00    +0.000 A 
ATOM      5  C   UNL     1       1.352   4.894  20.986  0.00  0.00    +0.000 C 
ATOM      6  C   UNL     1       3.172   4.650  19.166  0.00  0.00    +0.000 A 
ATOM      7  C   UNL     1       3.397   3.186  19.309  0.00  0.00    +0.000 C 
ENDROOT
BRANCH   1  11
ATOM      8  C   UNL     1       6.158   4.627  14.775  0.00  0.00    +0.000 A 
ATOM      9  C   UNL     1       5.890   3.634  15.714  0.00  0.00    +0.000 A 
ATOM     10  C   UNL     1       5.192   3.955  16.893  0.00  0.00    +0.000 A 
ATOM     11  C   UNL     1       4.723   5.258  17.155  0.00  0.00    +0.000 A 
ATOM     12  C   UNL     1       5.068   6.258  16.239  0.00  0.00    +0.000 A 
ATOM     13  C   UNL     1       5.780   5.946  15.064  0.00  0.00    +0.000 A 
BRANCH   8  15
ATOM     14  N   UNL     1       6.652   3.059  12.881  0.00  0.00    +0.000 N 
ATOM     15  C   UNL     1       6.816   4.308  13.455  0.00  0.00    +0.000 C 
ATOM     16  N   UNL     1       7.507   5.244  12.894  0.00  0.00    +0.000 NA
ATOM     17  H   UNL     1       5.956   2.479  13.341  0.00  0.00    +0.000 HD
ATOM     18  H   UNL     1       7.932   4.892  12.037  0.00  0.00    +0.000 HD
BRANCH  14  20
ATOM     19  C   UNL     1       6.781   1.375  11.093  0.00  0.00    +0.000 C 
ATOM     20  C   UNL     1       6.656   2.853  11.434  0.00  0.00    +0.000 C 
ENDBRANCH  14  20
ENDBRANCH   8  15
ENDBRANCH   1  11
BRANCH   3  21
ATOM     21  C   UNL     1       1.788   8.023  19.926  0.00  0.00    +0.000 A 
ATOM     22  C   UNL     1       1.497   9.041  19.004  0.00  0.00    +0.000 A 
ATOM     23  C   UNL     1       0.738  10.175  19.356  0.00  0.00    +0.000 A 
ATOM     24  C   UNL     1       0.266  10.354  20.663  0.00  0.00    +0.000 A 
ATOM     25  C   UNL     1       0.614   9.372  21.604  0.00  0.00    +0.000 A 
ATOM     26  C   UNL     1       1.362   8.228  21.242  0.00  0.00    +0.000 A 
BRANCH  24  27
ATOM     27  C   UNL     1      -0.630  11.532  21.025  0.00  0.00    +0.000 C 
ATOM     28  N   UNL     1      -1.480  12.042  20.183  0.00  0.00    +0.000 NA
ATOM     29  N   UNL     1      -0.585  12.097  22.281  0.00  0.00    +0.000 N 
ATOM     30  H   UNL     1      -1.475  11.596  19.271  0.00  0.00    +0.000 HD
ATOM     31  H   UNL     1       0.041  11.717  22.976  0.00  0.00    +0.000 HD
BRANCH  29  32
ATOM     32  C   UNL     1      -1.703  12.860  22.822  0.00  0.00    +0.000 C 
ATOM     33  C   UNL     1      -2.717  11.936  23.471  0.00  0.00    +0.000 C 
ENDBRANCH  29  32
ENDBRANCH  24  27
ENDBRANCH   3  21
TORSDOF 6
ENDMDL
MODEL 5
REMARK VINA RESULT:      -8.3      0.834     10.493
REMARK  Name = 
REMARK  10 active torsions:
REMARK  status: ('A' for Active; 'I' for Inactive)
REMARK    1  A    between atoms: C_1  and  C_2
REMARK    2  A    between atoms: C_2  and  N_3
REMARK    3  A    between atoms: C_4  and  C_6
REMARK    4  A    between atoms: C_9  and  C_10
REMARK    5  A    between atoms: C_12  and  C_13
REMARK    6  A    between atoms: C_16  and  C_17
REMARK    7  A    between atoms: N_19  and  C_20
REMARK    8  A    between atoms: C_20  and  C_21
REMARK    9  A    between atoms: C_24  and  C_25
REMARK   10  A    between atoms: C_26  and  C_27
REMARK                            x       y       z     vdW  Elec       q    Type
REMARK                         _______ _______ _______ _____ _____    ______ ____
ROOT
ATOM      1  C   UNL     1       3.667   5.424  18.251  0.00  0.00    +0.000 A 
ATOM      2  O   UNL     1       3.269   6.707  18.560  0.00  0.00    +0.000 OA
ATOM      3  C   UNL     1       2.299   6.627  19.540  0.00  0.00    +0.000 A 
ATOM      4  C   UNL     1       2.059   5.290  19.840  0.00  0.00    +0.000 A 
ATOM      5  C   UNL     1       1.089   4.704  20.806  0.00  0.00    +0.000 C 
ATOM      6  C   UNL     1       2.972   4.523  19.045  0.00  0.00    +0.000 A 
ATOM      7  C   UNL     1       3.106   3.040  19.051  0.00  0.00    +0.000 C 
ENDROOT
BRANCH   1  11
ATOM      8  C   UNL     1       6.162   4.650  14.822  0.00  0.00    +0.000 A 
ATOM      9  C   UNL     1       5.958   3.661  15.782  0.00  0.00    +0.000 A 
ATOM     10  C   UNL     1       5.220   3.955  16.944  0.00  0.00    +0.000 A 
ATOM     11  C   UNL     1       4.646   5.223  17.167  0.00  0.00    +0.000 A 
ATOM     12  C   UNL     1       4.926   6.225  16.231  0.00  0.00    +0.000 A 
ATOM     13  C   UNL     1       5.678   5.942  15.073  0.00  0.00    +0.000 A 
BRANCH   8  15
ATOM     14  N   UNL     1       6.695   3.121  12.906  0.00  0.00    +0.000 N 
ATOM     15  C   UNL     1       6.862   4.351  13.519  0.00  0.00    +0.000 C 
ATOM     16  N   UNL     1       7.592   5.288  13.009  0.00  0.00    +0.000 NA
ATOM     17  H   UNL     1       5.971   2.545  13.324  0.00  0.00    +0.000 HD
ATOM     18  H   UNL     1       8.042   4.949  12.159  0.00  0.00    +0.000 HD
BRANCH  14  20
ATOM     19  C   UNL     1       6.590   1.490  11.068  0.00  0.00    +0.000 C 
ATOM     20  C   UNL     1       6.750   2.953  11.455  0.00  0.00    +0.000 C 
ENDBRANCH  14  20
ENDBRANCH   8  15
ENDBRANCH   1  11
BRANCH   3  21
ATOM     21  C   UNL     1       1.753   7.886  20.078  0.00  0.00    +0.000 A 
ATOM     22  C   UNL     1       1.417   8.951  19.226  0.00  0.00    +0.000 A 
ATOM     23  C   UNL     1       0.706  10.078  19.681  0.00  0.00    +0.000 A 
ATOM     24  C   UNL     1       0.330  10.203  21.025  0.00  0.00    +0.000 A 
ATOM     25  C   UNL     1       0.724   9.173  21.894  0.00  0.00    +0.000 A 
ATOM     26  C   UNL     1       1.424   8.036  21.428  0.00  0.00    +0.000 A 
BRANCH  24  27
ATOM     27  C   UNL     1      -0.517  11.376  21.503  0.00  0.00    +0.000 C 
ATOM     28  N   UNL     1      -0.424  11.855  22.708  0.00  0.00    +0.000 NA
ATOM     29  N   UNL     1      -1.414  11.994  20.658  0.00  0.00    +0.000 N 
ATOM     30  H   UNL     1       0.246  11.367  23.295  0.00  0.00    +0.000 HD
ATOM     31  H   UNL     1      -1.502  11.673  19.704  0.00  0.00    +0.000 HD
BRANCH  29  32
ATOM     32  C   UNL     1      -1.870  13.360  20.884  0.00  0.00    +0.000 C 
ATOM     33  C   UNL     1      -1.029  14.343  20.089  0.00  0.00    +0.000 C 
ENDBRANCH  29  32
ENDBRANCH  24  27
ENDBRANCH   3  21
TORSDOF 6
ENDMDL
MODEL 6
REMARK VINA RESULT:      -8.2      2.825      3.773
REMARK  Name = 
REMARK  10 active torsions:
REMARK  status: ('A' for Active; 'I' for Inactive)
REMARK    1  A    between atoms: C_1  and  C_2
REMARK    2  A    between atoms: C_2  and  N_3
REMARK    3  A    between atoms: C_4  and  C_6
REMARK    4  A    between atoms: C_9  and  C_10
REMARK    5  A    between atoms: C_12  and  C_13
REMARK    6  A    between atoms: C_16  and  C_17
REMARK    7  A    between atoms: N_19  and  C_20
REMARK    8  A    between atoms: C_20  and  C_21
REMARK    9  A    between atoms: C_24  and  C_25
REMARK   10  A    between atoms: C_26  and  C_27
REMARK                            x       y       z     vdW  Elec       q    Type
REMARK                         _______ _______ _______ _____ _____    ______ ____
ROOT
ATOM      1  C   UNL     1       1.334   9.365  19.190  0.00  0.00    +0.000 A 
ATOM      2  O   UNL     1       2.240   8.787  18.328  0.00  0.00    +0.000 OA
ATOM      3  C   UNL     1       2.532   7.524  18.802  0.00  0.00    +0.000 A 
ATOM      4  C   UNL     1       1.832   7.304  19.984  0.00  0.00    +0.000 A 
ATOM      5  C   UNL     1       1.842   6.109  20.873  0.00  0.00    +0.000 C 
ATOM      6  C   UNL     1       1.028   8.470  20.204  0.00  0.00    +0.000 A 
ATOM      7  C   UNL     1       0.082   8.679  21.335  0.00  0.00    +0.000 C 
ENDROOT
BRANCH   1  11
ATOM      8  C   UNL     1      -0.018  13.453  18.970  0.00  0.00    +0.000 A 
ATOM      9  C   UNL     1      -0.916  12.403  18.788  0.00  0.00    +0.000 A 
ATOM     10  C   UNL     1      -0.447  11.077  18.767  0.00  0.00    +0.000 A 
ATOM     11  C   UNL     1       0.913  10.759  18.953  0.00  0.00    +0.000 A 
ATOM     12  C   UNL     1       1.811  11.828  19.057  0.00  0.00    +0.000 A 
ATOM     13  C   UNL     1       1.350  13.159  19.062  0.00  0.00    +0.000 A 
BRANCH   8  15
ATOM     14  N   UNL     1       0.259  15.910  18.550  0.00  0.00    +0.000 N 
ATOM     15  C   UNL     1      -0.489  14.881  19.095  0.00  0.00    +0.000 C 
ATOM     16  N   UNL     1      -1.609  15.085  19.706  0.00  0.00    +0.000 NA
ATOM     17  H   UNL     1       1.025  15.598  17.960  0.00  0.00    +0.000 HD
ATOM     18  H   UNL     1      -1.793  16.086  19.762  0.00  0.00    +0.000 HD
BRANCH  14  20
ATOM     19  C   UNL     1       0.679  17.997  17.318  0.00  0.00    +0.000 C 
ATOM     20  C   UNL     1      -0.348  17.140  18.044  0.00  0.00    +0.000 C 
ENDBRANCH  14  20
ENDBRANCH   8  15
ENDBRANCH   1  11
BRANCH   3  21
ATOM     21  C   UNL     1       3.447   6.681  18.010  0.00  0.00    +0.000 A 
ATOM     22  C   UNL     1       3.272   5.290  17.942  0.00  0.00    +0.000 A 
ATOM     23  C   UNL     1       3.994   4.488  17.037  0.00  0.00    +0.000 A 
ATOM     24  C   UNL     1       4.953   5.045  16.181  0.00  0.00    +0.000 A 
ATOM     25  C   UNL     1       5.181   6.426  16.295  0.00  0.00    +0.000 A 
ATOM     26  C   UNL     1       4.441   7.229  17.195  0.00  0.00    +0.000 A 
BRANCH  24  27
ATOM     27  C   UNL     1       5.671   4.197  15.138  0.00  0.00    +0.000 C 
ATOM     28  N   UNL     1       6.382   3.157  15.459  0.00  0.00    +0.000 NA
ATOM     29  N   UNL     1       5.576   4.493  13.796  0.00  0.00    +0.000 N 
ATOM     30  H   UNL     1       6.425   2.979  16.458  0.00  0.00    +0.000 HD
ATOM     31  H   UNL     1       5.013   5.277  13.497  0.00  0.00    +0.000 HD
BRANCH  29  32
ATOM     32  C   UNL     1       5.816   3.489  12.767  0.00  0.00    +0.000 C 
ATOM     33  C   UNL     1       4.610   3.362  11.853  0.00  0.00    +0.000 C 
ENDBRANCH  29  32
ENDBRANCH  24  27
ENDBRANCH   3  21
TORSDOF 6
ENDMDL
MODEL 7
REMARK VINA RESULT:      -8.2      4.672      7.200
REMARK  Name = 
REMARK  10 active torsions:
REMARK  status: ('A' for Active; 'I' for Inactive)
REMARK    1  A    between atoms: C_1  and  C_2
REMARK    2  A    between atoms: C_2  and  N_3
REMARK    3  A    between atoms: C_4  and  C_6
REMARK    4  A    between atoms: C_9  and  C_10
REMARK    5  A    between atoms: C_12  and  C_13
REMARK    6  A    between atoms: C_16  and  C_17
REMARK    7  A    between atoms: N_19  and  C_20
REMARK    8  A    between atoms: C_20  and  C_21
REMARK    9  A    between atoms: C_24  and  C_25
REMARK   10  A    between atoms: C_26  and  C_27
REMARK                            x       y       z     vdW  Elec       q    Type
REMARK                         _______ _______ _______ _____ _____    ______ ____
ROOT
ATOM      1  C   UNL     1      -1.028  12.044  19.690  0.00  0.00    +0.000 A 
ATOM      2  O   UNL     1      -0.602  10.741  19.820  0.00  0.00    +0.000 OA
ATOM      3  C   UNL     1       0.673  10.656  19.296  0.00  0.00    +0.000 A 
ATOM      4  C   UNL     1       1.053  11.902  18.809  0.00  0.00    +0.000 A 
ATOM      5  C   UNL     1       2.319  12.300  18.133  0.00  0.00    +0.000 C 
ATOM      6  C   UNL     1      -0.023  12.801  19.105  0.00  0.00    +0.000 A 
ATOM      7  C   UNL     1      -0.056  14.258  18.799  0.00  0.00    +0.000 C 
ENDROOT
BRANCH   1  11
ATOM      8  C   UNL     1      -5.107  12.582  20.979  0.00  0.00    +0.000 A 
ATOM      9  C   UNL     1      -4.821  12.297  19.646  0.00  0.00    +0.000 A 
ATOM     10  C   UNL     1      -3.483  12.217  19.217  0.00  0.00    +0.000 A 
ATOM     11  C   UNL     1      -2.401  12.391  20.103  0.00  0.00    +0.000 A 
ATOM     12  C   UNL     1      -2.705  12.752  21.421  0.00  0.00    +0.000 A 
ATOM     13  C   UNL     1      -4.043  12.850  21.852  0.00  0.00    +0.000 A 
BRANCH   8  15
ATOM     14  N   UNL     1      -6.783  12.203  22.806  0.00  0.00    +0.000 N 
ATOM     15  C   UNL     1      -6.523  12.580  21.500  0.00  0.00    +0.000 C 
ATOM     16  N   UNL     1      -7.455  12.959  20.689  0.00  0.00    +0.000 NA
ATOM     17  H   UNL     1      -5.951  12.089  23.378  0.00  0.00    +0.000 HD
ATOM     18  H   UNL     1      -8.363  12.872  21.143  0.00  0.00    +0.000 HD
BRANCH  14  20
ATOM     19  C   UNL     1      -7.512  14.072  24.228  0.00  0.00    +0.000 C 
ATOM     20  C   UNL     1      -7.897  12.752  23.576  0.00  0.00    +0.000 C 
ENDBRANCH  14  20
ENDBRANCH   8  15
ENDBRANCH   1  11
BRANCH   3  21
ATOM     21  C   UNL     1       1.368   9.358  19.372  0.00  0.00    +0.000 A 
ATOM     22  C   UNL     1       1.333   8.586  20.545  0.00  0.00    +0.000 A 
ATOM     23  C   UNL     1       1.806   7.260  20.582  0.00  0.00    +0.000 A 
ATOM     24  C   UNL     1       2.368   6.659  19.448  0.00  0.00    +0.000 A 
ATOM     25  C   UNL     1       2.468   7.450  18.293  0.00  0.00    +0.000 A 
ATOM     26  C   UNL     1       1.977   8.776  18.257  0.00  0.00    +0.000 A 
BRANCH  24  27
ATOM     27  C   UNL     1       2.797   5.196  19.460  0.00  0.00    +0.000 C 
ATOM     28  N   UNL     1       4.044   4.837  19.371  0.00  0.00    +0.000 NA
ATOM     29  N   UNL     1       1.868   4.186  19.584  0.00  0.00    +0.000 N 
ATOM     30  H   UNL     1       4.691   5.615  19.278  0.00  0.00    +0.000 HD
ATOM     31  H   UNL     1       0.890   4.418  19.682  0.00  0.00    +0.000 HD
BRANCH  29  32
ATOM     32  C   UNL     1       2.231   2.862  20.075  0.00  0.00    +0.000 C 
ATOM     33  C   UNL     1       1.958   2.751  21.564  0.00  0.00    +0.000 C 
ENDBRANCH  29  32
ENDBRANCH  24  27
ENDBRANCH   3  21
TORSDOF 6
ENDMDL
MODEL 8
REMARK VINA RESULT:      -8.1      0.682     10.565
REMARK  Name = 
REMARK  10 active torsions:
REMARK  status: ('A' for Active; 'I' for Inactive)
REMARK    1  A    between atoms: C_1  and  C_2
REMARK    2  A    between atoms: C_2  and  N_3
REMARK    3  A    between atoms: C_4  and  C_6
REMARK    4  A    between atoms: C_9  and  C_10
REMARK    5  A    between atoms: C_12  and  C_13
REMARK    6  A    between atoms: C_16  and  C_17
REMARK    7  A    between atoms: N_19  and  C_20
REMARK    8  A    between atoms: C_20  and  C_21
REMARK    9  A    between atoms: C_24  and  C_25
REMARK   10  A    between atoms: C_26  and  C_27
REMARK                            x       y       z     vdW  Elec       q    Type
REMARK                         _______ _______ _______ _____ _____    ______ ____
ROOT
ATOM      1  C   UNL     1       3.932   5.610  18.428  0.00  0.00    +0.000 A 
ATOM      2  O   UNL     1       3.289   6.817  18.593  0.00  0.00    +0.000 OA
ATOM      3  C   UNL     1       2.424   6.695  19.663  0.00  0.00    +0.000 A 
ATOM      4  C   UNL     1       2.496   5.400  20.166  0.00  0.00    +0.000 A 
ATOM      5  C   UNL     1       1.737   4.786  21.291  0.00  0.00    +0.000 C 
ATOM      6  C   UNL     1       3.499   4.721  19.401  0.00  0.00    +0.000 A 
ATOM      7  C   UNL     1       3.948   3.315  19.599  0.00  0.00    +0.000 C 
ENDROOT
BRANCH   1  11
ATOM      8  C   UNL     1       6.304   4.848  14.909  0.00  0.00    +0.000 A 
ATOM      9  C   UNL     1       6.352   3.975  15.993  0.00  0.00    +0.000 A 
ATOM     10  C   UNL     1       5.648   4.283  17.173  0.00  0.00    +0.000 A 
ATOM     11  C   UNL     1       4.860   5.446  17.294  0.00  0.00    +0.000 A 
ATOM     12  C   UNL     1       4.885   6.349  16.225  0.00  0.00    +0.000 A 
ATOM     13  C   UNL     1       5.602   6.055  15.048  0.00  0.00    +0.000 A 
BRANCH   8  15
ATOM     14  N   UNL     1       6.656   3.326  12.947  0.00  0.00    +0.000 N 
ATOM     15  C   UNL     1       6.963   4.511  13.595  0.00  0.00    +0.000 C 
ATOM     16  N   UNL     1       7.793   5.373  13.108  0.00  0.00    +0.000 NA
ATOM     17  H   UNL     1       5.872   2.824  13.352  0.00  0.00    +0.000 HD
ATOM     18  H   UNL     1       8.201   5.010  12.247  0.00  0.00    +0.000 HD
BRANCH  14  20
ATOM     19  C   UNL     1       7.339   1.885  11.075  0.00  0.00    +0.000 C 
ATOM     20  C   UNL     1       6.688   3.196  11.492  0.00  0.00    +0.000 C 
ENDBRANCH  14  20
ENDBRANCH   8  15
ENDBRANCH   1  11
BRANCH   3  21
ATOM     21  C   UNL     1       1.656   7.886  20.072  0.00  0.00    +0.000 A 
ATOM     22  C   UNL     1       1.244   8.059  21.403  0.00  0.00    +0.000 A 
ATOM     23  C   UNL     1       0.695   9.271  21.865  0.00  0.00    +0.000 A 
ATOM     24  C   UNL     1       0.503  10.356  20.999  0.00  0.00    +0.000 A 
ATOM     25  C   UNL     1       0.849  10.163  19.652  0.00  0.00    +0.000 A 
ATOM     26  C   UNL     1       1.415   8.949  19.197  0.00  0.00    +0.000 A 
BRANCH  24  27
ATOM     27  C   UNL     1      -0.005  11.697  21.513  0.00  0.00    +0.000 C 
ATOM     28  N   UNL     1       0.184  12.808  20.863  0.00  0.00    +0.000 NA
ATOM     29  N   UNL     1      -0.710  11.783  22.695  0.00  0.00    +0.000 N 
ATOM     30  H   UNL     1       0.710  12.696  20.001  0.00  0.00    +0.000 HD
ATOM     31  H   UNL     1      -0.904  10.943  23.221  0.00  0.00    +0.000 HD
BRANCH  29  32
ATOM     32  C   UNL     1      -1.604  12.898  22.979  0.00  0.00    +0.000 C 
ATOM     33  C   UNL     1      -3.054  12.458  22.885  0.00  0.00    +0.000 C 
ENDBRANCH  29  32
ENDBRANCH  24  27
ENDBRANCH   3  21
TORSDOF 6
ENDMDL
MODEL 9
REMARK VINA RESULT:      -8.1      3.824      6.634
REMARK  Name = 
REMARK  10 active torsions:
REMARK  status: ('A' for Active; 'I' for Inactive)
REMARK    1  A    between atoms: C_1  and  C_2
REMARK    2  A    between atoms: C_2  and  N_3
REMARK    3  A    between atoms: C_4  and  C_6
REMARK    4  A    between atoms: C_9  and  C_10
REMARK    5  A    between atoms: C_12  and  C_13
REMARK    6  A    between atoms: C_16  and  C_17
REMARK    7  A    between atoms: N_19  and  C_20
REMARK    8  A    between atoms: C_20  and  C_21
REMARK    9  A    between atoms: C_24  and  C_25
REMARK   10  A    between atoms: C_26  and  C_27
REMARK                            x       y       z     vdW  Elec       q    Type
REMARK                         _______ _______ _______ _____ _____    ______ ____
ROOT
ATOM      1  C   UNL     1      -0.319  12.096  20.660  0.00  0.00    +0.000 A 
ATOM      2  O   UNL     1      -0.035  10.769  20.427  0.00  0.00    +0.000 OA
ATOM      3  C   UNL     1       0.958  10.708  19.470  0.00  0.00    +0.000 A 
ATOM      4  C   UNL     1       1.292  11.999  19.073  0.00  0.00    +0.000 A 
ATOM      5  C   UNL     1       2.283  12.440  18.052  0.00  0.00    +0.000 C 
ATOM      6  C   UNL     1       0.503  12.889  19.872  0.00  0.00    +0.000 A 
ATOM      7  C   UNL     1       0.543  14.376  19.823  0.00  0.00    +0.000 C 
ENDROOT
BRANCH   1  11
ATOM      8  C   UNL     1      -3.749  12.720  23.197  0.00  0.00    +0.000 A 
ATOM      9  C   UNL     1      -3.703  13.283  21.923  0.00  0.00    +0.000 A 
ATOM     10  C   UNL     1      -2.541  13.152  21.141  0.00  0.00    +0.000 A 
ATOM     11  C   UNL     1      -1.411  12.440  21.591  0.00  0.00    +0.000 A 
ATOM     12  C   UNL     1      -1.445  11.948  22.901  0.00  0.00    +0.000 A 
ATOM     13  C   UNL     1      -2.600  12.089  23.695  0.00  0.00    +0.000 A 
BRANCH   8  15
ATOM     14  N   UNL     1      -6.136  13.400  23.557  0.00  0.00    +0.000 N 
ATOM     15  C   UNL     1      -5.007  12.752  24.028  0.00  0.00    +0.000 C 
ATOM     16  N   UNL     1      -4.983  12.141  25.167  0.00  0.00    +0.000 NA
ATOM     17  H   UNL     1      -6.071  13.692  22.586  0.00  0.00    +0.000 HD
ATOM     18  H   UNL     1      -5.872  12.273  25.648  0.00  0.00    +0.000 HD
BRANCH  14  20
ATOM     19  C   UNL     1      -7.916  11.775  23.064  0.00  0.00    +0.000 C 
ATOM     20  C   UNL     1      -7.490  12.972  23.903  0.00  0.00    +0.000 C 
ENDBRANCH  14  20
ENDBRANCH   8  15
ENDBRANCH   1  11
BRANCH   3  21
ATOM     21  C   UNL     1       1.474   9.380  19.090  0.00  0.00    +0.000 A 
ATOM     22  C   UNL     1       1.989   9.144  17.806  0.00  0.00    +0.000 A 
ATOM     23  C   UNL     1       2.674   7.957  17.480  0.00  0.00    +0.000 A 
ATOM     24  C   UNL     1       2.841   6.935  18.424  0.00  0.00    +0.000 A 
ATOM     25  C   UNL     1       2.266   7.137  19.689  0.00  0.00    +0.000 A 
ATOM     26  C   UNL     1       1.594   8.339  20.015  0.00  0.00    +0.000 A 
BRANCH  24  27
ATOM     27  C   UNL     1       3.658   5.689  18.104  0.00  0.00    +0.000 C 
ATOM     28  N   UNL     1       4.771   5.742  17.434  0.00  0.00    +0.000 NA
ATOM     29  N   UNL     1       3.251   4.444  18.533  0.00  0.00    +0.000 N 
ATOM     30  H   UNL     1       5.029   6.678  17.136  0.00  0.00    +0.000 HD
ATOM     31  H   UNL     1       2.406   4.357  19.080  0.00  0.00    +0.000 HD
BRANCH  29  32
ATOM     32  C   UNL     1       4.187   3.337  18.682  0.00  0.00    +0.000 C 
ATOM     33  C   UNL     1       3.904   2.565  19.958  0.00  0.00    +0.000 C 
ENDBRANCH  29  32
ENDBRANCH  24  27
ENDBRANCH   3  21
TORSDOF 6
ENDMDL
