MODEL 1
REMARK VINA RESULT:      -8.0      0.000      0.000
REMARK  Name = 
REMARK  5 active torsions:
REMARK  status: ('A' for Active; 'I' for Inactive)
REMARK    1  A    between atoms: N_1  and  N_2
REMARK    2  A    between atoms: C_3  and  S_4
REMARK    3  A    between atoms: S_4  and  C_5
REMARK    4  A    between atoms: C_5  and  C_6
REMARK    5  A    between atoms: N_17  and  C_18
REMARK                            x       y       z     vdW  Elec       q    Type
REMARK                         _______ _______ _______ _____ _____    ______ ____
ROOT
ATOM      1  N   UNL     1       3.809   3.205  18.071  0.00  0.00    +0.000 N 
ATOM      2  C   UNL     1       3.902   4.429  17.357  0.00  0.00    +0.000 A 
ATOM      3  N   UNL     1       3.411   5.558  17.790  0.00  0.00    +0.000 NA
ATOM      4  C   UNL     1       2.795   5.486  19.005  0.00  0.00    +0.000 A 
ATOM      5  C   UNL     1       2.699   4.372  19.805  0.00  0.00    +0.000 A 
ATOM      6  C   UNL     1       2.057   4.774  20.972  0.00  0.00    +0.000 A 
ATOM      7  N   UNL     1       1.746   6.069  20.943  0.00  0.00    +0.000 NA
ATOM      8  N   UNL     1       2.158   6.510  19.711  0.00  0.00    +0.000 N 
ATOM      9  C   UNL     1       3.229   3.123  19.355  0.00  0.00    +0.000 A 
ATOM     10  O   UNL     1       3.190   2.096  20.031  0.00  0.00    +0.000 OA
ENDROOT
BRANCH   8  11
ATOM     11  C   UNL     1       1.899   7.858  19.328  0.00  0.00    +0.000 A 
ATOM     12  C   UNL     1       1.262   8.713  20.242  0.00  0.00    +0.000 A 
ATOM     13  C   UNL     1       0.990  10.039  19.901  0.00  0.00    +0.000 A 
ATOM     14  C   UNL     1       1.340  10.518  18.642  0.00  0.00    +0.000 A 
ATOM     15  C   UNL     1       1.959   9.673  17.723  0.00  0.00    +0.000 A 
ATOM     16  C   UNL     1       2.244   8.348  18.062  0.00  0.00    +0.000 A 
ENDBRANCH   8  11
BRANCH   1  17
ATOM     17  N   UNL     1       4.268   1.958  17.515  0.00  0.00    +0.000 N 
ATOM     18  H   UNL     1       5.264   2.064  17.316  0.00  0.00    +0.000 HD
ATOM     19  H   UNL     1       4.212   1.266  18.275  0.00  0.00    +0.000 HD
ENDBRANCH   1  17
BRANCH   2  20
ATOM     20  S   UNL     1       4.736   4.401  15.792  0.00  0.00    +0.000 S 
BRANCH  20  21
ATOM     21  C   UNL     1       6.475   4.157  16.280  0.00  0.00    +0.000 C 
BRANCH  21  22
ATOM     22  C   UNL     1       7.035   5.279  17.145  0.00  0.00    +0.000 A 
ATOM     23  C   UNL     1       7.598   5.000  18.402  0.00  0.00    +0.000 A 
ATOM     24  C   UNL     1       8.163   6.010  19.187  0.00  0.00    +0.000 A 
ATOM     25  C   UNL     1       8.171   7.325  18.732  0.00  0.00    +0.000 A 
ATOM     26  C   UNL     1       7.616   7.627  17.490  0.00  0.00    +0.000 A 
ATOM     27  C   UNL     1       7.056   6.614  16.706  0.00  0.00    +0.000 A 
ENDBRANCH  21  22
ENDBRANCH  20  21
ENDBRANCH   2  20
TORSDOF 5
ENDMDL
MODEL 2
REMARK VINA RESULT:      -7.9      2.170      6.350
REMARK  Name = 
REMARK  5 active torsions:
REMARK  status: ('A' for Active; 'I' for Inactive)
REMARK    1  A    between atoms: N_1  and  N_2
REMARK    2  A    between atoms: C_3  and  S_4
REMARK    3  A    between atoms: S_4  and  C_5
REMARK    4  A    between atoms: C_5  and  C_6
REMARK    5  A    between atoms: N_17  and  C_18
REMARK                            x       y       z     vdW  Elec       q    Type
REMARK                         _______ _______ _______ _____ _____    ______ ____
ROOT
ATOM      1  N   UNL     1       1.604   4.064  19.378  0.00  0.00    +0.000 N 
ATOM      2  C   UNL     1       2.265   5.253  19.784  0.00  0.00    +0.000 A 
ATOM      3  N   UNL     1       3.423   5.632  19.318  0.00  0.00    +0.000 NA
ATOM      4  C   UNL     1       3.967   4.796  18.386  0.00  0.00    +0.000 A 
ATOM      5  C   UNL     1       3.391   3.655  17.880  0.00  0.00    +0.000 A 
ATOM      6  C   UNL     1       4.262   3.165  16.912  0.00  0.00    +0.000 A 
ATOM      7  N   UNL     1       5.345   3.931  16.790  0.00  0.00    +0.000 NA
ATOM      8  N   UNL     1       5.195   4.919  17.730  0.00  0.00    +0.000 N 
ATOM      9  C   UNL     1       2.122   3.218  18.374  0.00  0.00    +0.000 A 
ATOM     10  O   UNL     1       1.547   2.217  17.949  0.00  0.00    +0.000 OA
ENDROOT
BRANCH   8  11
ATOM     11  C   UNL     1       6.235   5.876  17.912  0.00  0.00    +0.000 A 
ATOM     12  C   UNL     1       7.201   5.646  18.906  0.00  0.00    +0.000 A 
ATOM     13  C   UNL     1       8.233   6.561  19.115  0.00  0.00    +0.000 A 
ATOM     14  C   UNL     1       8.302   7.719  18.345  0.00  0.00    +0.000 A 
ATOM     15  C   UNL     1       7.340   7.963  17.367  0.00  0.00    +0.000 A 
ATOM     16  C   UNL     1       6.310   7.045  17.145  0.00  0.00    +0.000 A 
ENDBRANCH   8  11
BRANCH   1  17
ATOM     17  N   UNL     1       0.378   3.621  19.991  0.00  0.00    +0.000 N 
ATOM     18  H   UNL     1      -0.361   3.714  19.293  0.00  0.00    +0.000 HD
ATOM     19  H   UNL     1       0.482   2.609  20.147  0.00  0.00    +0.000 HD
ENDBRANCH   1  17
BRANCH   2  20
ATOM     20  S   UNL     1       1.455   6.265  20.994  0.00  0.00    +0.000 S 
BRANCH  20  21
ATOM     21  C   UNL     1       1.721   7.945  20.339  0.00  0.00    +0.000 C 
BRANCH  21  22
ATOM     22  C   UNL     1       0.863   9.010  21.010  0.00  0.00    +0.000 A 
ATOM     23  C   UNL     1       0.222   9.999  20.243  0.00  0.00    +0.000 A 
ATOM     24  C   UNL     1      -0.611  10.954  20.836  0.00  0.00    +0.000 A 
ATOM     25  C   UNL     1      -0.816  10.942  22.213  0.00  0.00    +0.000 A 
ATOM     26  C   UNL     1      -0.190   9.973  22.993  0.00  0.00    +0.000 A 
ATOM     27  C   UNL     1       0.639   9.018  22.397  0.00  0.00    +0.000 A 
ENDBRANCH  21  22
ENDBRANCH  20  21
ENDBRANCH   2  20
TORSDOF 5
ENDMDL
MODEL 3
REMARK VINA RESULT:      -7.9      0.082      1.365
REMARK  Name = 
REMARK  5 active torsions:
REMARK  status: ('A' for Active; 'I' for Inactive)
REMARK    1  A    between atoms: N_1  and  N_2
REMARK    2  A    between atoms: C_3  and  S_4
REMARK    3  A    between atoms: S_4  and  C_5
REMARK    4  A    between atoms: C_5  and  C_6
REMARK    5  A    between atoms: N_17  and  C_18
REMARK                            x       y       z     vdW  Elec       q    Type
REMARK                         _______ _______ _______ _____ _____    ______ ____
ROOT
ATOM      1  N   UNL     1       3.827   3.247  18.042  0.00  0.00    +0.000 N 
ATOM      2  C   UNL     1       3.879   4.480  17.339  0.00  0.00    +0.000 A 
ATOM      3  N   UNL     1       3.382   5.596  17.798  0.00  0.00    +0.000 NA
ATOM      4  C   UNL     1       2.802   5.500  19.029  0.00  0.00    +0.000 A 
ATOM      5  C   UNL     1       2.746   4.376  19.819  0.00  0.00    +0.000 A 
ATOM      6  C   UNL     1       2.131   4.755  21.008  0.00  0.00    +0.000 A 
ATOM      7  N   UNL     1       1.798   6.045  21.002  0.00  0.00    +0.000 NA
ATOM      8  N   UNL     1       2.167   6.506  19.763  0.00  0.00    +0.000 N 
ATOM      9  C   UNL     1       3.285   3.141  19.340  0.00  0.00    +0.000 A 
ATOM     10  O   UNL     1       3.282   2.107  20.006  0.00  0.00    +0.000 OA
ENDROOT
BRANCH   8  11
ATOM     11  C   UNL     1       1.875   7.853  19.402  0.00  0.00    +0.000 A 
ATOM     12  C   UNL     1       2.272   8.318  18.137  0.00  0.00    +0.000 A 
ATOM     13  C   UNL     1       2.005   9.631  17.749  0.00  0.00    +0.000 A 
ATOM     14  C   UNL     1       1.354  10.495  18.625  0.00  0.00    +0.000 A 
ATOM     15  C   UNL     1       0.969  10.048  19.887  0.00  0.00    +0.000 A 
ATOM     16  C   UNL     1       1.223   8.730  20.277  0.00  0.00    +0.000 A 
ENDBRANCH   8  11
BRANCH   1  17
ATOM     17  N   UNL     1       4.292   2.014  17.460  0.00  0.00    +0.000 N 
ATOM     18  H   UNL     1       4.602   1.416  18.226  0.00  0.00    +0.000 HD
ATOM     19  H   UNL     1       3.461   1.549  17.069  0.00  0.00    +0.000 HD
ENDBRANCH   1  17
BRANCH   2  20
ATOM     20  S   UNL     1       4.669   4.483  15.751  0.00  0.00    +0.000 S 
BRANCH  20  21
ATOM     21  C   UNL     1       6.409   4.149  16.179  0.00  0.00    +0.000 C 
BRANCH  21  22
ATOM     22  C   UNL     1       7.040   5.214  17.067  0.00  0.00    +0.000 A 
ATOM     23  C   UNL     1       7.095   6.554  16.646  0.00  0.00    +0.000 A 
ATOM     24  C   UNL     1       7.624   7.554  17.469  0.00  0.00    +0.000 A 
ATOM     25  C   UNL     1       8.116   7.231  18.731  0.00  0.00    +0.000 A 
ATOM     26  C   UNL     1       8.075   5.909  19.168  0.00  0.00    +0.000 A 
ATOM     27  C   UNL     1       7.541   4.913  18.344  0.00  0.00    +0.000 A 
ENDBRANCH  21  22
ENDBRANCH  20  21
ENDBRANCH   2  20
TORSDOF 5
ENDMDL
MODEL 4
REMARK VINA RESULT:      -7.8      2.179      6.306
REMARK  Name = 
REMARK  5 active torsions:
REMARK  status: ('A' for Active; 'I' for Inactive)
REMARK    1  A    between atoms: N_1  and  N_2
REMARK    2  A    between atoms: C_3  and  S_4
REMARK    3  A    between atoms: S_4  and  C_5
REMARK    4  A    between atoms: C_5  and  C_6
REMARK    5  A    between atoms: N_17  and  C_18
REMARK                            x       y       z     vdW  Elec       q    Type
REMARK                         _______ _______ _______ _____ _____    ______ ____
ROOT
ATOM      1  N   UNL     1       1.562   4.020  19.373  0.00  0.00    +0.000 N 
ATOM      2  C   UNL     1       2.227   5.200  19.799  0.00  0.00    +0.000 A 
ATOM      3  N   UNL     1       3.391   5.578  19.346  0.00  0.00    +0.000 NA
ATOM      4  C   UNL     1       3.937   4.750  18.409  0.00  0.00    +0.000 A 
ATOM      5  C   UNL     1       3.357   3.619  17.885  0.00  0.00    +0.000 A 
ATOM      6  C   UNL     1       4.233   3.135  16.917  0.00  0.00    +0.000 A 
ATOM      7  N   UNL     1       5.322   3.896  16.813  0.00  0.00    +0.000 NA
ATOM      8  N   UNL     1       5.170   4.874  17.764  0.00  0.00    +0.000 N 
ATOM      9  C   UNL     1       2.082   3.184  18.363  0.00  0.00    +0.000 A 
ATOM     10  O   UNL     1       1.505   2.192  17.921  0.00  0.00    +0.000 OA
ENDROOT
BRANCH   8  11
ATOM     11  C   UNL     1       6.215   5.821  17.966  0.00  0.00    +0.000 A 
ATOM     12  C   UNL     1       6.238   6.984  17.177  0.00  0.00    +0.000 A 
ATOM     13  C   UNL     1       7.247   7.934  17.346  0.00  0.00    +0.000 A 
ATOM     14  C   UNL     1       8.247   7.725  18.291  0.00  0.00    +0.000 A 
ATOM     15  C   UNL     1       8.240   6.568  19.068  0.00  0.00    +0.000 A 
ATOM     16  C   UNL     1       7.227   5.618  18.913  0.00  0.00    +0.000 A 
ENDBRANCH   8  11
BRANCH   1  17
ATOM     17  N   UNL     1       0.328   3.578  19.971  0.00  0.00    +0.000 N 
ATOM     18  H   UNL     1      -0.398   3.651  19.257  0.00  0.00    +0.000 HD
ATOM     19  H   UNL     1       0.438   2.570  20.147  0.00  0.00    +0.000 HD
ENDBRANCH   1  17
BRANCH   2  20
ATOM     20  S   UNL     1       1.413   6.203  21.015  0.00  0.00    +0.000 S 
BRANCH  20  21
ATOM     21  C   UNL     1       1.735   7.891  20.408  0.00  0.00    +0.000 C 
BRANCH  21  22
ATOM     22  C   UNL     1       0.808   8.945  21.000  0.00  0.00    +0.000 A 
ATOM     23  C   UNL     1       0.610   9.024  22.389  0.00  0.00    +0.000 A 
ATOM     24  C   UNL     1      -0.197  10.017  22.954  0.00  0.00    +0.000 A 
ATOM     25  C   UNL     1      -0.828  10.951  22.137  0.00  0.00    +0.000 A 
ATOM     26  C   UNL     1      -0.649  10.891  20.757  0.00  0.00    +0.000 A 
ATOM     27  C   UNL     1       0.162   9.899  20.197  0.00  0.00    +0.000 A 
ENDBRANCH  21  22
ENDBRANCH  20  21
ENDBRANCH   2  20
TORSDOF 5
ENDMDL
MODEL 5
REMARK VINA RESULT:      -7.6      3.096      6.733
REMARK  Name = 
REMARK  5 active torsions:
REMARK  status: ('A' for Active; 'I' for Inactive)
REMARK    1  A    between atoms: N_1  and  N_2
REMARK    2  A    between atoms: C_3  and  S_4
REMARK    3  A    between atoms: S_4  and  C_5
REMARK    4  A    between atoms: C_5  and  C_6
REMARK    5  A    between atoms: N_17  and  C_18
REMARK                            x       y       z     vdW  Elec       q    Type
REMARK                         _______ _______ _______ _____ _____    ______ ____
ROOT
ATOM      1  N   UNL     1       4.445   5.514  18.890  0.00  0.00    +0.000 N 
ATOM      2  C   UNL     1       3.816   5.336  17.630  0.00  0.00    +0.000 A 
ATOM      3  N   UNL     1       4.453   4.981  16.548  0.00  0.00    +0.000 NA
ATOM      4  C   UNL     1       5.792   4.778  16.712  0.00  0.00    +0.000 A 
ATOM      5  C   UNL     1       6.491   4.866  17.893  0.00  0.00    +0.000 A 
ATOM      6  C   UNL     1       7.805   4.511  17.605  0.00  0.00    +0.000 A 
ATOM      7  N   UNL     1       7.965   4.215  16.316  0.00  0.00    +0.000 NA
ATOM      8  N   UNL     1       6.735   4.420  15.744  0.00  0.00    +0.000 N 
ATOM      9  C   UNL     1       5.817   5.252  19.093  0.00  0.00    +0.000 A 
ATOM     10  O   UNL     1       6.382   5.330  20.182  0.00  0.00    +0.000 OA
ENDROOT
BRANCH   8  11
ATOM     11  C   UNL     1       6.582   4.260  14.337  0.00  0.00    +0.000 A 
ATOM     12  C   UNL     1       7.502   4.886  13.478  0.00  0.00    +0.000 A 
ATOM     13  C   UNL     1       7.383   4.753  12.095  0.00  0.00    +0.000 A 
ATOM     14  C   UNL     1       6.337   4.009  11.555  0.00  0.00    +0.000 A 
ATOM     15  C   UNL     1       5.412   3.397  12.398  0.00  0.00    +0.000 A 
ATOM     16  C   UNL     1       5.532   3.516  13.785  0.00  0.00    +0.000 A 
ENDBRANCH   8  11
BRANCH   1  17
ATOM     17  N   UNL     1       3.731   6.010  20.039  0.00  0.00    +0.000 N 
ATOM     18  H   UNL     1       2.750   6.099  19.770  0.00  0.00    +0.000 HD
ATOM     19  H   UNL     1       3.755   5.257  20.740  0.00  0.00    +0.000 HD
ENDBRANCH   1  17
BRANCH   2  20
ATOM     20  S   UNL     1       2.067   5.618  17.542  0.00  0.00    +0.000 S 
BRANCH  20  21
ATOM     21  C   UNL     1       1.388   3.950  17.824  0.00  0.00    +0.000 C 
BRANCH  21  22
ATOM     22  C   UNL     1       1.747   3.361  19.182  0.00  0.00    +0.000 A 
ATOM     23  C   UNL     1       2.900   2.572  19.338  0.00  0.00    +0.000 A 
ATOM     24  C   UNL     1       3.273   2.066  20.587  0.00  0.00    +0.000 A 
ATOM     25  C   UNL     1       2.493   2.334  21.709  0.00  0.00    +0.000 A 
ATOM     26  C   UNL     1       1.344   3.110  21.578  0.00  0.00    +0.000 A 
ATOM     27  C   UNL     1       0.977   3.618  20.328  0.00  0.00    +0.000 A 
ENDBRANCH  21  22
ENDBRANCH  20  21
ENDBRANCH   2  20
TORSDOF 5
ENDMDL
MODEL 6
REMARK VINA RESULT:      -7.6      2.703      3.816
REMARK  Name = 
REMARK  5 active torsions:
REMARK  status: ('A' for Active; 'I' for Inactive)
REMARK    1  A    between atoms: N_1  and  N_2
REMARK    2  A    between atoms: C_3  and  S_4
REMARK    3  A    between atoms: S_4  and  C_5
REMARK    4  A    between atoms: C_5  and  C_6
REMARK    5  A    between atoms: N_17  and  C_18
REMARK                            x       y       z     vdW  Elec       q    Type
REMARK                         _______ _______ _______ _____ _____    ______ ____
ROOT
ATOM      1  N   UNL     1       6.589   4.936  17.065  0.00  0.00    +0.000 N 
ATOM      2  C   UNL     1       6.446   6.109  17.852  0.00  0.00    +0.000 A 
ATOM      3  N   UNL     1       5.299   6.552  18.289  0.00  0.00    +0.000 NA
ATOM      4  C   UNL     1       4.221   5.791  17.940  0.00  0.00    +0.000 A 
ATOM      5  C   UNL     1       4.251   4.612  17.234  0.00  0.00    +0.000 A 
ATOM      6  C   UNL     1       2.938   4.152  17.173  0.00  0.00    +0.000 A 
ATOM      7  N   UNL     1       2.097   4.977  17.794  0.00  0.00    +0.000 NA
ATOM      8  N   UNL     1       2.874   6.019  18.235  0.00  0.00    +0.000 N 
ATOM      9  C   UNL     1       5.494   4.105  16.745  0.00  0.00    +0.000 A 
ATOM     10  O   UNL     1       5.588   3.047  16.123  0.00  0.00    +0.000 OA
ENDROOT
BRANCH   8  11
ATOM     11  C   UNL     1       2.257   7.127  18.885  0.00  0.00    +0.000 A 
ATOM     12  C   UNL     1       1.967   8.279  18.134  0.00  0.00    +0.000 A 
ATOM     13  C   UNL     1       1.365   9.384  18.737  0.00  0.00    +0.000 A 
ATOM     14  C   UNL     1       1.061   9.354  20.095  0.00  0.00    +0.000 A 
ATOM     15  C   UNL     1       1.358   8.222  20.851  0.00  0.00    +0.000 A 
ATOM     16  C   UNL     1       1.950   7.107  20.251  0.00  0.00    +0.000 A 
ENDBRANCH   8  11
BRANCH   1  17
ATOM     17  N   UNL     1       7.857   4.535  16.510  0.00  0.00    +0.000 N 
ATOM     18  H   UNL     1       7.778   3.549  16.257  0.00  0.00    +0.000 HD
ATOM     19  H   UNL     1       7.954   5.041  15.620  0.00  0.00    +0.000 HD
ENDBRANCH   1  17
BRANCH   2  20
ATOM     20  S   UNL     1       7.921   7.009  18.251  0.00  0.00    +0.000 S 
BRANCH  20  21
ATOM     21  C   UNL     1       7.597   8.641  17.506  0.00  0.00    +0.000 C 
BRANCH  21  22
ATOM     22  C   UNL     1       8.386   9.777  18.144  0.00  0.00    +0.000 A 
ATOM     23  C   UNL     1       8.372  11.064  17.578  0.00  0.00    +0.000 A 
ATOM     24  C   UNL     1       9.049  12.130  18.179  0.00  0.00    +0.000 A 
ATOM     25  C   UNL     1       9.761  11.929  19.358  0.00  0.00    +0.000 A 
ATOM     26  C   UNL     1       9.792  10.662  19.935  0.00  0.00    +0.000 A 
ATOM     27  C   UNL     1       9.111   9.599  19.334  0.00  0.00    +0.000 A 
ENDBRANCH  21  22
ENDBRANCH  20  21
ENDBRANCH   2  20
TORSDOF 5
ENDMDL
MODEL 7
REMARK VINA RESULT:      -7.5      2.707      3.609
REMARK  Name = 
REMARK  5 active torsions:
REMARK  status: ('A' for Active; 'I' for Inactive)
REMARK    1  A    between atoms: N_1  and  N_2
REMARK    2  A    between atoms: C_3  and  S_4
REMARK    3  A    between atoms: S_4  and  C_5
REMARK    4  A    between atoms: C_5  and  C_6
REMARK    5  A    between atoms: N_17  and  C_18
REMARK                            x       y       z     vdW  Elec       q    Type
REMARK                         _______ _______ _______ _____ _____    ______ ____
ROOT
ATOM      1  N   UNL     1       6.590   4.958  17.069  0.00  0.00    +0.000 N 
ATOM      2  C   UNL     1       6.451   6.144  17.837  0.00  0.00    +0.000 A 
ATOM      3  N   UNL     1       5.305   6.597  18.267  0.00  0.00    +0.000 NA
ATOM      4  C   UNL     1       4.225   5.835  17.929  0.00  0.00    +0.000 A 
ATOM      5  C   UNL     1       4.250   4.645  17.241  0.00  0.00    +0.000 A 
ATOM      6  C   UNL     1       2.936   4.189  17.187  0.00  0.00    +0.000 A 
ATOM      7  N   UNL     1       2.098   5.027  17.795  0.00  0.00    +0.000 NA
ATOM      8  N   UNL     1       2.878   6.073  18.220  0.00  0.00    +0.000 N 
ATOM      9  C   UNL     1       5.492   4.126  16.761  0.00  0.00    +0.000 A 
ATOM     10  O   UNL     1       5.582   3.059  16.156  0.00  0.00    +0.000 OA
ENDROOT
BRANCH   8  11
ATOM     11  C   UNL     1       2.265   7.192  18.852  0.00  0.00    +0.000 A 
ATOM     12  C   UNL     1       1.936   7.106  20.215  0.00  0.00    +0.000 A 
ATOM     13  C   UNL     1       1.333   8.182  20.868  0.00  0.00    +0.000 A 
ATOM     14  C   UNL     1       1.040   9.346  20.163  0.00  0.00    +0.000 A 
ATOM     15  C   UNL     1       1.349   9.436  18.808  0.00  0.00    +0.000 A 
ATOM     16  C   UNL     1       1.963   8.366  18.151  0.00  0.00    +0.000 A 
ENDBRANCH   8  11
BRANCH   1  17
ATOM     17  N   UNL     1       7.856   4.544  16.521  0.00  0.00    +0.000 N 
ATOM     18  H   UNL     1       7.924   4.940  15.583  0.00  0.00    +0.000 HD
ATOM     19  H   UNL     1       8.580   5.024  17.074  0.00  0.00    +0.000 HD
ENDBRANCH   1  17
BRANCH   2  20
ATOM     20  S   UNL     1       7.929   7.045  18.224  0.00  0.00    +0.000 S 
BRANCH  20  21
ATOM     21  C   UNL     1       7.597   8.677  17.482  0.00  0.00    +0.000 C 
BRANCH  21  22
ATOM     22  C   UNL     1       8.365   9.818  18.137  0.00  0.00    +0.000 A 
ATOM     23  C   UNL     1       9.108   9.599  19.310  0.00  0.00    +0.000 A 
ATOM     24  C   UNL     1       9.860  10.623  19.896  0.00  0.00    +0.000 A 
ATOM     25  C   UNL     1       9.880  11.890  19.322  0.00  0.00    +0.000 A 
ATOM     26  C   UNL     1       9.149  12.131  18.161  0.00  0.00    +0.000 A 
ATOM     27  C   UNL     1       8.401  11.105  17.576  0.00  0.00    +0.000 A 
ENDBRANCH  21  22
ENDBRANCH  20  21
ENDBRANCH   2  20
TORSDOF 5
ENDMDL
MODEL 8
REMARK VINA RESULT:      -7.4      1.999      5.957
REMARK  Name = 
REMARK  5 active torsions:
REMARK  status: ('A' for Active; 'I' for Inactive)
REMARK    1  A    between atoms: N_1  and  N_2
REMARK    2  A    between atoms: C_3  and  S_4
REMARK    3  A    between atoms: S_4  and  C_5
REMARK    4  A    between atoms: C_5  and  C_6
REMARK    5  A    between atoms: N_17  and  C_18
REMARK                            x       y       z     vdW  Elec       q    Type
REMARK                         _______ _______ _______ _____ _____    ______ ____
ROOT
ATOM      1  N   UNL     1       1.550   3.953  19.333  0.00  0.00    +0.000 N 
ATOM      2  C   UNL     1       2.206   5.139  19.755  0.00  0.00    +0.000 A 
ATOM      3  N   UNL     1       3.361   5.531  19.291  0.00  0.00    +0.000 NA
ATOM      4  C   UNL     1       3.907   4.712  18.346  0.00  0.00    +0.000 A 
ATOM      5  C   UNL     1       3.335   3.575  17.825  0.00  0.00    +0.000 A 
ATOM      6  C   UNL     1       4.205   3.104  16.847  0.00  0.00    +0.000 A 
ATOM      7  N   UNL     1       5.284   3.877  16.734  0.00  0.00    +0.000 NA
ATOM      8  N   UNL     1       5.132   4.851  17.688  0.00  0.00    +0.000 N 
ATOM      9  C   UNL     1       2.069   3.125  18.315  0.00  0.00    +0.000 A 
ATOM     10  O   UNL     1       1.499   2.127  17.877  0.00  0.00    +0.000 OA
ENDROOT
BRANCH   8  11
ATOM     11  C   UNL     1       6.168   5.810  17.882  0.00  0.00    +0.000 A 
ATOM     12  C   UNL     1       7.135   5.573  18.873  0.00  0.00    +0.000 A 
ATOM     13  C   UNL     1       8.163   6.491  19.093  0.00  0.00    +0.000 A 
ATOM     14  C   UNL     1       8.226   7.657  18.336  0.00  0.00    +0.000 A 
ATOM     15  C   UNL     1       7.264   7.908  17.360  0.00  0.00    +0.000 A 
ATOM     16  C   UNL     1       6.238   6.987  17.128  0.00  0.00    +0.000 A 
ENDBRANCH   8  11
BRANCH   1  17
ATOM     17  N   UNL     1       0.328   3.495  19.943  0.00  0.00    +0.000 N 
ATOM     18  H   UNL     1      -0.302   3.220  19.188  0.00  0.00    +0.000 HD
ATOM     19  H   UNL     1       0.561   2.623  20.437  0.00  0.00    +0.000 HD
ENDBRANCH   1  17
BRANCH   2  20
ATOM     20  S   UNL     1       1.395   6.130  20.982  0.00  0.00    +0.000 S 
BRANCH  20  21
ATOM     21  C   UNL     1       2.141   7.771  20.715  0.00  0.00    +0.000 C 
BRANCH  21  22
ATOM     22  C   UNL     1       1.236   8.745  19.971  0.00  0.00    +0.000 A 
ATOM     23  C   UNL     1       1.411   8.975  18.595  0.00  0.00    +0.000 A 
ATOM     24  C   UNL     1       0.557   9.826  17.885  0.00  0.00    +0.000 A 
ATOM     25  C   UNL     1      -0.487  10.471  18.540  0.00  0.00    +0.000 A 
ATOM     26  C   UNL     1      -0.678  10.261  19.904  0.00  0.00    +0.000 A 
ATOM     27  C   UNL     1       0.174   9.407  20.610  0.00  0.00    +0.000 A 
ENDBRANCH  21  22
ENDBRANCH  20  21
ENDBRANCH   2  20
TORSDOF 5
ENDMDL
MODEL 9
REMARK VINA RESULT:      -7.3      1.890      2.841
REMARK  Name = 
REMARK  5 active torsions:
REMARK  status: ('A' for Active; 'I' for Inactive)
REMARK    1  A    between atoms: N_1  and  N_2
REMARK    2  A    between atoms: C_3  and  S_4
REMARK    3  A    between atoms: S_4  and  C_5
REMARK    4  A    between atoms: C_5  and  C_6
REMARK    5  A    between atoms: N_17  and  C_18
REMARK                            x       y       z     vdW  Elec       q    Type
REMARK                         _______ _______ _______ _____ _____    ______ ____
ROOT
ATOM      1  N   UNL     1       4.382   3.728  19.046  0.00  0.00    +0.000 N 
ATOM      2  C   UNL     1       4.607   4.953  18.364  0.00  0.00    +0.000 A 
ATOM      3  N   UNL     1       3.911   6.036  18.576  0.00  0.00    +0.000 NA
ATOM      4  C   UNL     1       2.937   5.916  19.523  0.00  0.00    +0.000 A 
ATOM      5  C   UNL     1       2.671   4.800  20.281  0.00  0.00    +0.000 A 
ATOM      6  C   UNL     1       1.650   5.150  21.159  0.00  0.00    +0.000 A 
ATOM      7  N   UNL     1       1.263   6.413  20.988  0.00  0.00    +0.000 NA
ATOM      8  N   UNL     1       2.022   6.884  19.947  0.00  0.00    +0.000 N 
ATOM      9  C   UNL     1       3.419   3.600  20.070  0.00  0.00    +0.000 A 
ATOM     10  O   UNL     1       3.241   2.576  20.728  0.00  0.00    +0.000 OA
ENDROOT
BRANCH   8  11
ATOM     11  C   UNL     1       1.797   8.203  19.457  0.00  0.00    +0.000 A 
ATOM     12  C   UNL     1       1.115   9.122  20.272  0.00  0.00    +0.000 A 
ATOM     13  C   UNL     1       0.875  10.422  19.826  0.00  0.00    +0.000 A 
ATOM     14  C   UNL     1       1.300  10.811  18.558  0.00  0.00    +0.000 A 
ATOM     15  C   UNL     1       1.964   9.902  17.737  0.00  0.00    +0.000 A 
ATOM     16  C   UNL     1       2.218   8.602  18.183  0.00  0.00    +0.000 A 
ENDBRANCH   8  11
BRANCH   1  17
ATOM     17  N   UNL     1       5.097   2.523  18.712  0.00  0.00    +0.000 N 
ATOM     18  H   UNL     1       4.919   1.849  19.458  0.00  0.00    +0.000 HD
ATOM     19  H   UNL     1       4.636   2.136  17.877  0.00  0.00    +0.000 HD
ENDBRANCH   1  17
BRANCH   2  20
ATOM     20  S   UNL     1       5.910   4.991  17.162  0.00  0.00    +0.000 S 
BRANCH  20  21
ATOM     21  C   UNL     1       5.185   4.064  15.770  0.00  0.00    +0.000 C 
BRANCH  21  22
ATOM     22  C   UNL     1       5.942   4.231  14.459  0.00  0.00    +0.000 A 
ATOM     23  C   UNL     1       7.060   5.079  14.381  0.00  0.00    +0.000 A 
ATOM     24  C   UNL     1       7.798   5.205  13.200  0.00  0.00    +0.000 A 
ATOM     25  C   UNL     1       7.427   4.488  12.066  0.00  0.00    +0.000 A 
ATOM     26  C   UNL     1       6.320   3.643  12.118  0.00  0.00    +0.000 A 
ATOM     27  C   UNL     1       5.587   3.517  13.302  0.00  0.00    +0.000 A 
ENDBRANCH  21  22
ENDBRANCH  20  21
ENDBRANCH   2  20
TORSDOF 5
ENDMDL
