MODEL 1
REMARK VINA RESULT:      -6.7      0.000      0.000
REMARK  Name = 
REMARK  5 active torsions:
REMARK  status: ('A' for Active; 'I' for Inactive)
REMARK    1  A    between atoms: C_1  and  C_2
REMARK    2  A    between atoms: C_2  and  C_3
REMARK    3  A    between atoms: C_2  and  C_4
REMARK    4  A    between atoms: N_6  and  C_7
REMARK    5  A    between atoms: C_7  and  C_8
REMARK                            x       y       z     vdW  Elec       q    Type
REMARK                         _______ _______ _______ _____ _____    ______ ____
ROOT
ATOM      1  C   UNL     1       3.741   6.055  17.834  0.00  0.00    +0.000 C 
ENDROOT
BRANCH   1   2
ATOM      2  C   UNL     1       3.334   4.661  18.225  0.00  0.00    +0.000 A 
ATOM      3  C   UNL     1       2.726   4.406  19.465  0.00  0.00    +0.000 A 
ATOM      4  C   UNL     1       2.324   3.108  19.799  0.00  0.00    +0.000 A 
ATOM      5 BR   UNL     1       1.484   2.784  21.460  0.00  0.00    +0.000 Br
ATOM      6  C   UNL     1       2.529   2.051  18.913  0.00  0.00    +0.000 A 
ATOM      7  C   UNL     1       3.145   2.294  17.685  0.00  0.00    +0.000 A 
ATOM      8  C   UNL     1       3.544   3.587  17.355  0.00  0.00    +0.000 A 
ATOM      9  F   UNL     1       4.130   3.797  16.168  0.00  0.00    +0.000 F 
ENDBRANCH   1   2
BRANCH   1  12
ATOM     10  C   UNL     1       6.001   6.644  17.040  0.00  0.00    +0.000 C 
ATOM     11  O   UNL     1       5.628   6.735  15.876  0.00  0.00    +0.000 OA
ATOM     12  N   UNL     1       5.148   6.314  18.067  0.00  0.00    +0.000 N 
ATOM     13  H   UNL     1       5.512   6.159  18.996  0.00  0.00    +0.000 HD
BRANCH  10  15
ATOM     14  C   UNL     1       7.758   8.342  17.628  0.00  0.00    +0.000 C 
ATOM     15  C   UNL     1       7.457   6.850  17.465  0.00  0.00    +0.000 C 
ATOM     16  C   UNL     1       7.768   6.109  18.762  0.00  0.00    +0.000 C 
ENDBRANCH  10  15
ENDBRANCH   1  12
TORSDOF 3
ENDMDL
MODEL 2
REMARK VINA RESULT:      -6.6      3.552      5.657
REMARK  Name = 
REMARK  5 active torsions:
REMARK  status: ('A' for Active; 'I' for Inactive)
REMARK    1  A    between atoms: C_1  and  C_2
REMARK    2  A    between atoms: C_2  and  C_3
REMARK    3  A    between atoms: C_2  and  C_4
REMARK    4  A    between atoms: N_6  and  C_7
REMARK    5  A    between atoms: C_7  and  C_8
REMARK                            x       y       z     vdW  Elec       q    Type
REMARK                         _______ _______ _______ _____ _____    ______ ____
ROOT
ATOM      1  C   UNL     1       3.189   5.748  17.996  0.00  0.00    +0.000 C 
ENDROOT
BRANCH   1   2
ATOM      2  C   UNL     1       4.549   5.292  17.544  0.00  0.00    +0.000 A 
ATOM      3  C   UNL     1       4.785   4.940  16.205  0.00  0.00    +0.000 A 
ATOM      4  C   UNL     1       6.064   4.549  15.794  0.00  0.00    +0.000 A 
ATOM      5 BR   UNL     1       6.374   4.103  13.985  0.00  0.00    +0.000 Br
ATOM      6  C   UNL     1       7.118   4.495  16.708  0.00  0.00    +0.000 A 
ATOM      7  C   UNL     1       6.888   4.831  18.041  0.00  0.00    +0.000 A 
ATOM      8  C   UNL     1       5.613   5.219  18.447  0.00  0.00    +0.000 A 
ATOM      9  F   UNL     1       5.417   5.541  19.734  0.00  0.00    +0.000 F 
ENDBRANCH   1   2
BRANCH   1  12
ATOM     10  C   UNL     1       1.834   4.811  19.833  0.00  0.00    +0.000 C 
ATOM     11  O   UNL     1       1.948   5.827  20.508  0.00  0.00    +0.000 OA
ATOM     12  N   UNL     1       2.409   4.681  18.590  0.00  0.00    +0.000 N 
ATOM     13  H   UNL     1       2.370   3.795  18.105  0.00  0.00    +0.000 HD
BRANCH  10  15
ATOM     14  C   UNL     1       0.914   2.567  19.172  0.00  0.00    +0.000 C 
ATOM     15  C   UNL     1       1.075   3.572  20.315  0.00  0.00    +0.000 C 
ATOM     16  C   UNL     1       1.782   2.911  21.495  0.00  0.00    +0.000 C 
ENDBRANCH  10  15
ENDBRANCH   1  12
TORSDOF 3
ENDMDL
MODEL 3
REMARK VINA RESULT:      -6.4      3.346      5.575
REMARK  Name = 
REMARK  5 active torsions:
REMARK  status: ('A' for Active; 'I' for Inactive)
REMARK    1  A    between atoms: C_1  and  C_2
REMARK    2  A    between atoms: C_2  and  C_3
REMARK    3  A    between atoms: C_2  and  C_4
REMARK    4  A    between atoms: N_6  and  C_7
REMARK    5  A    between atoms: C_7  and  C_8
REMARK                            x       y       z     vdW  Elec       q    Type
REMARK                         _______ _______ _______ _____ _____    ______ ____
ROOT
ATOM      1  C   UNL     1       3.782   5.887  18.567  0.00  0.00    +0.000 C 
ENDROOT
BRANCH   1   2
ATOM      2  C   UNL     1       5.002   5.375  17.853  0.00  0.00    +0.000 A 
ATOM      3  C   UNL     1       4.938   4.975  16.508  0.00  0.00    +0.000 A 
ATOM      4  C   UNL     1       6.090   4.531  15.850  0.00  0.00    +0.000 A 
ATOM      5 BR   UNL     1       5.995   4.020  14.033  0.00  0.00    +0.000 Br
ATOM      6  C   UNL     1       7.312   4.471  16.520  0.00  0.00    +0.000 A 
ATOM      7  C   UNL     1       7.381   4.854  17.858  0.00  0.00    +0.000 A 
ATOM      8  C   UNL     1       6.232   5.296  18.512  0.00  0.00    +0.000 A 
ATOM      9  F   UNL     1       6.324   5.663  19.798  0.00  0.00    +0.000 F 
ENDBRANCH   1   2
BRANCH   1  12
ATOM     10  C   UNL     1       1.868   4.332  18.614  0.00  0.00    +0.000 C 
ATOM     11  O   UNL     1       1.431   4.750  17.548  0.00  0.00    +0.000 OA
ATOM     12  N   UNL     1       3.012   4.830  19.192  0.00  0.00    +0.000 N 
ATOM     13  H   UNL     1       3.287   4.525  20.115  0.00  0.00    +0.000 HD
BRANCH  10  15
ATOM     14  C   UNL     1       1.742   1.867  19.088  0.00  0.00    +0.000 C 
ATOM     15  C   UNL     1       1.166   3.243  19.430  0.00  0.00    +0.000 C 
ATOM     16  C   UNL     1       1.292   3.504  20.929  0.00  0.00    +0.000 C 
ENDBRANCH  10  15
ENDBRANCH   1  12
TORSDOF 3
ENDMDL
MODEL 4
REMARK VINA RESULT:      -6.3      3.192      4.122
REMARK  Name = 
REMARK  5 active torsions:
REMARK  status: ('A' for Active; 'I' for Inactive)
REMARK    1  A    between atoms: C_1  and  C_2
REMARK    2  A    between atoms: C_2  and  C_3
REMARK    3  A    between atoms: C_2  and  C_4
REMARK    4  A    between atoms: N_6  and  C_7
REMARK    5  A    between atoms: C_7  and  C_8
REMARK                            x       y       z     vdW  Elec       q    Type
REMARK                         _______ _______ _______ _____ _____    ______ ____
ROOT
ATOM      1  C   UNL     1       6.125   4.336  16.707  0.00  0.00    +0.000 C 
ENDROOT
BRANCH   1   2
ATOM      2  C   UNL     1       4.787   4.777  17.231  0.00  0.00    +0.000 A 
ATOM      3  C   UNL     1       3.798   3.840  17.570  0.00  0.00    +0.000 A 
ATOM      4  C   UNL     1       2.570   4.266  18.086  0.00  0.00    +0.000 A 
ATOM      5 BR   UNL     1       1.258   2.992  18.562  0.00  0.00    +0.000 Br
ATOM      6  C   UNL     1       2.307   5.625  18.264  0.00  0.00    +0.000 A 
ATOM      7  C   UNL     1       3.279   6.563  17.917  0.00  0.00    +0.000 A 
ATOM      8  C   UNL     1       4.501   6.135  17.402  0.00  0.00    +0.000 A 
ATOM      9  F   UNL     1       5.421   7.055  17.080  0.00  0.00    +0.000 F 
ENDBRANCH   1   2
BRANCH   1  12
ATOM     10  C   UNL     1       6.704   4.370  14.309  0.00  0.00    +0.000 C 
ATOM     11  O   UNL     1       7.382   5.384  14.431  0.00  0.00    +0.000 OA
ATOM     12  N   UNL     1       6.050   3.786  15.368  0.00  0.00    +0.000 N 
ATOM     13  H   UNL     1       5.427   3.006  15.210  0.00  0.00    +0.000 HD
BRANCH  10  15
ATOM     14  C   UNL     1       4.995   3.645  12.615  0.00  0.00    +0.000 C 
ATOM     15  C   UNL     1       6.485   3.673  12.964  0.00  0.00    +0.000 C 
ATOM     16  C   UNL     1       7.269   4.358  11.848  0.00  0.00    +0.000 C 
ENDBRANCH  10  15
ENDBRANCH   1  12
TORSDOF 3
ENDMDL
MODEL 5
REMARK VINA RESULT:      -6.3      3.656      4.655
REMARK  Name = 
REMARK  5 active torsions:
REMARK  status: ('A' for Active; 'I' for Inactive)
REMARK    1  A    between atoms: C_1  and  C_2
REMARK    2  A    between atoms: C_2  and  C_3
REMARK    3  A    between atoms: C_2  and  C_4
REMARK    4  A    between atoms: N_6  and  C_7
REMARK    5  A    between atoms: C_7  and  C_8
REMARK                            x       y       z     vdW  Elec       q    Type
REMARK                         _______ _______ _______ _____ _____    ______ ____
ROOT
ATOM      1  C   UNL     1       6.409   3.931  15.874  0.00  0.00    +0.000 C 
ENDROOT
BRANCH   1   2
ATOM      2  C   UNL     1       5.222   4.550  16.558  0.00  0.00    +0.000 A 
ATOM      3  C   UNL     1       4.141   3.762  16.985  0.00  0.00    +0.000 A 
ATOM      4  C   UNL     1       3.059   4.350  17.648  0.00  0.00    +0.000 A 
ATOM      5 BR   UNL     1       1.623   3.274  18.240  0.00  0.00    +0.000 Br
ATOM      6  C   UNL     1       3.034   5.724  17.887  0.00  0.00    +0.000 A 
ATOM      7  C   UNL     1       4.098   6.515  17.455  0.00  0.00    +0.000 A 
ATOM      8  C   UNL     1       5.174   5.927  16.794  0.00  0.00    +0.000 A 
ATOM      9  F   UNL     1       6.187   6.707  16.391  0.00  0.00    +0.000 F 
ENDBRANCH   1   2
BRANCH   1  12
ATOM     10  C   UNL     1       6.677   4.257  13.443  0.00  0.00    +0.000 C 
ATOM     11  O   UNL     1       7.415   5.224  13.599  0.00  0.00    +0.000 OA
ATOM     12  N   UNL     1       6.136   3.562  14.499  0.00  0.00    +0.000 N 
ATOM     13  H   UNL     1       5.459   2.831  14.329  0.00  0.00    +0.000 HD
BRANCH  10  15
ATOM     14  C   UNL     1       7.117   2.558  11.645  0.00  0.00    +0.000 C 
ATOM     15  C   UNL     1       6.253   3.750  12.063  0.00  0.00    +0.000 C 
ATOM     16  C   UNL     1       4.778   3.356  12.045  0.00  0.00    +0.000 C 
ENDBRANCH  10  15
ENDBRANCH   1  12
TORSDOF 3
ENDMDL
MODEL 6
REMARK VINA RESULT:      -6.3      1.549      2.237
REMARK  Name = 
REMARK  5 active torsions:
REMARK  status: ('A' for Active; 'I' for Inactive)
REMARK    1  A    between atoms: C_1  and  C_2
REMARK    2  A    between atoms: C_2  and  C_3
REMARK    3  A    between atoms: C_2  and  C_4
REMARK    4  A    between atoms: N_6  and  C_7
REMARK    5  A    between atoms: C_7  and  C_8
REMARK                            x       y       z     vdW  Elec       q    Type
REMARK                         _______ _______ _______ _____ _____    ______ ____
ROOT
ATOM      1  C   UNL     1       4.327   4.967  17.429  0.00  0.00    +0.000 C 
ENDROOT
BRANCH   1   2
ATOM      2  C   UNL     1       3.361   5.124  18.570  0.00  0.00    +0.000 A 
ATOM      3  C   UNL     1       2.955   4.017  19.333  0.00  0.00    +0.000 A 
ATOM      4  C   UNL     1       2.080   4.186  20.411  0.00  0.00    +0.000 A 
ATOM      5 BR   UNL     1       1.563   2.691  21.444  0.00  0.00    +0.000 Br
ATOM      6  C   UNL     1       1.593   5.452  20.739  0.00  0.00    +0.000 A 
ATOM      7  C   UNL     1       1.980   6.554  19.979  0.00  0.00    +0.000 A 
ATOM      8  C   UNL     1       2.851   6.383  18.905  0.00  0.00    +0.000 A 
ATOM      9  F   UNL     1       3.213   7.458  18.191  0.00  0.00    +0.000 F 
ENDBRANCH   1   2
BRANCH   1  12
ATOM     10  C   UNL     1       6.229   6.505  17.108  0.00  0.00    +0.000 C 
ATOM     11  O   UNL     1       5.649   7.125  16.223  0.00  0.00    +0.000 OA
ATOM     12  N   UNL     1       5.660   5.433  17.754  0.00  0.00    +0.000 N 
ATOM     13  H   UNL     1       6.205   4.892  18.411  0.00  0.00    +0.000 HD
BRANCH  10  15
ATOM     14  C   UNL     1       7.850   8.350  17.636  0.00  0.00    +0.000 C 
ATOM     15  C   UNL     1       7.654   6.835  17.556  0.00  0.00    +0.000 C 
ATOM     16  C   UNL     1       7.975   6.195  18.905  0.00  0.00    +0.000 C 
ENDBRANCH  10  15
ENDBRANCH   1  12
TORSDOF 3
ENDMDL
MODEL 7
REMARK VINA RESULT:      -6.2      4.143      5.424
REMARK  Name = 
REMARK  5 active torsions:
REMARK  status: ('A' for Active; 'I' for Inactive)
REMARK    1  A    between atoms: C_1  and  C_2
REMARK    2  A    between atoms: C_2  and  C_3
REMARK    3  A    between atoms: C_2  and  C_4
REMARK    4  A    between atoms: N_6  and  C_7
REMARK    5  A    between atoms: C_7  and  C_8
REMARK                            x       y       z     vdW  Elec       q    Type
REMARK                         _______ _______ _______ _____ _____    ______ ____
ROOT
ATOM      1  C   UNL     1       6.887   4.376  14.741  0.00  0.00    +0.000 C 
ENDROOT
BRANCH   1   2
ATOM      2  C   UNL     1       5.994   4.760  15.889  0.00  0.00    +0.000 A 
ATOM      3  C   UNL     1       4.784   4.086  16.121  0.00  0.00    +0.000 A 
ATOM      4  C   UNL     1       3.981   4.435  17.211  0.00  0.00    +0.000 A 
ATOM      5 BR   UNL     1       2.368   3.502  17.526  0.00  0.00    +0.000 Br
ATOM      6  C   UNL     1       4.364   5.460  18.076  0.00  0.00    +0.000 A 
ATOM      7  C   UNL     1       5.557   6.143  17.845  0.00  0.00    +0.000 A 
ATOM      8  C   UNL     1       6.355   5.794  16.758  0.00  0.00    +0.000 A 
ATOM      9  F   UNL     1       7.500   6.462  16.559  0.00  0.00    +0.000 F 
ENDBRANCH   1   2
BRANCH   1  12
ATOM     10  C   UNL     1       6.547   3.789  12.370  0.00  0.00    +0.000 C 
ATOM     11  O   UNL     1       7.485   4.489  12.005  0.00  0.00    +0.000 OA
ATOM     12  N   UNL     1       6.179   3.674  13.690  0.00  0.00    +0.000 N 
ATOM     13  H   UNL     1       5.345   3.162  13.940  0.00  0.00    +0.000 HD
BRANCH  10  15
ATOM     14  C   UNL     1       5.979   1.509  11.480  0.00  0.00    +0.000 C 
ATOM     15  C   UNL     1       5.667   3.004  11.394  0.00  0.00    +0.000 C 
ATOM     16  C   UNL     1       4.184   3.244  11.666  0.00  0.00    +0.000 C 
ENDBRANCH  10  15
ENDBRANCH   1  12
TORSDOF 3
ENDMDL
MODEL 8
REMARK VINA RESULT:      -6.2      3.254      5.525
REMARK  Name = 
REMARK  5 active torsions:
REMARK  status: ('A' for Active; 'I' for Inactive)
REMARK    1  A    between atoms: C_1  and  C_2
REMARK    2  A    between atoms: C_2  and  C_3
REMARK    3  A    between atoms: C_2  and  C_4
REMARK    4  A    between atoms: N_6  and  C_7
REMARK    5  A    between atoms: C_7  and  C_8
REMARK                            x       y       z     vdW  Elec       q    Type
REMARK                         _______ _______ _______ _____ _____    ______ ____
ROOT
ATOM      1  C   UNL     1       2.549   5.829  18.030  0.00  0.00    +0.000 C 
ENDROOT
BRANCH   1   2
ATOM      2  C   UNL     1       3.942   5.589  17.518  0.00  0.00    +0.000 A 
ATOM      3  C   UNL     1       4.959   6.538  17.715  0.00  0.00    +0.000 A 
ATOM      4  C   UNL     1       6.257   6.284  17.261  0.00  0.00    +0.000 A 
ATOM      5 BR   UNL     1       7.621   7.558  17.555  0.00  0.00    +0.000 Br
ATOM      6  C   UNL     1       6.559   5.092  16.600  0.00  0.00    +0.000 A 
ATOM      7  C   UNL     1       5.552   4.151  16.389  0.00  0.00    +0.000 A 
ATOM      8  C   UNL     1       4.259   4.407  16.842  0.00  0.00    +0.000 A 
ATOM      9  F   UNL     1       3.309   3.485  16.632  0.00  0.00    +0.000 F 
ENDBRANCH   1   2
BRANCH   1  12
ATOM     10  C   UNL     1       1.576   4.564  19.910  0.00  0.00    +0.000 C 
ATOM     11  O   UNL     1       1.742   5.493  20.693  0.00  0.00    +0.000 OA
ATOM     12  N   UNL     1       1.942   4.637  18.587  0.00  0.00    +0.000 N 
ATOM     13  H   UNL     1       1.875   3.819  17.998  0.00  0.00    +0.000 HD
BRANCH  10  15
ATOM     14  C   UNL     1       1.110   2.200  19.196  0.00  0.00    +0.000 C 
ATOM     15  C   UNL     1       0.982   3.218  20.332  0.00  0.00    +0.000 C 
ATOM     16  C   UNL     1       1.658   2.681  21.591  0.00  0.00    +0.000 C 
ENDBRANCH  10  15
ENDBRANCH   1  12
TORSDOF 3
ENDMDL
MODEL 9
REMARK VINA RESULT:      -6.2      2.275      2.775
REMARK  Name = 
REMARK  5 active torsions:
REMARK  status: ('A' for Active; 'I' for Inactive)
REMARK    1  A    between atoms: C_1  and  C_2
REMARK    2  A    between atoms: C_2  and  C_3
REMARK    3  A    between atoms: C_2  and  C_4
REMARK    4  A    between atoms: N_6  and  C_7
REMARK    5  A    between atoms: C_7  and  C_8
REMARK                            x       y       z     vdW  Elec       q    Type
REMARK                         _______ _______ _______ _____ _____    ______ ____
ROOT
ATOM      1  C   UNL     1       4.703   3.144  18.964  0.00  0.00    +0.000 C 
ENDROOT
BRANCH   1   2
ATOM      2  C   UNL     1       3.407   3.698  19.488  0.00  0.00    +0.000 A 
ATOM      3  C   UNL     1       3.266   5.067  19.770  0.00  0.00    +0.000 A 
ATOM      4  C   UNL     1       2.044   5.570  20.226  0.00  0.00    +0.000 A 
ATOM      5 BR   UNL     1       1.861   7.418  20.578  0.00  0.00    +0.000 Br
ATOM      6  C   UNL     1       0.952   4.722  20.415  0.00  0.00    +0.000 A 
ATOM      7  C   UNL     1       1.088   3.360  20.150  0.00  0.00    +0.000 A 
ATOM      8  C   UNL     1       2.307   2.861  19.696  0.00  0.00    +0.000 A 
ATOM      9  F   UNL     1       2.412   1.548  19.444  0.00  0.00    +0.000 F 
ENDBRANCH   1   2
BRANCH   1  12
ATOM     10  C   UNL     1       6.330   4.579  17.788  0.00  0.00    +0.000 C 
ATOM     11  O   UNL     1       5.964   4.183  16.686  0.00  0.00    +0.000 OA
ATOM     12  N   UNL     1       5.771   4.124  18.959  0.00  0.00    +0.000 N 
ATOM     13  H   UNL     1       6.162   4.404  19.848  0.00  0.00    +0.000 HD
BRANCH  10  15
ATOM     14  C   UNL     1       7.073   6.947  17.396  0.00  0.00    +0.000 C 
ATOM     15  C   UNL     1       7.467   5.585  17.974  0.00  0.00    +0.000 C 
ATOM     16  C   UNL     1       7.844   5.732  19.446  0.00  0.00    +0.000 C 
ENDBRANCH  10  15
ENDBRANCH   1  12
TORSDOF 3
ENDMDL
