MODEL 1
REMARK VINA RESULT:      -7.4      0.000      0.000
REMARK  Name = 
REMARK  1 active torsions:
REMARK  status: ('A' for Active; 'I' for Inactive)
REMARK    1  A    between atoms: C_2  and  C_3
REMARK                            x       y       z     vdW  Elec       q    Type
REMARK                         _______ _______ _______ _____ _____    ______ ____
ROOT
ATOM      1  O   UNL     1       4.217   2.735  17.526  0.00  0.00    +0.000 OA
ATOM      2  C   UNL     1       4.470   3.604  18.347  0.00  0.00    +0.000 C 
ATOM      3  N   UNL     1       5.346   4.681  18.127  0.00  0.00    +0.000 N 
ATOM      4  C   UNL     1       5.691   5.631  19.214  0.00  0.00    +0.000 C 
ATOM      5  C   UNL     1       7.139   5.434  19.677  0.00  0.00    +0.000 C 
ATOM      6  O   UNL     1       8.060   5.488  18.580  0.00  0.00    +0.000 OA
ATOM      7  C   UNL     1       7.736   4.504  17.583  0.00  0.00    +0.000 C 
ATOM      8  C   UNL     1       6.331   4.758  16.977  0.00  0.00    +0.000 C 
ATOM      9  C   UNL     1       6.250   6.169  16.326  0.00  0.00    +0.000 C 
ATOM     10  C   UNL     1       5.131   5.997  15.309  0.00  0.00    +0.000 C 
ATOM     11  C   UNL     1       5.564   4.726  14.610  0.00  0.00    +0.000 C 
ATOM     12  C   UNL     1       6.138   3.843  15.727  0.00  0.00    +0.000 C 
ENDROOT
BRANCH   2  13
ATOM     13  C   UNL     1       3.805   3.524  19.691  0.00  0.00    +0.000 C 
ATOM     14  C   UNL     1       2.409   4.085  19.884  0.00  0.00    +0.000 C 
ATOM     15  C   UNL     1       1.389   4.209  18.780  0.00  0.00    +0.000 C 
ATOM     16  C   UNL     1       0.726   2.829  18.706  0.00  0.00    +0.000 C 
ATOM     17  C   UNL     1       1.783   1.835  19.185  0.00  0.00    +0.000 C 
ATOM     18  C   UNL     1       2.660   2.625  20.104  0.00  0.00    +0.000 C 
ENDBRANCH   2  13
TORSDOF 1
ENDMDL
MODEL 2
REMARK VINA RESULT:      -6.9      1.725      5.445
REMARK  Name = 
REMARK  1 active torsions:
REMARK  status: ('A' for Active; 'I' for Inactive)
REMARK    1  A    between atoms: C_2  and  C_3
REMARK                            x       y       z     vdW  Elec       q    Type
REMARK                         _______ _______ _______ _____ _____    ______ ____
ROOT
ATOM      1  O   UNL     1       5.539   3.560  19.435  0.00  0.00    +0.000 OA
ATOM      2  C   UNL     1       5.092   4.688  19.288  0.00  0.00    +0.000 C 
ATOM      3  N   UNL     1       3.731   5.027  19.380  0.00  0.00    +0.000 N 
ATOM      4  C   UNL     1       3.254   6.398  19.075  0.00  0.00    +0.000 C 
ATOM      5  C   UNL     1       2.470   6.427  17.758  0.00  0.00    +0.000 C 
ATOM      6  O   UNL     1       1.415   5.458  17.745  0.00  0.00    +0.000 OA
ATOM      7  C   UNL     1       1.926   4.133  17.971  0.00  0.00    +0.000 C 
ATOM      8  C   UNL     1       2.598   4.019  19.364  0.00  0.00    +0.000 C 
ATOM      9  C   UNL     1       1.591   4.361  20.500  0.00  0.00    +0.000 C 
ATOM     10  C   UNL     1       2.180   3.627  21.695  0.00  0.00    +0.000 C 
ATOM     11  C   UNL     1       2.412   2.250  21.106  0.00  0.00    +0.000 C 
ATOM     12  C   UNL     1       2.891   2.516  19.672  0.00  0.00    +0.000 C 
ENDROOT
BRANCH   2  13
ATOM     13  C   UNL     1       6.056   5.798  18.986  0.00  0.00    +0.000 C 
ATOM     14  C   UNL     1       7.317   5.516  18.191  0.00  0.00    +0.000 C 
ATOM     15  C   UNL     1       7.453   4.393  17.194  0.00  0.00    +0.000 C 
ATOM     16  C   UNL     1       6.867   4.953  15.894  0.00  0.00    +0.000 C 
ATOM     17  C   UNL     1       5.829   5.989  16.320  0.00  0.00    +0.000 C 
ATOM     18  C   UNL     1       6.299   6.474  17.654  0.00  0.00    +0.000 C 
ENDBRANCH   2  13
TORSDOF 1
ENDMDL
MODEL 3
REMARK VINA RESULT:      -6.9      1.600      5.497
REMARK  Name = 
REMARK  1 active torsions:
REMARK  status: ('A' for Active; 'I' for Inactive)
REMARK    1  A    between atoms: C_2  and  C_3
REMARK                            x       y       z     vdW  Elec       q    Type
REMARK                         _______ _______ _______ _____ _____    ______ ____
ROOT
ATOM      1  O   UNL     1       5.394   5.361  19.899  0.00  0.00    +0.000 OA
ATOM      2  C   UNL     1       5.235   4.640  18.926  0.00  0.00    +0.000 C 
ATOM      3  N   UNL     1       4.013   4.051  18.559  0.00  0.00    +0.000 N 
ATOM      4  C   UNL     1       3.924   3.094  17.428  0.00  0.00    +0.000 C 
ATOM      5  C   UNL     1       3.678   1.668  17.933  0.00  0.00    +0.000 C 
ATOM      6  O   UNL     1       2.544   1.601  18.806  0.00  0.00    +0.000 OA
ATOM      7  C   UNL     1       2.700   2.488  19.927  0.00  0.00    +0.000 C 
ATOM      8  C   UNL     1       2.801   3.965  19.466  0.00  0.00    +0.000 C 
ATOM      9  C   UNL     1       1.533   4.390  18.671  0.00  0.00    +0.000 C 
ATOM     10  C   UNL     1       1.520   5.900  18.856  0.00  0.00    +0.000 C 
ATOM     11  C   UNL     1       1.700   6.012  20.356  0.00  0.00    +0.000 C 
ATOM     12  C   UNL     1       2.696   4.900  20.712  0.00  0.00    +0.000 C 
ENDROOT
BRANCH   2  13
ATOM     13  C   UNL     1       6.423   4.354  18.053  0.00  0.00    +0.000 C 
ATOM     14  C   UNL     1       6.761   5.280  16.900  0.00  0.00    +0.000 C 
ATOM     15  C   UNL     1       6.395   6.742  16.858  0.00  0.00    +0.000 C 
ATOM     16  C   UNL     1       7.514   7.447  17.633  0.00  0.00    +0.000 C 
ATOM     17  C   UNL     1       8.027   6.422  18.643  0.00  0.00    +0.000 C 
ATOM     18  C   UNL     1       7.742   5.094  18.016  0.00  0.00    +0.000 C 
ENDBRANCH   2  13
TORSDOF 1
ENDMDL
MODEL 4
REMARK VINA RESULT:      -6.9      1.815      5.335
REMARK  Name = 
REMARK  1 active torsions:
REMARK  status: ('A' for Active; 'I' for Inactive)
REMARK    1  A    between atoms: C_2  and  C_3
REMARK                            x       y       z     vdW  Elec       q    Type
REMARK                         _______ _______ _______ _____ _____    ______ ____
ROOT
ATOM      1  O   UNL     1       3.852   3.814  16.514  0.00  0.00    +0.000 OA
ATOM      2  C   UNL     1       3.937   4.687  17.365  0.00  0.00    +0.000 C 
ATOM      3  N   UNL     1       3.573   4.527  18.713  0.00  0.00    +0.000 N 
ATOM      4  C   UNL     1       3.597   5.668  19.661  0.00  0.00    +0.000 C 
ATOM      5  C   UNL     1       2.175   6.099  20.037  0.00  0.00    +0.000 C 
ATOM      6  O   UNL     1       1.394   4.998  20.515  0.00  0.00    +0.000 OA
ATOM      7  C   UNL     1       1.334   3.943  19.540  0.00  0.00    +0.000 C 
ATOM      8  C   UNL     1       2.745   3.372  19.241  0.00  0.00    +0.000 C 
ATOM      9  C   UNL     1       3.407   2.814  20.534  0.00  0.00    +0.000 C 
ATOM     10  C   UNL     1       4.401   1.802  19.984  0.00  0.00    +0.000 C 
ATOM     11  C   UNL     1       3.522   1.017  19.032  0.00  0.00    +0.000 C 
ATOM     12  C   UNL     1       2.603   2.067  18.395  0.00  0.00    +0.000 C 
ENDROOT
BRANCH   2  13
ATOM     13  C   UNL     1       4.465   6.031  16.952  0.00  0.00    +0.000 C 
ATOM     14  C   UNL     1       5.953   6.316  17.013  0.00  0.00    +0.000 C 
ATOM     15  C   UNL     1       7.020   5.257  16.903  0.00  0.00    +0.000 C 
ATOM     16  C   UNL     1       7.214   5.054  15.397  0.00  0.00    +0.000 C 
ATOM     17  C   UNL     1       5.871   5.399  14.756  0.00  0.00    +0.000 C 
ATOM     18  C   UNL     1       5.239   6.375  15.698  0.00  0.00    +0.000 C 
ENDBRANCH   2  13
TORSDOF 1
ENDMDL
MODEL 5
REMARK VINA RESULT:      -6.8      1.842      3.304
REMARK  Name = 
REMARK  1 active torsions:
REMARK  status: ('A' for Active; 'I' for Inactive)
REMARK    1  A    between atoms: C_2  and  C_3
REMARK                            x       y       z     vdW  Elec       q    Type
REMARK                         _______ _______ _______ _____ _____    ______ ____
ROOT
ATOM      1  O   UNL     1       4.161   6.713  18.059  0.00  0.00    +0.000 OA
ATOM      2  C   UNL     1       4.159   5.552  17.680  0.00  0.00    +0.000 C 
ATOM      3  N   UNL     1       5.300   4.848  17.255  0.00  0.00    +0.000 N 
ATOM      4  C   UNL     1       5.198   3.475  16.699  0.00  0.00    +0.000 C 
ATOM      5  C   UNL     1       5.473   3.472  15.191  0.00  0.00    +0.000 C 
ATOM      6  O   UNL     1       6.717   4.107  14.876  0.00  0.00    +0.000 OA
ATOM      7  C   UNL     1       6.749   5.458  15.367  0.00  0.00    +0.000 C 
ATOM      8  C   UNL     1       6.625   5.498  16.912  0.00  0.00    +0.000 C 
ATOM      9  C   UNL     1       7.779   4.700  17.585  0.00  0.00    +0.000 C 
ATOM     10  C   UNL     1       7.862   5.341  18.963  0.00  0.00    +0.000 C 
ATOM     11  C   UNL     1       7.900   6.811  18.600  0.00  0.00    +0.000 C 
ATOM     12  C   UNL     1       6.934   6.944  17.415  0.00  0.00    +0.000 C 
ENDROOT
BRANCH   2  13
ATOM     13  C   UNL     1       2.851   4.815  17.659  0.00  0.00    +0.000 C 
ATOM     14  C   UNL     1       2.606   3.671  18.624  0.00  0.00    +0.000 C 
ATOM     15  C   UNL     1       3.283   3.540  19.965  0.00  0.00    +0.000 C 
ATOM     16  C   UNL     1       2.439   4.399  20.913  0.00  0.00    +0.000 C 
ATOM     17  C   UNL     1       1.822   5.492  20.042  0.00  0.00    +0.000 C 
ATOM     18  C   UNL     1       1.734   4.887  18.676  0.00  0.00    +0.000 C 
ENDBRANCH   2  13
TORSDOF 1
ENDMDL
MODEL 6
REMARK VINA RESULT:      -6.5      1.731      5.557
REMARK  Name = 
REMARK  1 active torsions:
REMARK  status: ('A' for Active; 'I' for Inactive)
REMARK    1  A    between atoms: C_2  and  C_3
REMARK                            x       y       z     vdW  Elec       q    Type
REMARK                         _______ _______ _______ _____ _____    ______ ____
ROOT
ATOM      1  O   UNL     1       4.841   5.115  19.980  0.00  0.00    +0.000 OA
ATOM      2  C   UNL     1       4.239   5.100  18.917  0.00  0.00    +0.000 C 
ATOM      3  N   UNL     1       3.152   4.257  18.626  0.00  0.00    +0.000 N 
ATOM      4  C   UNL     1       2.546   4.215  17.272  0.00  0.00    +0.000 C 
ATOM      5  C   UNL     1       2.878   2.898  16.562  0.00  0.00    +0.000 C 
ATOM      6  O   UNL     1       2.529   1.761  17.361  0.00  0.00    +0.000 OA
ATOM      7  C   UNL     1       3.192   1.800  18.636  0.00  0.00    +0.000 C 
ATOM      8  C   UNL     1       2.766   3.047  19.454  0.00  0.00    +0.000 C 
ATOM      9  C   UNL     1       1.228   3.058  19.694  0.00  0.00    +0.000 C 
ATOM     10  C   UNL     1       1.098   3.912  20.947  0.00  0.00    +0.000 C 
ATOM     11  C   UNL     1       2.128   3.265  21.850  0.00  0.00    +0.000 C 
ATOM     12  C   UNL     1       3.293   2.906  20.917  0.00  0.00    +0.000 C 
ENDROOT
BRANCH   2  13
ATOM     13  C   UNL     1       4.685   6.041  17.835  0.00  0.00    +0.000 C 
ATOM     14  C   UNL     1       6.148   6.421  17.712  0.00  0.00    +0.000 C 
ATOM     15  C   UNL     1       7.288   5.550  18.178  0.00  0.00    +0.000 C 
ATOM     16  C   UNL     1       7.536   4.580  17.019  0.00  0.00    +0.000 C 
ATOM     17  C   UNL     1       6.190   4.427  16.311  0.00  0.00    +0.000 C 
ATOM     18  C   UNL     1       5.468   5.708  16.585  0.00  0.00    +0.000 C 
ENDBRANCH   2  13
TORSDOF 1
ENDMDL
MODEL 7
REMARK VINA RESULT:      -6.4      1.263      1.883
REMARK  Name = 
REMARK  1 active torsions:
REMARK  status: ('A' for Active; 'I' for Inactive)
REMARK    1  A    between atoms: C_2  and  C_3
REMARK                            x       y       z     vdW  Elec       q    Type
REMARK                         _______ _______ _______ _____ _____    ______ ____
ROOT
ATOM      1  O   UNL     1       2.942   2.948  16.670  0.00  0.00    +0.000 OA
ATOM      2  C   UNL     1       2.896   4.000  17.289  0.00  0.00    +0.000 C 
ATOM      3  N   UNL     1       3.950   4.926  17.372  0.00  0.00    +0.000 N 
ATOM      4  C   UNL     1       3.858   6.127  18.240  0.00  0.00    +0.000 C 
ATOM      5  C   UNL     1       4.782   5.998  19.456  0.00  0.00    +0.000 C 
ATOM      6  O   UNL     1       6.128   5.693  19.072  0.00  0.00    +0.000 OA
ATOM      7  C   UNL     1       6.185   4.484  18.296  0.00  0.00    +0.000 C 
ATOM      8  C   UNL     1       5.382   4.625  16.976  0.00  0.00    +0.000 C 
ATOM      9  C   UNL     1       5.933   5.796  16.111  0.00  0.00    +0.000 C 
ATOM     10  C   UNL     1       5.498   5.399  14.707  0.00  0.00    +0.000 C 
ATOM     11  C   UNL     1       5.971   3.961  14.650  0.00  0.00    +0.000 C 
ATOM     12  C   UNL     1       5.693   3.404  16.053  0.00  0.00    +0.000 C 
ENDROOT
BRANCH   2  13
ATOM     13  C   UNL     1       1.628   4.338  18.020  0.00  0.00    +0.000 C 
ATOM     14  C   UNL     1       0.826   3.243  18.698  0.00  0.00    +0.000 C 
ATOM     15  C   UNL     1       1.420   1.954  19.207  0.00  0.00    +0.000 C 
ATOM     16  C   UNL     1       1.959   2.297  20.601  0.00  0.00    +0.000 C 
ATOM     17  C   UNL     1       2.311   3.783  20.554  0.00  0.00    +0.000 C 
ATOM     18  C   UNL     1       1.401   4.358  19.516  0.00  0.00    +0.000 C 
ENDBRANCH   2  13
TORSDOF 1
ENDMDL
MODEL 8
REMARK VINA RESULT:      -6.3      2.013      5.517
REMARK  Name = 
REMARK  1 active torsions:
REMARK  status: ('A' for Active; 'I' for Inactive)
REMARK    1  A    between atoms: C_2  and  C_3
REMARK                            x       y       z     vdW  Elec       q    Type
REMARK                         _______ _______ _______ _____ _____    ______ ____
ROOT
ATOM      1  O   UNL     1       5.242   5.426  20.011  0.00  0.00    +0.000 OA
ATOM      2  C   UNL     1       5.101   5.036  18.862  0.00  0.00    +0.000 C 
ATOM      3  N   UNL     1       3.876   5.005  18.173  0.00  0.00    +0.000 N 
ATOM      4  C   UNL     1       3.766   4.409  16.819  0.00  0.00    +0.000 C 
ATOM      5  C   UNL     1       2.994   3.085  16.862  0.00  0.00    +0.000 C 
ATOM      6  O   UNL     1       1.724   3.231  17.509  0.00  0.00    +0.000 OA
ATOM      7  C   UNL     1       1.878   3.741  18.844  0.00  0.00    +0.000 C 
ATOM      8  C   UNL     1       2.521   5.153  18.837  0.00  0.00    +0.000 C 
ATOM      9  C   UNL     1       1.656   6.155  18.020  0.00  0.00    +0.000 C 
ATOM     10  C   UNL     1       2.055   7.497  18.618  0.00  0.00    +0.000 C 
ATOM     11  C   UNL     1       1.912   7.210  20.098  0.00  0.00    +0.000 C 
ATOM     12  C   UNL     1       2.419   5.772  20.267  0.00  0.00    +0.000 C 
ENDROOT
BRANCH   2  13
ATOM     13  C   UNL     1       6.315   4.550  18.124  0.00  0.00    +0.000 C 
ATOM     14  C   UNL     1       7.004   5.449  17.116  0.00  0.00    +0.000 C 
ATOM     15  C   UNL     1       6.966   6.956  17.166  0.00  0.00    +0.000 C 
ATOM     16  C   UNL     1       8.084   7.343  18.140  0.00  0.00    +0.000 C 
ATOM     17  C   UNL     1       8.217   6.166  19.105  0.00  0.00    +0.000 C 
ATOM     18  C   UNL     1       7.752   4.978  18.325  0.00  0.00    +0.000 C 
ENDBRANCH   2  13
TORSDOF 1
ENDMDL
MODEL 9
REMARK VINA RESULT:      -6.2      1.669      5.238
REMARK  Name = 
REMARK  1 active torsions:
REMARK  status: ('A' for Active; 'I' for Inactive)
REMARK    1  A    between atoms: C_2  and  C_3
REMARK                            x       y       z     vdW  Elec       q    Type
REMARK                         _______ _______ _______ _____ _____    ______ ____
ROOT
ATOM      1  O   UNL     1       4.580   2.835  17.885  0.00  0.00    +0.000 OA
ATOM      2  C   UNL     1       4.746   4.010  18.177  0.00  0.00    +0.000 C 
ATOM      3  N   UNL     1       3.785   4.821  18.806  0.00  0.00    +0.000 N 
ATOM      4  C   UNL     1       4.021   6.270  19.024  0.00  0.00    +0.000 C 
ATOM      5  C   UNL     1       3.135   7.115  18.101  0.00  0.00    +0.000 C 
ATOM      6  O   UNL     1       1.753   6.755  18.213  0.00  0.00    +0.000 OA
ATOM      7  C   UNL     1       1.556   5.360  17.923  0.00  0.00    +0.000 C 
ATOM      8  C   UNL     1       2.318   4.462  18.933  0.00  0.00    +0.000 C 
ATOM      9  C   UNL     1       1.846   4.737  20.390  0.00  0.00    +0.000 C 
ATOM     10  C   UNL     1       2.189   3.433  21.097  0.00  0.00    +0.000 C 
ATOM     11  C   UNL     1       1.583   2.419  20.149  0.00  0.00    +0.000 C 
ATOM     12  C   UNL     1       1.862   2.980  18.749  0.00  0.00    +0.000 C 
ENDROOT
BRANCH   2  13
ATOM     13  C   UNL     1       6.066   4.643  17.843  0.00  0.00    +0.000 C 
ATOM     14  C   UNL     1       6.810   4.234  16.587  0.00  0.00    +0.000 C 
ATOM     15  C   UNL     1       6.142   3.688  15.350  0.00  0.00    +0.000 C 
ATOM     16  C   UNL     1       5.691   4.928  14.571  0.00  0.00    +0.000 C 
ATOM     17  C   UNL     1       5.452   6.012  15.620  0.00  0.00    +0.000 C 
ATOM     18  C   UNL     1       6.358   5.652  16.755  0.00  0.00    +0.000 C 
ENDBRANCH   2  13
TORSDOF 1
ENDMDL
