MODEL 1
REMARK VINA RESULT:      -7.4      0.000      0.000
REMARK  Name = 
REMARK  9 active torsions:
REMARK  status: ('A' for Active; 'I' for Inactive)
REMARK    1  A    between atoms: O_1  and  C_2
REMARK    2  A    between atoms: C_5  and  C_6
REMARK    3  A    between atoms: C_7  and  C_8
REMARK    4  A    between atoms: C_11  and  O_12
REMARK    5  A    between atoms: C_15  and  C_16
REMARK    6  A    between atoms: C_15  and  C_23
REMARK    7  A    between atoms: C_19  and  O_20
REMARK    8  A    between atoms: C_26  and  O_27
REMARK    9  A    between atoms: C_32  and  O_33
REMARK                            x       y       z     vdW  Elec       q    Type
REMARK                         _______ _______ _______ _____ _____    ______ ____
ROOT
ATOM      1  C   UNL     1       9.144  12.378  20.699  0.00  0.00    +0.000 A 
ATOM      2  C   UNL     1       9.838  11.192  20.419  0.00  0.00    +0.000 A 
ATOM      3  C   UNL     1      10.735  11.104  19.343  0.00  0.00    +0.000 A 
ATOM      4  C   UNL     1      10.970  12.212  18.532  0.00  0.00    +0.000 A 
ATOM      5  C   UNL     1      10.295  13.402  18.788  0.00  0.00    +0.000 A 
ATOM      6  C   UNL     1       9.360  13.481  19.860  0.00  0.00    +0.000 A 
ATOM      7  C   UNL     1       8.778  14.935  19.938  0.00  0.00    +0.000 C 
ATOM      8  C   UNL     1       9.582  15.628  18.808  0.00  0.00    +0.000 A 
ATOM      9  C   UNL     1       9.519  16.962  18.402  0.00  0.00    +0.000 A 
ATOM     10  C   UNL     1      10.302  17.350  17.320  0.00  0.00    +0.000 A 
ATOM     11  C   UNL     1      11.139  16.444  16.665  0.00  0.00    +0.000 A 
ATOM     12  C   UNL     1      11.204  15.111  17.083  0.00  0.00    +0.000 A 
ATOM     13  C   UNL     1      10.420  14.702  18.153  0.00  0.00    +0.000 A 
ENDROOT
BRANCH   7  14
ATOM     14  C   UNL     1       7.248  14.886  19.595  0.00  0.00    +0.000 A 
ATOM     15  C   UNL     1       6.825  14.767  18.261  0.00  0.00    +0.000 A 
ATOM     16  C   UNL     1       5.480  14.763  17.881  0.00  0.00    +0.000 A 
ATOM     17  C   UNL     1       4.511  14.883  18.853  0.00  0.00    +0.000 A 
ATOM     18  C   UNL     1       4.874  15.004  20.189  0.00  0.00    +0.000 A 
ATOM     19  C   UNL     1       6.230  15.023  20.556  0.00  0.00    +0.000 A 
BRANCH  17  20
ATOM     20  O   UNL     1       3.188  14.899  18.529  0.00  0.00    +0.000 OA
ATOM     21  H   UNL     1       2.910  15.821  18.416  0.00  0.00    +0.000 HD
ENDBRANCH  17  20
ENDBRANCH   7  14
BRANCH   7  22
ATOM     22  C   UNL     1       9.151  15.623  21.294  0.00  0.00    +0.000 A 
ATOM     23  C   UNL     1      10.473  15.573  21.790  0.00  0.00    +0.000 A 
ATOM     24  C   UNL     1      10.800  16.065  23.056  0.00  0.00    +0.000 A 
ATOM     25  C   UNL     1       9.810  16.642  23.838  0.00  0.00    +0.000 A 
ATOM     26  C   UNL     1       8.524  16.800  23.343  0.00  0.00    +0.000 A 
ATOM     27  C   UNL     1       8.205  16.325  22.067  0.00  0.00    +0.000 A 
BRANCH  25  28
ATOM     28  O   UNL     1      10.065  17.072  25.105  0.00  0.00    +0.000 OA
ATOM     29  H   UNL     1      11.026  17.055  25.246  0.00  0.00    +0.000 HD
ENDBRANCH  25  28
ENDBRANCH   7  22
BRANCH   1  31
ATOM     30  C   UNL     1       7.588  12.451  22.834  0.00  0.00    +0.000 C 
ATOM     31  C   UNL     1       8.288  12.395  21.856  0.00  0.00    +0.000 C 
BRANCH  30  35
ATOM     32  C   UNL     1       5.236  12.849  26.328  0.00  0.00    +0.000 A 
ATOM     33  C   UNL     1       5.639  13.984  25.636  0.00  0.00    +0.000 A 
ATOM     34  C   UNL     1       6.474  13.843  24.527  0.00  0.00    +0.000 A 
ATOM     35  C   UNL     1       6.868  12.579  24.073  0.00  0.00    +0.000 A 
ATOM     36  C   UNL     1       6.479  11.448  24.796  0.00  0.00    +0.000 A 
ATOM     37  C   UNL     1       5.667  11.588  25.929  0.00  0.00    +0.000 A 
BRANCH  32  38
ATOM     38  O   UNL     1       4.410  12.938  27.411  0.00  0.00    +0.000 OA
ATOM     39  H   UNL     1       4.363  13.866  27.691  0.00  0.00    +0.000 HD
ENDBRANCH  32  38
ENDBRANCH  30  35
ENDBRANCH   1  31
BRANCH   4  40
ATOM     40  O   UNL     1      11.870  12.132  17.512  0.00  0.00    +0.000 OA
ATOM     41  H   UNL     1      11.564  12.682  16.771  0.00  0.00    +0.000 HD
ENDBRANCH   4  40
BRANCH  10  42
ATOM     42  O   UNL     1      10.272  18.631  16.848  0.00  0.00    +0.000 OA
ATOM     43  H   UNL     1      11.172  18.887  16.592  0.00  0.00    +0.000 HD
ENDBRANCH  10  42
TORSDOF 9
ENDMDL
MODEL 2
REMARK VINA RESULT:      -7.3      0.298      1.140
REMARK  Name = 
REMARK  9 active torsions:
REMARK  status: ('A' for Active; 'I' for Inactive)
REMARK    1  A    between atoms: O_1  and  C_2
REMARK    2  A    between atoms: C_5  and  C_6
REMARK    3  A    between atoms: C_7  and  C_8
REMARK    4  A    between atoms: C_11  and  O_12
REMARK    5  A    between atoms: C_15  and  C_16
REMARK    6  A    between atoms: C_15  and  C_23
REMARK    7  A    between atoms: C_19  and  O_20
REMARK    8  A    between atoms: C_26  and  O_27
REMARK    9  A    between atoms: C_32  and  O_33
REMARK                            x       y       z     vdW  Elec       q    Type
REMARK                         _______ _______ _______ _____ _____    ______ ____
ROOT
ATOM      1  C   UNL     1       9.341  12.418  20.778  0.00  0.00    +0.000 A 
ATOM      2  C   UNL     1      10.019  11.226  20.480  0.00  0.00    +0.000 A 
ATOM      3  C   UNL     1      10.867  11.124  19.366  0.00  0.00    +0.000 A 
ATOM      4  C   UNL     1      11.068  12.224  18.534  0.00  0.00    +0.000 A 
ATOM      5  C   UNL     1      10.410  13.419  18.808  0.00  0.00    +0.000 A 
ATOM      6  C   UNL     1       9.523  13.512  19.920  0.00  0.00    +0.000 A 
ATOM      7  C   UNL     1       8.950  14.969  20.009  0.00  0.00    +0.000 C 
ATOM      8  C   UNL     1       9.705  15.647  18.838  0.00  0.00    +0.000 A 
ATOM      9  C   UNL     1       9.628  16.978  18.422  0.00  0.00    +0.000 A 
ATOM     10  C   UNL     1      10.365  17.353  17.303  0.00  0.00    +0.000 A 
ATOM     11  C   UNL     1      11.169  16.437  16.620  0.00  0.00    +0.000 A 
ATOM     12  C   UNL     1      11.248  15.108  17.048  0.00  0.00    +0.000 A 
ATOM     13  C   UNL     1      10.510  14.713  18.156  0.00  0.00    +0.000 A 
ENDROOT
BRANCH   7  14
ATOM     14  C   UNL     1       7.406  14.922  19.734  0.00  0.00    +0.000 A 
ATOM     15  C   UNL     1       6.924  14.769  18.424  0.00  0.00    +0.000 A 
ATOM     16  C   UNL     1       5.564  14.765  18.104  0.00  0.00    +0.000 A 
ATOM     17  C   UNL     1       4.639  14.919  19.113  0.00  0.00    +0.000 A 
ATOM     18  C   UNL     1       5.061  15.073  20.428  0.00  0.00    +0.000 A 
ATOM     19  C   UNL     1       6.431  15.093  20.734  0.00  0.00    +0.000 A 
BRANCH  17  20
ATOM     20  O   UNL     1       3.303  14.936  18.846  0.00  0.00    +0.000 OA
ATOM     21  H   UNL     1       3.181  14.894  17.885  0.00  0.00    +0.000 HD
ENDBRANCH  17  20
ENDBRANCH   7  14
BRANCH   7  22
ATOM     22  C   UNL     1       9.385  15.668  21.340  0.00  0.00    +0.000 A 
ATOM     23  C   UNL     1       8.420  16.195  22.228  0.00  0.00    +0.000 A 
ATOM     24  C   UNL     1       8.789  16.936  23.355  0.00  0.00    +0.000 A 
ATOM     25  C   UNL     1      10.134  17.138  23.626  0.00  0.00    +0.000 A 
ATOM     26  C   UNL     1      11.108  16.550  22.833  0.00  0.00    +0.000 A 
ATOM     27  C   UNL     1      10.736  15.791  21.719  0.00  0.00    +0.000 A 
BRANCH  25  28
ATOM     28  O   UNL     1      10.540  17.911  24.670  0.00  0.00    +0.000 OA
ATOM     29  H   UNL     1       9.800  18.483  24.933  0.00  0.00    +0.000 HD
ENDBRANCH  25  28
ENDBRANCH   7  22
BRANCH   1  31
ATOM     30  C   UNL     1       7.829  12.461  22.945  0.00  0.00    +0.000 C 
ATOM     31  C   UNL     1       8.537  12.449  21.971  0.00  0.00    +0.000 C 
BRANCH  30  35
ATOM     32  C   UNL     1       5.239  12.650  26.285  0.00  0.00    +0.000 A 
ATOM     33  C   UNL     1       5.708  11.418  25.847  0.00  0.00    +0.000 A 
ATOM     34  C   UNL     1       6.503  11.363  24.701  0.00  0.00    +0.000 A 
ATOM     35  C   UNL     1       6.875  12.528  24.020  0.00  0.00    +0.000 A 
ATOM     36  C   UNL     1       6.371  13.756  24.456  0.00  0.00    +0.000 A 
ATOM     37  C   UNL     1       5.547  13.813  25.587  0.00  0.00    +0.000 A 
BRANCH  32  38
ATOM     38  O   UNL     1       4.469  12.753  27.407  0.00  0.00    +0.000 OA
ATOM     39  H   UNL     1       4.999  13.157  28.113  0.00  0.00    +0.000 HD
ENDBRANCH  32  38
ENDBRANCH  30  35
ENDBRANCH   1  31
BRANCH   4  40
ATOM     40  O   UNL     1      11.923  12.131  17.476  0.00  0.00    +0.000 OA
ATOM     41  H   UNL     1      11.598  11.452  16.861  0.00  0.00    +0.000 HD
ENDBRANCH   4  40
BRANCH  10  42
ATOM     42  O   UNL     1      10.317  18.629  16.820  0.00  0.00    +0.000 OA
ATOM     43  H   UNL     1       9.387  18.882  16.709  0.00  0.00    +0.000 HD
ENDBRANCH  10  42
TORSDOF 9
ENDMDL
MODEL 3
REMARK VINA RESULT:      -7.2      0.250      1.125
REMARK  Name = 
REMARK  9 active torsions:
REMARK  status: ('A' for Active; 'I' for Inactive)
REMARK    1  A    between atoms: O_1  and  C_2
REMARK    2  A    between atoms: C_5  and  C_6
REMARK    3  A    between atoms: C_7  and  C_8
REMARK    4  A    between atoms: C_11  and  O_12
REMARK    5  A    between atoms: C_15  and  C_16
REMARK    6  A    between atoms: C_15  and  C_23
REMARK    7  A    between atoms: C_19  and  O_20
REMARK    8  A    between atoms: C_26  and  O_27
REMARK    9  A    between atoms: C_32  and  O_33
REMARK                            x       y       z     vdW  Elec       q    Type
REMARK                         _______ _______ _______ _____ _____    ______ ____
ROOT
ATOM      1  C   UNL     1       9.171  12.468  20.679  0.00  0.00    +0.000 A 
ATOM      2  C   UNL     1       9.850  11.259  20.465  0.00  0.00    +0.000 A 
ATOM      3  C   UNL     1      10.810  11.129  19.450  0.00  0.00    +0.000 A 
ATOM      4  C   UNL     1      11.125  12.215  18.636  0.00  0.00    +0.000 A 
ATOM      5  C   UNL     1      10.467  13.426  18.828  0.00  0.00    +0.000 A 
ATOM      6  C   UNL     1       9.468  13.549  19.836  0.00  0.00    +0.000 A 
ATOM      7  C   UNL     1       8.921  15.019  19.852  0.00  0.00    +0.000 C 
ATOM      8  C   UNL     1       9.812  15.669  18.763  0.00  0.00    +0.000 A 
ATOM      9  C   UNL     1       9.810  16.997  18.332  0.00  0.00    +0.000 A 
ATOM     10  C   UNL     1      10.670  17.345  17.295  0.00  0.00    +0.000 A 
ATOM     11  C   UNL     1      11.523  16.405  16.710  0.00  0.00    +0.000 A 
ATOM     12  C   UNL     1      11.526  15.079  17.154  0.00  0.00    +0.000 A 
ATOM     13  C   UNL     1      10.665  14.711  18.179  0.00  0.00    +0.000 A 
ENDROOT
BRANCH   7  14
ATOM     14  C   UNL     1       7.415  15.002  19.413  0.00  0.00    +0.000 A 
ATOM     15  C   UNL     1       6.399  15.234  20.355  0.00  0.00    +0.000 A 
ATOM     16  C   UNL     1       5.038  15.188  20.041  0.00  0.00    +0.000 A 
ATOM     17  C   UNL     1       4.660  14.900  18.748  0.00  0.00    +0.000 A 
ATOM     18  C   UNL     1       5.624  14.663  17.776  0.00  0.00    +0.000 A 
ATOM     19  C   UNL     1       6.988  14.695  18.108  0.00  0.00    +0.000 A 
BRANCH  17  20
ATOM     20  O   UNL     1       3.345  14.830  18.399  0.00  0.00    +0.000 OA
ATOM     21  H   UNL     1       3.230  14.093  17.780  0.00  0.00    +0.000 HD
ENDBRANCH  17  20
ENDBRANCH   7  14
BRANCH   7  22
ATOM     22  C   UNL     1       9.225  15.722  21.217  0.00  0.00    +0.000 A 
ATOM     23  C   UNL     1      10.539  15.752  21.738  0.00  0.00    +0.000 A 
ATOM     24  C   UNL     1      10.811  16.258  23.011  0.00  0.00    +0.000 A 
ATOM     25  C   UNL     1       9.773  16.770  23.776  0.00  0.00    +0.000 A 
ATOM     26  C   UNL     1       8.489  16.850  23.257  0.00  0.00    +0.000 A 
ATOM     27  C   UNL     1       8.224  16.362  21.974  0.00  0.00    +0.000 A 
BRANCH  25  28
ATOM     28  O   UNL     1       9.977  17.209  25.048  0.00  0.00    +0.000 OA
ATOM     29  H   UNL     1       9.114  17.414  25.444  0.00  0.00    +0.000 HD
ENDBRANCH  25  28
ENDBRANCH   7  22
BRANCH   1  31
ATOM     30  C   UNL     1       7.501  12.600  22.723  0.00  0.00    +0.000 C 
ATOM     31  C   UNL     1       8.244  12.529  21.779  0.00  0.00    +0.000 C 
BRANCH  30  35
ATOM     32  C   UNL     1       5.470  12.699  26.433  0.00  0.00    +0.000 A 
ATOM     33  C   UNL     1       5.693  11.481  25.803  0.00  0.00    +0.000 A 
ATOM     34  C   UNL     1       6.299  11.468  24.546  0.00  0.00    +0.000 A 
ATOM     35  C   UNL     1       6.731  12.653  23.937  0.00  0.00    +0.000 A 
ATOM     36  C   UNL     1       6.473  13.872  24.570  0.00  0.00    +0.000 A 
ATOM     37  C   UNL     1       5.835  13.891  25.817  0.00  0.00    +0.000 A 
BRANCH  32  38
ATOM     38  O   UNL     1       4.891  12.759  27.667  0.00  0.00    +0.000 OA
ATOM     39  H   UNL     1       5.369  13.412  28.204  0.00  0.00    +0.000 HD
ENDBRANCH  32  38
ENDBRANCH  30  35
ENDBRANCH   1  31
BRANCH   4  40
ATOM     40  O   UNL     1      12.086  12.093  17.676  0.00  0.00    +0.000 OA
ATOM     41  H   UNL     1      11.846  12.644  16.912  0.00  0.00    +0.000 HD
ENDBRANCH   4  40
BRANCH  10  42
ATOM     42  O   UNL     1      10.703  18.616  16.799  0.00  0.00    +0.000 OA
ATOM     43  H   UNL     1      10.295  18.615  15.919  0.00  0.00    +0.000 HD
ENDBRANCH  10  42
TORSDOF 9
ENDMDL
MODEL 4
REMARK VINA RESULT:      -7.2      9.218     12.973
REMARK  Name = 
REMARK  9 active torsions:
REMARK  status: ('A' for Active; 'I' for Inactive)
REMARK    1  A    between atoms: O_1  and  C_2
REMARK    2  A    between atoms: C_5  and  C_6
REMARK    3  A    between atoms: C_7  and  C_8
REMARK    4  A    between atoms: C_11  and  O_12
REMARK    5  A    between atoms: C_15  and  C_16
REMARK    6  A    between atoms: C_15  and  C_23
REMARK    7  A    between atoms: C_19  and  O_20
REMARK    8  A    between atoms: C_26  and  O_27
REMARK    9  A    between atoms: C_32  and  O_33
REMARK                            x       y       z     vdW  Elec       q    Type
REMARK                         _______ _______ _______ _____ _____    ______ ____
ROOT
ATOM      1  C   UNL     1      -4.603  13.028  21.075  0.00  0.00    +0.000 A 
ATOM      2  C   UNL     1      -5.978  13.024  21.351  0.00  0.00    +0.000 A 
ATOM      3  C   UNL     1      -6.489  13.578  22.535  0.00  0.00    +0.000 A 
ATOM      4  C   UNL     1      -5.632  14.167  23.462  0.00  0.00    +0.000 A 
ATOM      5  C   UNL     1      -4.263  14.186  23.212  0.00  0.00    +0.000 A 
ATOM      6  C   UNL     1      -3.741  13.593  22.026  0.00  0.00    +0.000 A 
ATOM      7  C   UNL     1      -2.185  13.786  21.987  0.00  0.00    +0.000 C 
ATOM      8  C   UNL     1      -1.966  14.619  23.277  0.00  0.00    +0.000 A 
ATOM      9  C   UNL     1      -0.767  15.124  23.780  0.00  0.00    +0.000 A 
ATOM     10  C   UNL     1      -0.805  15.804  24.993  0.00  0.00    +0.000 A 
ATOM     11  C   UNL     1      -2.005  15.992  25.685  0.00  0.00    +0.000 A 
ATOM     12  C   UNL     1      -3.204  15.491  25.170  0.00  0.00    +0.000 A 
ATOM     13  C   UNL     1      -3.183  14.799  23.966  0.00  0.00    +0.000 A 
ENDROOT
BRANCH   7  14
ATOM     14  C   UNL     1      -1.498  12.381  22.099  0.00  0.00    +0.000 A 
ATOM     15  C   UNL     1      -0.764  11.863  21.020  0.00  0.00    +0.000 A 
ATOM     16  C   UNL     1      -0.166  10.600  21.037  0.00  0.00    +0.000 A 
ATOM     17  C   UNL     1      -0.297   9.813  22.160  0.00  0.00    +0.000 A 
ATOM     18  C   UNL     1      -1.013  10.276  23.257  0.00  0.00    +0.000 A 
ATOM     19  C   UNL     1      -1.623  11.541  23.221  0.00  0.00    +0.000 A 
BRANCH  17  20
ATOM     20  O   UNL     1       0.256   8.569  22.215  0.00  0.00    +0.000 OA
ATOM     21  H   UNL     1      -0.137   8.026  21.516  0.00  0.00    +0.000 HD
ENDBRANCH  17  20
ENDBRANCH   7  14
BRANCH   7  22
ATOM     22  C   UNL     1      -1.753  14.661  20.763  0.00  0.00    +0.000 A 
ATOM     23  C   UNL     1      -0.819  14.175  19.821  0.00  0.00    +0.000 A 
ATOM     24  C   UNL     1      -0.323  14.985  18.796  0.00  0.00    +0.000 A 
ATOM     25  C   UNL     1      -0.776  16.291  18.681  0.00  0.00    +0.000 A 
ATOM     26  C   UNL     1      -1.767  16.769  19.525  0.00  0.00    +0.000 A 
ATOM     27  C   UNL     1      -2.277  15.949  20.536  0.00  0.00    +0.000 A 
BRANCH  25  28
ATOM     28  O   UNL     1      -0.270  17.139  17.744  0.00  0.00    +0.000 OA
ATOM     29  H   UNL     1      -0.854  17.913  17.684  0.00  0.00    +0.000 HD
ENDBRANCH  25  28
ENDBRANCH   7  22
BRANCH   1  31
ATOM     30  C   UNL     1      -3.855  12.021  18.748  0.00  0.00    +0.000 C 
ATOM     31  C   UNL     1      -4.173  12.489  19.811  0.00  0.00    +0.000 C 
BRANCH  30  35
ATOM     32  C   UNL     1      -2.856  10.263  15.032  0.00  0.00    +0.000 A 
ATOM     33  C   UNL     1      -3.999  11.047  15.138  0.00  0.00    +0.000 A 
ATOM     34  C   UNL     1      -4.356  11.561  16.385  0.00  0.00    +0.000 A 
ATOM     35  C   UNL     1      -3.557  11.344  17.515  0.00  0.00    +0.000 A 
ATOM     36  C   UNL     1      -2.428  10.529  17.398  0.00  0.00    +0.000 A 
ATOM     37  C   UNL     1      -2.083   9.984  16.155  0.00  0.00    +0.000 A 
BRANCH  32  38
ATOM     38  O   UNL     1      -2.462   9.749  13.831  0.00  0.00    +0.000 OA
ATOM     39  H   UNL     1      -3.196   9.833  13.201  0.00  0.00    +0.000 HD
ENDBRANCH  32  38
ENDBRANCH  30  35
ENDBRANCH   1  31
BRANCH   4  40
ATOM     40  O   UNL     1      -6.137  14.738  24.592  0.00  0.00    +0.000 OA
ATOM     41  H   UNL     1      -5.553  14.535  25.342  0.00  0.00    +0.000 HD
ENDBRANCH   4  40
BRANCH  10  42
ATOM     42  O   UNL     1       0.332  16.300  25.562  0.00  0.00    +0.000 OA
ATOM     43  H   UNL     1       0.766  15.587  26.056  0.00  0.00    +0.000 HD
ENDBRANCH  10  42
TORSDOF 9
ENDMDL
MODEL 5
REMARK VINA RESULT:      -6.9      7.568     10.957
REMARK  Name = 
REMARK  9 active torsions:
REMARK  status: ('A' for Active; 'I' for Inactive)
REMARK    1  A    between atoms: O_1  and  C_2
REMARK    2  A    between atoms: C_5  and  C_6
REMARK    3  A    between atoms: C_7  and  C_8
REMARK    4  A    between atoms: C_11  and  O_12
REMARK    5  A    between atoms: C_15  and  C_16
REMARK    6  A    between atoms: C_15  and  C_23
REMARK    7  A    between atoms: C_19  and  O_20
REMARK    8  A    between atoms: C_26  and  O_27
REMARK    9  A    between atoms: C_32  and  O_33
REMARK                            x       y       z     vdW  Elec       q    Type
REMARK                         _______ _______ _______ _____ _____    ______ ____
ROOT
ATOM      1  C   UNL     1       1.360  12.189  18.707  0.00  0.00    +0.000 A 
ATOM      2  C   UNL     1       2.412  13.049  18.357  0.00  0.00    +0.000 A 
ATOM      3  C   UNL     1       2.274  14.443  18.434  0.00  0.00    +0.000 A 
ATOM      4  C   UNL     1       1.081  15.008  18.882  0.00  0.00    +0.000 A 
ATOM      5  C   UNL     1       0.023  14.177  19.238  0.00  0.00    +0.000 A 
ATOM      6  C   UNL     1       0.152  12.763  19.128  0.00  0.00    +0.000 A 
ATOM      7  C   UNL     1      -1.170  12.078  19.622  0.00  0.00    +0.000 C 
ATOM      8  C   UNL     1      -1.985  13.318  20.071  0.00  0.00    +0.000 A 
ATOM      9  C   UNL     1      -3.263  13.349  20.631  0.00  0.00    +0.000 A 
ATOM     10  C   UNL     1      -3.822  14.593  20.908  0.00  0.00    +0.000 A 
ATOM     11  C   UNL     1      -3.126  15.777  20.651  0.00  0.00    +0.000 A 
ATOM     12  C   UNL     1      -1.843  15.738  20.099  0.00  0.00    +0.000 A 
ATOM     13  C   UNL     1      -1.274  14.506  19.804  0.00  0.00    +0.000 A 
ENDROOT
BRANCH   7  14
ATOM     14  C   UNL     1      -1.854  11.362  18.406  0.00  0.00    +0.000 A 
ATOM     15  C   UNL     1      -1.862  11.970  17.140  0.00  0.00    +0.000 A 
ATOM     16  C   UNL     1      -2.492  11.409  16.025  0.00  0.00    +0.000 A 
ATOM     17  C   UNL     1      -3.142  10.202  16.162  0.00  0.00    +0.000 A 
ATOM     18  C   UNL     1      -3.164   9.557  17.391  0.00  0.00    +0.000 A 
ATOM     19  C   UNL     1      -2.541  10.139  18.508  0.00  0.00    +0.000 A 
BRANCH  17  20
ATOM     20  O   UNL     1      -3.782   9.625  15.106  0.00  0.00    +0.000 OA
ATOM     21  H   UNL     1      -3.670   8.665  15.166  0.00  0.00    +0.000 HD
ENDBRANCH  17  20
ENDBRANCH   7  14
BRANCH   7  22
ATOM     22  C   UNL     1      -0.909  11.185  20.881  0.00  0.00    +0.000 A 
ATOM     23  C   UNL     1      -1.152  11.680  22.182  0.00  0.00    +0.000 A 
ATOM     24  C   UNL     1      -0.804  10.949  23.321  0.00  0.00    +0.000 A 
ATOM     25  C   UNL     1      -0.230   9.694  23.175  0.00  0.00    +0.000 A 
ATOM     26  C   UNL     1      -0.071   9.135  21.916  0.00  0.00    +0.000 A 
ATOM     27  C   UNL     1      -0.440   9.860  20.779  0.00  0.00    +0.000 A 
BRANCH  25  28
ATOM     28  O   UNL     1       0.189   8.975  24.253  0.00  0.00    +0.000 OA
ATOM     29  H   UNL     1      -0.436   9.124  24.982  0.00  0.00    +0.000 HD
ENDBRANCH  25  28
ENDBRANCH   7  22
BRANCH   1  31
ATOM     30  C   UNL     1       1.851   9.593  18.634  0.00  0.00    +0.000 C 
ATOM     31  C   UNL     1       1.609  10.772  18.652  0.00  0.00    +0.000 C 
BRANCH  30  35
ATOM     32  C   UNL     1       3.374   5.645  18.665  0.00  0.00    +0.000 A 
ATOM     33  C   UNL     1       3.639   6.477  17.584  0.00  0.00    +0.000 A 
ATOM     34  C   UNL     1       3.070   7.752  17.552  0.00  0.00    +0.000 A 
ATOM     35  C   UNL     1       2.285   8.221  18.612  0.00  0.00    +0.000 A 
ATOM     36  C   UNL     1       2.005   7.363  19.678  0.00  0.00    +0.000 A 
ATOM     37  C   UNL     1       2.546   6.072  19.698  0.00  0.00    +0.000 A 
BRANCH  32  38
ATOM     38  O   UNL     1       3.918   4.396  18.744  0.00  0.00    +0.000 OA
ATOM     39  H   UNL     1       3.525   3.933  19.501  0.00  0.00    +0.000 HD
ENDBRANCH  32  38
ENDBRANCH  30  35
ENDBRANCH   1  31
BRANCH   4  40
ATOM     40  O   UNL     1       0.966  16.362  18.992  0.00  0.00    +0.000 OA
ATOM     41  H   UNL     1       1.728  16.783  18.560  0.00  0.00    +0.000 HD
ENDBRANCH   4  40
BRANCH  10  42
ATOM     42  O   UNL     1      -5.079  14.704  21.429  0.00  0.00    +0.000 OA
ATOM     43  H   UNL     1      -5.437  13.812  21.562  0.00  0.00    +0.000 HD
ENDBRANCH  10  42
TORSDOF 9
ENDMDL
MODEL 6
REMARK VINA RESULT:      -6.6      9.299     13.043
REMARK  Name = 
REMARK  9 active torsions:
REMARK  status: ('A' for Active; 'I' for Inactive)
REMARK    1  A    between atoms: O_1  and  C_2
REMARK    2  A    between atoms: C_5  and  C_6
REMARK    3  A    between atoms: C_7  and  C_8
REMARK    4  A    between atoms: C_11  and  O_12
REMARK    5  A    between atoms: C_15  and  C_16
REMARK    6  A    between atoms: C_15  and  C_23
REMARK    7  A    between atoms: C_19  and  O_20
REMARK    8  A    between atoms: C_26  and  O_27
REMARK    9  A    between atoms: C_32  and  O_33
REMARK                            x       y       z     vdW  Elec       q    Type
REMARK                         _______ _______ _______ _____ _____    ______ ____
ROOT
ATOM      1  C   UNL     1      -4.529  12.920  21.018  0.00  0.00    +0.000 A 
ATOM      2  C   UNL     1      -5.915  12.890  21.235  0.00  0.00    +0.000 A 
ATOM      3  C   UNL     1      -6.481  13.378  22.423  0.00  0.00    +0.000 A 
ATOM      4  C   UNL     1      -5.670  13.924  23.415  0.00  0.00    +0.000 A 
ATOM      5  C   UNL     1      -4.293  13.968  23.225  0.00  0.00    +0.000 A 
ATOM      6  C   UNL     1      -3.715  13.443  22.034  0.00  0.00    +0.000 A 
ATOM      7  C   UNL     1      -2.161  13.651  22.071  0.00  0.00    +0.000 C 
ATOM      8  C   UNL     1      -2.006  14.417  23.410  0.00  0.00    +0.000 A 
ATOM      9  C   UNL     1      -0.834  14.905  23.989  0.00  0.00    +0.000 A 
ATOM     10  C   UNL     1      -0.931  15.520  25.234  0.00  0.00    +0.000 A 
ATOM     11  C   UNL     1      -2.160  15.661  25.882  0.00  0.00    +0.000 A 
ATOM     12  C   UNL     1      -3.332  15.178  25.291  0.00  0.00    +0.000 A 
ATOM     13  C   UNL     1      -3.252  14.550  24.055  0.00  0.00    +0.000 A 
ENDROOT
BRANCH   7  14
ATOM     14  C   UNL     1      -1.464  12.248  22.139  0.00  0.00    +0.000 A 
ATOM     15  C   UNL     1      -0.783  11.739  21.021  0.00  0.00    +0.000 A 
ATOM     16  C   UNL     1      -0.180  10.479  20.999  0.00  0.00    +0.000 A 
ATOM     17  C   UNL     1      -0.252   9.684  22.122  0.00  0.00    +0.000 A 
ATOM     18  C   UNL     1      -0.913  10.137  23.256  0.00  0.00    +0.000 A 
ATOM     19  C   UNL     1      -1.529  11.400  23.260  0.00  0.00    +0.000 A 
BRANCH  17  20
ATOM     20  O   UNL     1       0.308   8.442  22.141  0.00  0.00    +0.000 OA
ATOM     21  H   UNL     1       0.962   8.389  21.428  0.00  0.00    +0.000 HD
ENDBRANCH  17  20
ENDBRANCH   7  14
BRANCH   7  22
ATOM     22  C   UNL     1      -1.688  14.592  20.913  0.00  0.00    +0.000 A 
ATOM     23  C   UNL     1      -2.214  15.897  20.781  0.00  0.00    +0.000 A 
ATOM     24  C   UNL     1      -1.904  16.705  19.684  0.00  0.00    +0.000 A 
ATOM     25  C   UNL     1      -1.038  16.228  18.711  0.00  0.00    +0.000 A 
ATOM     26  C   UNL     1      -0.424  14.993  18.859  0.00  0.00    +0.000 A 
ATOM     27  C   UNL     1      -0.719  14.196  19.970  0.00  0.00    +0.000 A 
BRANCH  25  28
ATOM     28  O   UNL     1      -0.762  16.950  17.590  0.00  0.00    +0.000 OA
ATOM     29  H   UNL     1      -0.133  16.444  17.048  0.00  0.00    +0.000 HD
ENDBRANCH  25  28
ENDBRANCH   7  22
BRANCH   1  31
ATOM     30  C   UNL     1      -3.674  12.047  18.675  0.00  0.00    +0.000 C 
ATOM     31  C   UNL     1      -4.041  12.452  19.748  0.00  0.00    +0.000 C 
BRANCH  30  35
ATOM     32  C   UNL     1      -2.788  10.055  15.049  0.00  0.00    +0.000 A 
ATOM     33  C   UNL     1      -1.969   9.868  16.155  0.00  0.00    +0.000 A 
ATOM     34  C   UNL     1      -2.230  10.586  17.323  0.00  0.00    +0.000 A 
ATOM     35  C   UNL     1      -3.329  11.449  17.413  0.00  0.00    +0.000 A 
ATOM     36  C   UNL     1      -4.126  11.649  16.282  0.00  0.00    +0.000 A 
ATOM     37  C   UNL     1      -3.848  10.955  15.099  0.00  0.00    +0.000 A 
BRANCH  32  38
ATOM     38  O   UNL     1      -2.578   9.366  13.890  0.00  0.00    +0.000 OA
ATOM     39  H   UNL     1      -3.423   8.994  13.591  0.00  0.00    +0.000 HD
ENDBRANCH  32  38
ENDBRANCH  30  35
ENDBRANCH   1  31
BRANCH   4  40
ATOM     40  O   UNL     1      -6.229  14.431  24.551  0.00  0.00    +0.000 OA
ATOM     41  H   UNL     1      -5.533  14.572  25.214  0.00  0.00    +0.000 HD
ENDBRANCH   4  40
BRANCH  10  42
ATOM     42  O   UNL     1       0.176  15.996  25.876  0.00  0.00    +0.000 OA
ATOM     43  H   UNL     1       0.645  15.248  26.278  0.00  0.00    +0.000 HD
ENDBRANCH  10  42
TORSDOF 9
ENDMDL
MODEL 7
REMARK VINA RESULT:      -6.5      7.726     11.068
REMARK  Name = 
REMARK  9 active torsions:
REMARK  status: ('A' for Active; 'I' for Inactive)
REMARK    1  A    between atoms: O_1  and  C_2
REMARK    2  A    between atoms: C_5  and  C_6
REMARK    3  A    between atoms: C_7  and  C_8
REMARK    4  A    between atoms: C_11  and  O_12
REMARK    5  A    between atoms: C_15  and  C_16
REMARK    6  A    between atoms: C_15  and  C_23
REMARK    7  A    between atoms: C_19  and  O_20
REMARK    8  A    between atoms: C_26  and  O_27
REMARK    9  A    between atoms: C_32  and  O_33
REMARK                            x       y       z     vdW  Elec       q    Type
REMARK                         _______ _______ _______ _____ _____    ______ ____
ROOT
ATOM      1  C   UNL     1       1.197  12.408  18.777  0.00  0.00    +0.000 A 
ATOM      2  C   UNL     1       2.216  13.312  18.443  0.00  0.00    +0.000 A 
ATOM      3  C   UNL     1       2.027  14.699  18.546  0.00  0.00    +0.000 A 
ATOM      4  C   UNL     1       0.815  15.211  19.005  0.00  0.00    +0.000 A 
ATOM      5  C   UNL     1      -0.212  14.336  19.344  0.00  0.00    +0.000 A 
ATOM      6  C   UNL     1      -0.032  12.930  19.208  0.00  0.00    +0.000 A 
ATOM      7  C   UNL     1      -1.328  12.188  19.688  0.00  0.00    +0.000 C 
ATOM      8  C   UNL     1      -2.188  13.389  20.159  0.00  0.00    +0.000 A 
ATOM      9  C   UNL     1      -3.466  13.363  20.719  0.00  0.00    +0.000 A 
ATOM     10  C   UNL     1      -4.069  14.580  21.019  0.00  0.00    +0.000 A 
ATOM     11  C   UNL     1      -3.418  15.793  20.785  0.00  0.00    +0.000 A 
ATOM     12  C   UNL     1      -2.133  15.811  20.233  0.00  0.00    +0.000 A 
ATOM     13  C   UNL     1      -1.520  14.606  19.915  0.00  0.00    +0.000 A 
ENDROOT
BRANCH   7  14
ATOM     14  C   UNL     1      -1.985  11.471  18.458  0.00  0.00    +0.000 A 
ATOM     15  C   UNL     1      -1.347  10.377  17.851  0.00  0.00    +0.000 A 
ATOM     16  C   UNL     1      -1.855   9.722  16.726  0.00  0.00    +0.000 A 
ATOM     17  C   UNL     1      -3.037  10.162  16.172  0.00  0.00    +0.000 A 
ATOM     18  C   UNL     1      -3.710  11.240  16.732  0.00  0.00    +0.000 A 
ATOM     19  C   UNL     1      -3.181  11.900  17.854  0.00  0.00    +0.000 A 
BRANCH  17  20
ATOM     20  O   UNL     1      -3.561   9.564  15.066  0.00  0.00    +0.000 OA
ATOM     21  H   UNL     1      -3.950  10.248  14.501  0.00  0.00    +0.000 HD
ENDBRANCH  17  20
ENDBRANCH   7  14
BRANCH   7  22
ATOM     22  C   UNL     1      -1.035  11.281  20.930  0.00  0.00    +0.000 A 
ATOM     23  C   UNL     1      -1.103  11.806  22.240  0.00  0.00    +0.000 A 
ATOM     24  C   UNL     1      -0.719  11.051  23.352  0.00  0.00    +0.000 A 
ATOM     25  C   UNL     1      -0.285   9.746  23.172  0.00  0.00    +0.000 A 
ATOM     26  C   UNL     1      -0.302   9.166  21.912  0.00  0.00    +0.000 A 
ATOM     27  C   UNL     1      -0.707   9.917  20.804  0.00  0.00    +0.000 A 
BRANCH  25  28
ATOM     28  O   UNL     1       0.165   8.997  24.216  0.00  0.00    +0.000 OA
ATOM     29  H   UNL     1       0.325   8.093  23.897  0.00  0.00    +0.000 HD
ENDBRANCH  25  28
ENDBRANCH   7  22
BRANCH   1  31
ATOM     30  C   UNL     1       1.760   9.828  18.670  0.00  0.00    +0.000 C 
ATOM     31  C   UNL     1       1.496  11.002  18.695  0.00  0.00    +0.000 C 
BRANCH  30  35
ATOM     32  C   UNL     1       2.768   5.720  18.777  0.00  0.00    +0.000 A 
ATOM     33  C   UNL     1       2.225   6.326  19.904  0.00  0.00    +0.000 A 
ATOM     34  C   UNL     1       1.965   7.697  19.880  0.00  0.00    +0.000 A 
ATOM     35  C   UNL     1       2.192   8.457  18.726  0.00  0.00    +0.000 A 
ATOM     36  C   UNL     1       2.765   7.840  17.611  0.00  0.00    +0.000 A 
ATOM     37  C   UNL     1       3.058   6.471  17.643  0.00  0.00    +0.000 A 
BRANCH  32  38
ATOM     38  O   UNL     1       3.028   4.381  18.752  0.00  0.00    +0.000 OA
ATOM     39  H   UNL     1       3.073   4.090  17.827  0.00  0.00    +0.000 HD
ENDBRANCH  32  38
ENDBRANCH  30  35
ENDBRANCH   1  31
BRANCH   4  40
ATOM     40  O   UNL     1       0.650  16.558  19.139  0.00  0.00    +0.000 OA
ATOM     41  H   UNL     1      -0.211  16.813  18.769  0.00  0.00    +0.000 HD
ENDBRANCH   4  40
BRANCH  10  42
ATOM     42  O   UNL     1      -5.330  14.635  21.541  0.00  0.00    +0.000 OA
ATOM     43  H   UNL     1      -5.513  15.549  21.808  0.00  0.00    +0.000 HD
ENDBRANCH  10  42
TORSDOF 9
ENDMDL
MODEL 8
REMARK VINA RESULT:      -6.5      1.061      1.535
REMARK  Name = 
REMARK  9 active torsions:
REMARK  status: ('A' for Active; 'I' for Inactive)
REMARK    1  A    between atoms: O_1  and  C_2
REMARK    2  A    between atoms: C_5  and  C_6
REMARK    3  A    between atoms: C_7  and  C_8
REMARK    4  A    between atoms: C_11  and  O_12
REMARK    5  A    between atoms: C_15  and  C_16
REMARK    6  A    between atoms: C_15  and  C_23
REMARK    7  A    between atoms: C_19  and  O_20
REMARK    8  A    between atoms: C_26  and  O_27
REMARK    9  A    between atoms: C_32  and  O_33
REMARK                            x       y       z     vdW  Elec       q    Type
REMARK                         _______ _______ _______ _____ _____    ______ ____
ROOT
ATOM      1  C   UNL     1       8.587  12.195  21.553  0.00  0.00    +0.000 A 
ATOM      2  C   UNL     1       9.307  11.065  21.138  0.00  0.00    +0.000 A 
ATOM      3  C   UNL     1      10.058  11.070  19.953  0.00  0.00    +0.000 A 
ATOM      4  C   UNL     1      10.119  12.217  19.164  0.00  0.00    +0.000 A 
ATOM      5  C   UNL     1       9.416  13.352  19.554  0.00  0.00    +0.000 A 
ATOM      6  C   UNL     1       8.626  13.336  20.739  0.00  0.00    +0.000 A 
ATOM      7  C   UNL     1       7.975  14.747  20.952  0.00  0.00    +0.000 C 
ATOM      8  C   UNL     1       8.582  15.527  19.756  0.00  0.00    +0.000 A 
ATOM      9  C   UNL     1       8.388  16.867  19.418  0.00  0.00    +0.000 A 
ATOM     10  C   UNL     1       8.999  17.339  18.261  0.00  0.00    +0.000 A 
ATOM     11  C   UNL     1       9.795  16.510  17.466  0.00  0.00    +0.000 A 
ATOM     12  C   UNL     1       9.991  15.171  17.817  0.00  0.00    +0.000 A 
ATOM     13  C   UNL     1       9.379  14.678  18.962  0.00  0.00    +0.000 A 
ENDROOT
BRANCH   7  14
ATOM     14  C   UNL     1       6.419  14.613  20.806  0.00  0.00    +0.000 A 
ATOM     15  C   UNL     1       5.798  14.864  19.571  0.00  0.00    +0.000 A 
ATOM     16  C   UNL     1       4.414  14.806  19.384  0.00  0.00    +0.000 A 
ATOM     17  C   UNL     1       3.608  14.491  20.455  0.00  0.00    +0.000 A 
ATOM     18  C   UNL     1       4.169  14.233  21.699  0.00  0.00    +0.000 A 
ATOM     19  C   UNL     1       5.560  14.310  21.878  0.00  0.00    +0.000 A 
BRANCH  17  20
ATOM     20  O   UNL     1       2.252  14.438  20.322  0.00  0.00    +0.000 OA
ATOM     21  H   UNL     1       1.892  15.321  20.494  0.00  0.00    +0.000 HD
ENDBRANCH  17  20
ENDBRANCH   7  14
BRANCH   7  22
ATOM     22  C   UNL     1       8.481  15.412  22.275  0.00  0.00    +0.000 A 
ATOM     23  C   UNL     1       7.582  16.071  23.143  0.00  0.00    +0.000 A 
ATOM     24  C   UNL     1       8.030  16.781  24.261  0.00  0.00    +0.000 A 
ATOM     25  C   UNL     1       9.387  16.820  24.543  0.00  0.00    +0.000 A 
ATOM     26  C   UNL     1      10.288  16.101  23.771  0.00  0.00    +0.000 A 
ATOM     27  C   UNL     1       9.834  15.374  22.666  0.00  0.00    +0.000 A 
BRANCH  25  28
ATOM     28  O   UNL     1       9.877  17.556  25.578  0.00  0.00    +0.000 OA
ATOM     29  H   UNL     1      10.844  17.593  25.497  0.00  0.00    +0.000 HD
ENDBRANCH  25  28
ENDBRANCH   7  22
BRANCH   1  31
ATOM     30  C   UNL     1       7.276  12.085  23.845  0.00  0.00    +0.000 C 
ATOM     31  C   UNL     1       7.890  12.119  22.810  0.00  0.00    +0.000 C 
BRANCH  30  35
ATOM     32  C   UNL     1       4.822  12.431  27.275  0.00  0.00    +0.000 A 
ATOM     33  C   UNL     1       5.293  13.577  26.646  0.00  0.00    +0.000 A 
ATOM     34  C   UNL     1       6.160  13.449  25.560  0.00  0.00    +0.000 A 
ATOM     35  C   UNL     1       6.519  12.190  25.064  0.00  0.00    +0.000 A 
ATOM     36  C   UNL     1       6.061  11.047  25.725  0.00  0.00    +0.000 A 
ATOM     37  C   UNL     1       5.217  11.172  26.836  0.00  0.00    +0.000 A 
BRANCH  32  38
ATOM     38  O   UNL     1       3.964  12.508  28.333  0.00  0.00    +0.000 OA
ATOM     39  H   UNL     1       3.331  13.225  28.168  0.00  0.00    +0.000 HD
ENDBRANCH  32  38
ENDBRANCH  30  35
ENDBRANCH   1  31
BRANCH   4  40
ATOM     40  O   UNL     1      10.882  12.228  18.034  0.00  0.00    +0.000 OA
ATOM     41  H   UNL     1      10.750  11.395  17.552  0.00  0.00    +0.000 HD
ENDBRANCH   4  40
BRANCH  10  42
ATOM     42  O   UNL     1       8.831  18.630  17.849  0.00  0.00    +0.000 OA
ATOM     43  H   UNL     1       9.033  18.681  16.902  0.00  0.00    +0.000 HD
ENDBRANCH  10  42
TORSDOF 9
ENDMDL
MODEL 9
REMARK VINA RESULT:      -6.4      7.524     10.952
REMARK  Name = 
REMARK  9 active torsions:
REMARK  status: ('A' for Active; 'I' for Inactive)
REMARK    1  A    between atoms: O_1  and  C_2
REMARK    2  A    between atoms: C_5  and  C_6
REMARK    3  A    between atoms: C_7  and  C_8
REMARK    4  A    between atoms: C_11  and  O_12
REMARK    5  A    between atoms: C_15  and  C_16
REMARK    6  A    between atoms: C_15  and  C_23
REMARK    7  A    between atoms: C_19  and  O_20
REMARK    8  A    between atoms: C_26  and  O_27
REMARK    9  A    between atoms: C_32  and  O_33
REMARK                            x       y       z     vdW  Elec       q    Type
REMARK                         _______ _______ _______ _____ _____    ______ ____
ROOT
ATOM      1  C   UNL     1       1.521  12.315  18.561  0.00  0.00    +0.000 A 
ATOM      2  C   UNL     1       2.534  13.223  18.217  0.00  0.00    +0.000 A 
ATOM      3  C   UNL     1       2.352  14.608  18.350  0.00  0.00    +0.000 A 
ATOM      4  C   UNL     1       1.154  15.115  18.849  0.00  0.00    +0.000 A 
ATOM      5  C   UNL     1       0.134  14.237  19.199  0.00  0.00    +0.000 A 
ATOM      6  C   UNL     1       0.306  12.832  19.033  0.00  0.00    +0.000 A 
ATOM      7  C   UNL     1      -0.979  12.086  19.534  0.00  0.00    +0.000 C 
ATOM      8  C   UNL     1      -1.823  13.280  20.049  0.00  0.00    +0.000 A 
ATOM      9  C   UNL     1      -3.086  13.247  20.642  0.00  0.00    +0.000 A 
ATOM     10  C   UNL     1      -3.677  14.461  20.980  0.00  0.00    +0.000 A 
ATOM     11  C   UNL     1      -3.028  15.676  20.750  0.00  0.00    +0.000 A 
ATOM     12  C   UNL     1      -1.759  15.701  20.164  0.00  0.00    +0.000 A 
ATOM     13  C   UNL     1      -1.158  14.500  19.809  0.00  0.00    +0.000 A 
ENDROOT
BRANCH   7  14
ATOM     14  C   UNL     1      -1.671  11.393  18.309  0.00  0.00    +0.000 A 
ATOM     15  C   UNL     1      -2.882  11.892  17.803  0.00  0.00    +0.000 A 
ATOM     16  C   UNL     1      -3.574  11.297  16.744  0.00  0.00    +0.000 A 
ATOM     17  C   UNL     1      -3.054  10.162  16.161  0.00  0.00    +0.000 A 
ATOM     18  C   UNL     1      -1.859   9.626  16.622  0.00  0.00    +0.000 A 
ATOM     19  C   UNL     1      -1.182  10.224  17.697  0.00  0.00    +0.000 A 
BRANCH  17  20
ATOM     20  O   UNL     1      -3.701   9.539  15.136  0.00  0.00    +0.000 OA
ATOM     21  H   UNL     1      -3.411   8.615  15.105  0.00  0.00    +0.000 HD
ENDBRANCH  17  20
ENDBRANCH   7  14
BRANCH   7  22
ATOM     22  C   UNL     1      -0.656  11.156  20.751  0.00  0.00    +0.000 A 
ATOM     23  C   UNL     1      -0.481   9.765  20.572  0.00  0.00    +0.000 A 
ATOM     24  C   UNL     1      -0.321   8.901  21.659  0.00  0.00    +0.000 A 
ATOM     25  C   UNL     1      -0.308   9.420  22.945  0.00  0.00    +0.000 A 
ATOM     26  C   UNL     1      -0.375  10.790  23.152  0.00  0.00    +0.000 A 
ATOM     27  C   UNL     1      -0.513  11.654  22.061  0.00  0.00    +0.000 A 
BRANCH  25  28
ATOM     28  O   UNL     1      -0.225   8.611  24.037  0.00  0.00    +0.000 OA
ATOM     29  H   UNL     1      -0.180   7.690  23.732  0.00  0.00    +0.000 HD
ENDBRANCH  25  28
ENDBRANCH   7  22
BRANCH   1  31
ATOM     30  C   UNL     1       2.079   9.737  18.391  0.00  0.00    +0.000 C 
ATOM     31  C   UNL     1       1.814  10.911  18.446  0.00  0.00    +0.000 C 
BRANCH  30  35
ATOM     32  C   UNL     1       3.151   5.646  18.264  0.00  0.00    +0.000 A 
ATOM     33  C   UNL     1       2.363   6.120  19.306  0.00  0.00    +0.000 A 
ATOM     34  C   UNL     1       2.078   7.484  19.376  0.00  0.00    +0.000 A 
ATOM     35  C   UNL     1       2.526   8.370  18.388  0.00  0.00    +0.000 A 
ATOM     36  C   UNL     1       3.340   7.883  17.363  0.00  0.00    +0.000 A 
ATOM     37  C   UNL     1       3.657   6.521  17.307  0.00  0.00    +0.000 A 
BRANCH  32  38
ATOM     38  O   UNL     1       3.446   4.319  18.149  0.00  0.00    +0.000 OA
ATOM     39  H   UNL     1       3.312   3.895  19.012  0.00  0.00    +0.000 HD
ENDBRANCH  32  38
ENDBRANCH  30  35
ENDBRANCH   1  31
BRANCH   4  40
ATOM     40  O   UNL     1       0.998  16.459  19.012  0.00  0.00    +0.000 OA
ATOM     41  H   UNL     1       1.747  16.921  18.600  0.00  0.00    +0.000 HD
ENDBRANCH   4  40
BRANCH  10  42
ATOM     42  O   UNL     1      -4.923  14.510  21.536  0.00  0.00    +0.000 OA
ATOM     43  H   UNL     1      -4.924  15.184  22.233  0.00  0.00    +0.000 HD
ENDBRANCH  10  42
TORSDOF 9
ENDMDL
