MODEL 1
REMARK VINA RESULT:      -8.9      0.000      0.000
REMARK  Name = 
REMARK  4 active torsions:
REMARK  status: ('A' for Active; 'I' for Inactive)
REMARK    1  A    between atoms: C_1  and  C_2
REMARK    2  A    between atoms: C_5  and  C_6
REMARK    3  A    between atoms: C_8  and  C_9
REMARK    4  A    between atoms: N_13  and  C_14
REMARK                            x       y       z     vdW  Elec       q    Type
REMARK                         _______ _______ _______ _____ _____    ______ ____
ROOT
ATOM      1  C   UNL     1       2.413   6.646  19.721  0.00  0.00    +0.000 A 
ATOM      2  C   UNL     1       2.058   5.300  19.937  0.00  0.00    +0.000 A 
ATOM      3  C   UNL     1       3.130   4.546  19.501  0.00  0.00    +0.000 A 
ATOM      4  N   UNL     1       4.080   5.445  19.036  0.00  0.00    +0.000 N 
ATOM      5  N   UNL     1       3.621   6.716  19.152  0.00  0.00    +0.000 NA
ENDROOT
BRANCH   4   6
ATOM      6  C   UNL     1       5.371   5.207  18.468  0.00  0.00    +0.000 A 
ATOM      7  C   UNL     1       6.496   5.316  19.288  0.00  0.00    +0.000 A 
ATOM      8  C   UNL     1       7.747   5.135  18.737  0.00  0.00    +0.000 A 
ATOM      9  N   UNL     1       7.946   4.822  17.450  0.00  0.00    +0.000 NA
ATOM     10  C   UNL     1       6.880   4.662  16.657  0.00  0.00    +0.000 A 
ATOM     11  C   UNL     1       7.147   4.322  15.343  0.00  0.00    +0.000 A 
ATOM     12  C   UNL     1       6.126   4.144  14.418  0.00  0.00    +0.000 A 
ATOM     13 CL   UNL     1       6.500   3.720  12.794  0.00  0.00    +0.000 Cl
ATOM     14  C   UNL     1       4.807   4.318  14.798  0.00  0.00    +0.000 A 
ATOM     15  C   UNL     1       4.518   4.675  16.115  0.00  0.00    +0.000 A 
ATOM     16  C   UNL     1       5.540   4.841  17.095  0.00  0.00    +0.000 A 
ENDBRANCH   4   6
BRANCH   1  21
ATOM     17  C   UNL     1      -0.682  11.347  21.060  0.00  0.00    +0.000 C 
ATOM     18  C   UNL     1       0.138  10.141  20.711  0.00  0.00    +0.000 A 
ATOM     19  C   UNL     1       0.738  10.019  19.454  0.00  0.00    +0.000 A 
ATOM     20  C   UNL     1       1.486   8.882  19.135  0.00  0.00    +0.000 A 
ATOM     21  C   UNL     1       1.645   7.844  20.064  0.00  0.00    +0.000 A 
ATOM     22  C   UNL     1       1.043   7.971  21.322  0.00  0.00    +0.000 A 
ATOM     23  C   UNL     1       0.301   9.111  21.645  0.00  0.00    +0.000 A 
ENDBRANCH   1  21
BRANCH   3  24
ATOM     24  C   UNL     1       3.332   3.100  19.631  0.00  0.00    +0.000 C 
ATOM     25  F   UNL     1       2.273   2.504  20.250  0.00  0.00    +0.000 F 
ATOM     26  F   UNL     1       3.441   2.469  18.434  0.00  0.00    +0.000 F 
ATOM     27  F   UNL     1       4.428   2.788  20.361  0.00  0.00    +0.000 F 
ENDBRANCH   3  24
TORSDOF 3
ENDMDL
MODEL 2
REMARK VINA RESULT:      -8.9      0.040      1.172
REMARK  Name = 
REMARK  4 active torsions:
REMARK  status: ('A' for Active; 'I' for Inactive)
REMARK    1  A    between atoms: C_1  and  C_2
REMARK    2  A    between atoms: C_5  and  C_6
REMARK    3  A    between atoms: C_8  and  C_9
REMARK    4  A    between atoms: N_13  and  C_14
REMARK                            x       y       z     vdW  Elec       q    Type
REMARK                         _______ _______ _______ _____ _____    ______ ____
ROOT
ATOM      1  C   UNL     1       2.413   6.651  19.726  0.00  0.00    +0.000 A 
ATOM      2  C   UNL     1       2.064   5.306  19.953  0.00  0.00    +0.000 A 
ATOM      3  C   UNL     1       3.138   4.553  19.520  0.00  0.00    +0.000 A 
ATOM      4  N   UNL     1       4.083   5.452  19.045  0.00  0.00    +0.000 N 
ATOM      5  N   UNL     1       3.619   6.723  19.152  0.00  0.00    +0.000 NA
ENDROOT
BRANCH   4   6
ATOM      6  C   UNL     1       5.373   5.216  18.475  0.00  0.00    +0.000 A 
ATOM      7  C   UNL     1       6.500   5.327  19.293  0.00  0.00    +0.000 A 
ATOM      8  C   UNL     1       7.750   5.148  18.740  0.00  0.00    +0.000 A 
ATOM      9  N   UNL     1       7.947   4.832  17.454  0.00  0.00    +0.000 NA
ATOM     10  C   UNL     1       6.879   4.669  16.663  0.00  0.00    +0.000 A 
ATOM     11  C   UNL     1       7.145   4.326  15.349  0.00  0.00    +0.000 A 
ATOM     12  C   UNL     1       6.122   4.145  14.426  0.00  0.00    +0.000 A 
ATOM     13 CL   UNL     1       6.494   3.718  12.802  0.00  0.00    +0.000 Cl
ATOM     14  C   UNL     1       4.804   4.317  14.808  0.00  0.00    +0.000 A 
ATOM     15  C   UNL     1       4.517   4.677  16.125  0.00  0.00    +0.000 A 
ATOM     16  C   UNL     1       5.540   4.847  17.103  0.00  0.00    +0.000 A 
ENDBRANCH   4   6
BRANCH   1  21
ATOM     17  C   UNL     1      -0.581  11.418  21.065  0.00  0.00    +0.000 C 
ATOM     18  C   UNL     1       0.177  10.171  20.721  0.00  0.00    +0.000 A 
ATOM     19  C   UNL     1       0.324   9.138  21.652  0.00  0.00    +0.000 A 
ATOM     20  C   UNL     1       1.048   7.987  21.324  0.00  0.00    +0.000 A 
ATOM     21  C   UNL     1       1.641   7.849  20.061  0.00  0.00    +0.000 A 
ATOM     22  C   UNL     1       1.489   8.885  19.131  0.00  0.00    +0.000 A 
ATOM     23  C   UNL     1       0.759  10.032  19.455  0.00  0.00    +0.000 A 
ENDBRANCH   1  21
BRANCH   3  24
ATOM     24  C   UNL     1       3.346   3.109  19.660  0.00  0.00    +0.000 C 
ATOM     25  F   UNL     1       3.439   2.500  18.444  0.00  0.00    +0.000 F 
ATOM     26  F   UNL     1       4.502   2.798  20.300  0.00  0.00    +0.000 F 
ATOM     27  F   UNL     1       2.334   2.497  20.320  0.00  0.00    +0.000 F 
ENDBRANCH   3  24
TORSDOF 3
ENDMDL
MODEL 3
REMARK VINA RESULT:      -8.5      0.809      1.119
REMARK  Name = 
REMARK  4 active torsions:
REMARK  status: ('A' for Active; 'I' for Inactive)
REMARK    1  A    between atoms: C_1  and  C_2
REMARK    2  A    between atoms: C_5  and  C_6
REMARK    3  A    between atoms: C_8  and  C_9
REMARK    4  A    between atoms: N_13  and  C_14
REMARK                            x       y       z     vdW  Elec       q    Type
REMARK                         _______ _______ _______ _____ _____    ______ ____
ROOT
ATOM      1  C   UNL     1       2.506   6.890  18.864  0.00  0.00    +0.000 A 
ATOM      2  C   UNL     1       2.014   5.581  19.027  0.00  0.00    +0.000 A 
ATOM      3  C   UNL     1       3.038   4.736  18.647  0.00  0.00    +0.000 A 
ATOM      4  N   UNL     1       4.097   5.548  18.264  0.00  0.00    +0.000 N 
ATOM      5  N   UNL     1       3.750   6.855  18.376  0.00  0.00    +0.000 NA
ENDROOT
BRANCH   4   6
ATOM      6  C   UNL     1       5.395   5.199  17.778  0.00  0.00    +0.000 A 
ATOM      7  C   UNL     1       6.472   5.212  18.667  0.00  0.00    +0.000 A 
ATOM      8  C   UNL     1       7.735   4.923  18.195  0.00  0.00    +0.000 A 
ATOM      9  N   UNL     1       7.986   4.590  16.922  0.00  0.00    +0.000 NA
ATOM     10  C   UNL     1       6.961   4.520  16.063  0.00  0.00    +0.000 A 
ATOM     11  C   UNL     1       7.280   4.154  14.768  0.00  0.00    +0.000 A 
ATOM     12  C   UNL     1       6.307   4.063  13.780  0.00  0.00    +0.000 A 
ATOM     13 CL   UNL     1       6.745   3.603  12.182  0.00  0.00    +0.000 Cl
ATOM     14  C   UNL     1       4.988   4.350  14.078  0.00  0.00    +0.000 A 
ATOM     15  C   UNL     1       4.648   4.735  15.375  0.00  0.00    +0.000 A 
ATOM     16  C   UNL     1       5.617   4.815  16.417  0.00  0.00    +0.000 A 
ENDBRANCH   4   6
BRANCH   1  21
ATOM     17  C   UNL     1      -0.225  11.838  20.105  0.00  0.00    +0.000 C 
ATOM     18  C   UNL     1       0.501  10.567  19.779  0.00  0.00    +0.000 A 
ATOM     19  C   UNL     1       0.987  10.327  18.490  0.00  0.00    +0.000 A 
ATOM     20  C   UNL     1       1.647   9.130  18.194  0.00  0.00    +0.000 A 
ATOM     21  C   UNL     1       1.830   8.150  19.180  0.00  0.00    +0.000 A 
ATOM     22  C   UNL     1       1.344   8.395  20.470  0.00  0.00    +0.000 A 
ATOM     23  C   UNL     1       0.691   9.595  20.768  0.00  0.00    +0.000 A 
ENDBRANCH   1  21
BRANCH   3  24
ATOM     24  C   UNL     1       3.095   3.275  18.760  0.00  0.00    +0.000 C 
ATOM     25  F   UNL     1       4.179   2.875  19.483  0.00  0.00    +0.000 F 
ATOM     26  F   UNL     1       2.024   2.750  19.408  0.00  0.00    +0.000 F 
ATOM     27  F   UNL     1       3.188   2.662  17.557  0.00  0.00    +0.000 F 
ENDBRANCH   3  24
TORSDOF 3
ENDMDL
MODEL 4
REMARK VINA RESULT:      -8.3      4.485      8.313
REMARK  Name = 
REMARK  4 active torsions:
REMARK  status: ('A' for Active; 'I' for Inactive)
REMARK    1  A    between atoms: C_1  and  C_2
REMARK    2  A    between atoms: C_5  and  C_6
REMARK    3  A    between atoms: C_8  and  C_9
REMARK    4  A    between atoms: N_13  and  C_14
REMARK                            x       y       z     vdW  Elec       q    Type
REMARK                         _______ _______ _______ _____ _____    ______ ____
ROOT
ATOM      1  C   UNL     1       2.525   7.567  18.645  0.00  0.00    +0.000 A 
ATOM      2  C   UNL     1       2.098   7.450  19.982  0.00  0.00    +0.000 A 
ATOM      3  C   UNL     1       1.316   8.561  20.233  0.00  0.00    +0.000 A 
ATOM      4  N   UNL     1       1.303   9.306  19.062  0.00  0.00    +0.000 N 
ATOM      5  N   UNL     1       2.063   8.703  18.113  0.00  0.00    +0.000 NA
ENDROOT
BRANCH   4   6
ATOM      6  C   UNL     1       0.658  10.548  18.769  0.00  0.00    +0.000 A 
ATOM      7  C   UNL     1       1.400  11.728  18.860  0.00  0.00    +0.000 A 
ATOM      8  C   UNL     1       0.773  12.933  18.625  0.00  0.00    +0.000 A 
ATOM      9  N   UNL     1      -0.515  13.037  18.274  0.00  0.00    +0.000 NA
ATOM     10  C   UNL     1      -1.232  11.916  18.130  0.00  0.00    +0.000 A 
ATOM     11  C   UNL     1      -2.551  12.085  17.749  0.00  0.00    +0.000 A 
ATOM     12  C   UNL     1      -3.403  11.000  17.582  0.00  0.00    +0.000 A 
ATOM     13 CL   UNL     1      -5.036  11.253  17.107  0.00  0.00    +0.000 Cl
ATOM     14  C   UNL     1      -2.942   9.716  17.808  0.00  0.00    +0.000 A 
ATOM     15  C   UNL     1      -1.619   9.525  18.207  0.00  0.00    +0.000 A 
ATOM     16  C   UNL     1      -0.712  10.614  18.364  0.00  0.00    +0.000 A 
ENDBRANCH   4   6
BRANCH   1  21
ATOM     17  C   UNL     1       5.753   3.810  15.655  0.00  0.00    +0.000 C 
ATOM     18  C   UNL     1       4.910   4.793  16.411  0.00  0.00    +0.000 A 
ATOM     19  C   UNL     1       5.180   6.163  16.357  0.00  0.00    +0.000 A 
ATOM     20  C   UNL     1       4.398   7.068  17.081  0.00  0.00    +0.000 A 
ATOM     21  C   UNL     1       3.332   6.620  17.874  0.00  0.00    +0.000 A 
ATOM     22  C   UNL     1       3.063   5.246  17.924  0.00  0.00    +0.000 A 
ATOM     23  C   UNL     1       3.841   4.341  17.195  0.00  0.00    +0.000 A 
ENDBRANCH   1  21
BRANCH   3  24
ATOM     24  C   UNL     1       0.516   8.854  21.426  0.00  0.00    +0.000 C 
ATOM     25  F   UNL     1       1.233   8.649  22.568  0.00  0.00    +0.000 F 
ATOM     26  F   UNL     1       0.112  10.148  21.490  0.00  0.00    +0.000 F 
ATOM     27  F   UNL     1      -0.586   8.074  21.521  0.00  0.00    +0.000 F 
ENDBRANCH   3  24
TORSDOF 3
ENDMDL
MODEL 5
REMARK VINA RESULT:      -8.3      4.502      8.357
REMARK  Name = 
REMARK  4 active torsions:
REMARK  status: ('A' for Active; 'I' for Inactive)
REMARK    1  A    between atoms: C_1  and  C_2
REMARK    2  A    between atoms: C_5  and  C_6
REMARK    3  A    between atoms: C_8  and  C_9
REMARK    4  A    between atoms: N_13  and  C_14
REMARK                            x       y       z     vdW  Elec       q    Type
REMARK                         _______ _______ _______ _____ _____    ______ ____
ROOT
ATOM      1  C   UNL     1       2.482   7.595  18.713  0.00  0.00    +0.000 A 
ATOM      2  C   UNL     1       2.043   7.482  20.047  0.00  0.00    +0.000 A 
ATOM      3  C   UNL     1       1.257   8.591  20.286  0.00  0.00    +0.000 A 
ATOM      4  N   UNL     1       1.251   9.331  19.112  0.00  0.00    +0.000 N 
ATOM      5  N   UNL     1       2.021   8.727  18.173  0.00  0.00    +0.000 NA
ENDROOT
BRANCH   4   6
ATOM      6  C   UNL     1       0.606  10.571  18.808  0.00  0.00    +0.000 A 
ATOM      7  C   UNL     1       1.339  11.754  18.914  0.00  0.00    +0.000 A 
ATOM      8  C   UNL     1       0.710  12.957  18.669  0.00  0.00    +0.000 A 
ATOM      9  N   UNL     1      -0.572  13.054  18.295  0.00  0.00    +0.000 NA
ATOM     10  C   UNL     1      -1.280  11.929  18.137  0.00  0.00    +0.000 A 
ATOM     11  C   UNL     1      -2.594  12.092  17.733  0.00  0.00    +0.000 A 
ATOM     12  C   UNL     1      -3.436  11.003  17.551  0.00  0.00    +0.000 A 
ATOM     13 CL   UNL     1      -5.062  11.247  17.047  0.00  0.00    +0.000 Cl
ATOM     14  C   UNL     1      -2.973   9.721  17.784  0.00  0.00    +0.000 A 
ATOM     15  C   UNL     1      -1.656   9.537  18.206  0.00  0.00    +0.000 A 
ATOM     16  C   UNL     1      -0.758  10.630  18.379  0.00  0.00    +0.000 A 
ENDBRANCH   4   6
BRANCH   1  21
ATOM     17  C   UNL     1       5.675   3.865  15.652  0.00  0.00    +0.000 C 
ATOM     18  C   UNL     1       4.854   4.821  16.464  0.00  0.00    +0.000 A 
ATOM     19  C   UNL     1       3.784   4.370  17.243  0.00  0.00    +0.000 A 
ATOM     20  C   UNL     1       3.015   5.274  17.982  0.00  0.00    +0.000 A 
ATOM     21  C   UNL     1       3.299   6.647  17.953  0.00  0.00    +0.000 A 
ATOM     22  C   UNL     1       4.372   7.095  17.173  0.00  0.00    +0.000 A 
ATOM     23  C   UNL     1       5.146   6.190  16.440  0.00  0.00    +0.000 A 
ENDBRANCH   1  21
BRANCH   3  24
ATOM     24  C   UNL     1       0.445   8.886  21.471  0.00  0.00    +0.000 C 
ATOM     25  F   UNL     1      -0.626   8.047  21.562  0.00  0.00    +0.000 F 
ATOM     26  F   UNL     1       1.124   8.719  22.635  0.00  0.00    +0.000 F 
ATOM     27  F   UNL     1      -0.053  10.145  21.464  0.00  0.00    +0.000 F 
ENDBRANCH   3  24
TORSDOF 3
ENDMDL
MODEL 6
REMARK VINA RESULT:      -8.1      4.558      8.517
REMARK  Name = 
REMARK  4 active torsions:
REMARK  status: ('A' for Active; 'I' for Inactive)
REMARK    1  A    between atoms: C_1  and  C_2
REMARK    2  A    between atoms: C_5  and  C_6
REMARK    3  A    between atoms: C_8  and  C_9
REMARK    4  A    between atoms: N_13  and  C_14
REMARK                            x       y       z     vdW  Elec       q    Type
REMARK                         _______ _______ _______ _____ _____    ______ ____
ROOT
ATOM      1  C   UNL     1       2.371   7.643  18.725  0.00  0.00    +0.000 A 
ATOM      2  C   UNL     1       2.088   7.630  20.104  0.00  0.00    +0.000 A 
ATOM      3  C   UNL     1       1.190   8.656  20.321  0.00  0.00    +0.000 A 
ATOM      4  N   UNL     1       0.968   9.253  19.087  0.00  0.00    +0.000 N 
ATOM      5  N   UNL     1       1.713   8.643  18.130  0.00  0.00    +0.000 NA
ENDROOT
BRANCH   4   6
ATOM      6  C   UNL     1       0.137  10.363  18.738  0.00  0.00    +0.000 A 
ATOM      7  C   UNL     1      -1.162  10.115  18.290  0.00  0.00    +0.000 A 
ATOM      8  C   UNL     1      -1.952  11.177  17.905  0.00  0.00    +0.000 A 
ATOM      9  N   UNL     1      -1.553  12.454  17.973  0.00  0.00    +0.000 NA
ATOM     10  C   UNL     1      -0.330  12.719  18.448  0.00  0.00    +0.000 A 
ATOM     11  C   UNL     1       0.019  14.056  18.509  0.00  0.00    +0.000 A 
ATOM     12  C   UNL     1       1.267  14.458  18.968  0.00  0.00    +0.000 A 
ATOM     13 CL   UNL     1       1.663  16.131  19.031  0.00  0.00    +0.000 Cl
ATOM     14  C   UNL     1       2.197  13.515  19.366  0.00  0.00    +0.000 A 
ATOM     15  C   UNL     1       1.869  12.161  19.297  0.00  0.00    +0.000 A 
ATOM     16  C   UNL     1       0.590  11.715  18.855  0.00  0.00    +0.000 A 
ENDBRANCH   4   6
BRANCH   1  21
ATOM     17  C   UNL     1       5.709   4.012  15.700  0.00  0.00    +0.000 C 
ATOM     18  C   UNL     1       4.850   4.943  16.502  0.00  0.00    +0.000 A 
ATOM     19  C   UNL     1       3.782   4.460  17.263  0.00  0.00    +0.000 A 
ATOM     20  C   UNL     1       2.978   5.340  17.994  0.00  0.00    +0.000 A 
ATOM     21  C   UNL     1       3.224   6.720  17.974  0.00  0.00    +0.000 A 
ATOM     22  C   UNL     1       4.297   7.200  17.211  0.00  0.00    +0.000 A 
ATOM     23  C   UNL     1       5.106   6.319  16.487  0.00  0.00    +0.000 A 
ENDBRANCH   1  21
BRANCH   3  24
ATOM     24  C   UNL     1       0.471   8.984  21.556  0.00  0.00    +0.000 C 
ATOM     25  F   UNL     1       1.231   8.725  22.657  0.00  0.00    +0.000 F 
ATOM     26  F   UNL     1       0.149  10.299  21.650  0.00  0.00    +0.000 F 
ATOM     27  F   UNL     1      -0.670   8.270  21.701  0.00  0.00    +0.000 F 
ENDBRANCH   3  24
TORSDOF 3
ENDMDL
MODEL 7
REMARK VINA RESULT:      -8.0      4.582      8.496
REMARK  Name = 
REMARK  4 active torsions:
REMARK  status: ('A' for Active; 'I' for Inactive)
REMARK    1  A    between atoms: C_1  and  C_2
REMARK    2  A    between atoms: C_5  and  C_6
REMARK    3  A    between atoms: C_8  and  C_9
REMARK    4  A    between atoms: N_13  and  C_14
REMARK                            x       y       z     vdW  Elec       q    Type
REMARK                         _______ _______ _______ _____ _____    ______ ____
ROOT
ATOM      1  C   UNL     1       2.284   7.701  18.789  0.00  0.00    +0.000 A 
ATOM      2  C   UNL     1       2.002   7.665  20.168  0.00  0.00    +0.000 A 
ATOM      3  C   UNL     1       1.095   8.680  20.400  0.00  0.00    +0.000 A 
ATOM      4  N   UNL     1       0.867   9.292  19.175  0.00  0.00    +0.000 N 
ATOM      5  N   UNL     1       1.617   8.704  18.209  0.00  0.00    +0.000 NA
ENDROOT
BRANCH   4   6
ATOM      6  C   UNL     1       0.026  10.400  18.842  0.00  0.00    +0.000 A 
ATOM      7  C   UNL     1      -1.299  10.151  18.476  0.00  0.00    +0.000 A 
ATOM      8  C   UNL     1      -2.102  11.209  18.108  0.00  0.00    +0.000 A 
ATOM      9  N   UNL     1      -1.690  12.484  18.116  0.00  0.00    +0.000 NA
ATOM     10  C   UNL     1      -0.440  12.751  18.513  0.00  0.00    +0.000 A 
ATOM     11  C   UNL     1      -0.078  14.086  18.517  0.00  0.00    +0.000 A 
ATOM     12  C   UNL     1       1.197  14.490  18.893  0.00  0.00    +0.000 A 
ATOM     13 CL   UNL     1       1.608  16.160  18.886  0.00  0.00    +0.000 Cl
ATOM     14  C   UNL     1       2.142  13.550  19.264  0.00  0.00    +0.000 A 
ATOM     15  C   UNL     1       1.800  12.197  19.252  0.00  0.00    +0.000 A 
ATOM     16  C   UNL     1       0.494  11.751  18.896  0.00  0.00    +0.000 A 
ENDBRANCH   4   6
BRANCH   1  21
ATOM     17  C   UNL     1       5.727   4.118  15.824  0.00  0.00    +0.000 C 
ATOM     18  C   UNL     1       4.828   5.056  16.573  0.00  0.00    +0.000 A 
ATOM     19  C   UNL     1       5.040   6.437  16.538  0.00  0.00    +0.000 A 
ATOM     20  C   UNL     1       4.206   7.300  17.255  0.00  0.00    +0.000 A 
ATOM     21  C   UNL     1       3.146   6.798  18.024  0.00  0.00    +0.000 A 
ATOM     22  C   UNL     1       2.936   5.413  18.055  0.00  0.00    +0.000 A 
ATOM     23  C   UNL     1       3.766   4.551  17.332  0.00  0.00    +0.000 A 
ENDBRANCH   1  21
BRANCH   3  24
ATOM     24  C   UNL     1       0.373   8.982  21.640  0.00  0.00    +0.000 C 
ATOM     25  F   UNL     1      -0.026  10.285  21.677  0.00  0.00    +0.000 F 
ATOM     26  F   UNL     1      -0.767   8.260  21.781  0.00  0.00    +0.000 F 
ATOM     27  F   UNL     1       1.127   8.780  22.746  0.00  0.00    +0.000 F 
ENDBRANCH   3  24
TORSDOF 3
ENDMDL
MODEL 8
REMARK VINA RESULT:      -7.5      1.213      1.670
REMARK  Name = 
REMARK  4 active torsions:
REMARK  status: ('A' for Active; 'I' for Inactive)
REMARK    1  A    between atoms: C_1  and  C_2
REMARK    2  A    between atoms: C_5  and  C_6
REMARK    3  A    between atoms: C_8  and  C_9
REMARK    4  A    between atoms: N_13  and  C_14
REMARK                            x       y       z     vdW  Elec       q    Type
REMARK                         _______ _______ _______ _____ _____    ______ ____
ROOT
ATOM      1  C   UNL     1       2.421   7.323  18.951  0.00  0.00    +0.000 A 
ATOM      2  C   UNL     1       2.393   6.000  19.431  0.00  0.00    +0.000 A 
ATOM      3  C   UNL     1       3.540   5.396  18.955  0.00  0.00    +0.000 A 
ATOM      4  N   UNL     1       4.210   6.355  18.208  0.00  0.00    +0.000 N 
ATOM      5  N   UNL     1       3.505   7.514  18.193  0.00  0.00    +0.000 NA
ENDROOT
BRANCH   4   6
ATOM      6  C   UNL     1       5.441   6.265  17.487  0.00  0.00    +0.000 A 
ATOM      7  C   UNL     1       6.560   6.938  17.982  0.00  0.00    +0.000 A 
ATOM      8  C   UNL     1       7.738   6.896  17.267  0.00  0.00    +0.000 A 
ATOM      9  N   UNL     1       7.884   6.206  16.128  0.00  0.00    +0.000 NA
ATOM     10  C   UNL     1       6.839   5.512  15.662  0.00  0.00    +0.000 A 
ATOM     11  C   UNL     1       7.054   4.806  14.491  0.00  0.00    +0.000 A 
ATOM     12  C   UNL     1       6.043   4.060  13.898  0.00  0.00    +0.000 A 
ATOM     13 CL   UNL     1       6.351   3.196  12.444  0.00  0.00    +0.000 Cl
ATOM     14  C   UNL     1       4.785   4.019  14.471  0.00  0.00    +0.000 A 
ATOM     15  C   UNL     1       4.544   4.735  15.643  0.00  0.00    +0.000 A 
ATOM     16  C   UNL     1       5.564   5.490  16.291  0.00  0.00    +0.000 A 
ENDBRANCH   4   6
BRANCH   1  21
ATOM     17  C   UNL     1      -1.324  11.607  20.004  0.00  0.00    +0.000 C 
ATOM     18  C   UNL     1      -0.368  10.482  19.738  0.00  0.00    +0.000 A 
ATOM     19  C   UNL     1       0.087   9.664  20.776  0.00  0.00    +0.000 A 
ATOM     20  C   UNL     1       0.991   8.629  20.517  0.00  0.00    +0.000 A 
ATOM     21  C   UNL     1       1.460   8.396  19.217  0.00  0.00    +0.000 A 
ATOM     22  C   UNL     1       1.001   9.216  18.179  0.00  0.00    +0.000 A 
ATOM     23  C   UNL     1       0.090  10.246  18.436  0.00  0.00    +0.000 A 
ENDBRANCH   1  21
BRANCH   3  24
ATOM     24  C   UNL     1       4.063   4.065  19.279  0.00  0.00    +0.000 C 
ATOM     25  F   UNL     1       3.837   3.182  18.265  0.00  0.00    +0.000 F 
ATOM     26  F   UNL     1       5.408   4.053  19.465  0.00  0.00    +0.000 F 
ATOM     27  F   UNL     1       3.491   3.533  20.385  0.00  0.00    +0.000 F 
ENDBRANCH   3  24
TORSDOF 3
ENDMDL
MODEL 9
REMARK VINA RESULT:      -7.3      6.123     10.137
REMARK  Name = 
REMARK  4 active torsions:
REMARK  status: ('A' for Active; 'I' for Inactive)
REMARK    1  A    between atoms: C_1  and  C_2
REMARK    2  A    between atoms: C_5  and  C_6
REMARK    3  A    between atoms: C_8  and  C_9
REMARK    4  A    between atoms: N_13  and  C_14
REMARK                            x       y       z     vdW  Elec       q    Type
REMARK                         _______ _______ _______ _____ _____    ______ ____
ROOT
ATOM      1  C   UNL     1       1.088   9.914  19.074  0.00  0.00    +0.000 A 
ATOM      2  C   UNL     1       1.542  11.138  18.548  0.00  0.00    +0.000 A 
ATOM      3  C   UNL     1       0.584  12.077  18.881  0.00  0.00    +0.000 A 
ATOM      4  N   UNL     1      -0.405  11.399  19.579  0.00  0.00    +0.000 N 
ATOM      5  N   UNL     1      -0.099  10.080  19.667  0.00  0.00    +0.000 NA
ENDROOT
BRANCH   4   6
ATOM      6  C   UNL     1      -1.626  11.881  20.147  0.00  0.00    +0.000 A 
ATOM      7  C   UNL     1      -1.622  12.325  21.471  0.00  0.00    +0.000 A 
ATOM      8  C   UNL     1      -2.805  12.747  22.040  0.00  0.00    +0.000 A 
ATOM      9  N   UNL     1      -3.966  12.790  21.376  0.00  0.00    +0.000 NA
ATOM     10  C   UNL     1      -3.984  12.418  20.090  0.00  0.00    +0.000 A 
ATOM     11  C   UNL     1      -5.209  12.501  19.452  0.00  0.00    +0.000 A 
ATOM     12  C   UNL     1      -5.360  12.128  18.122  0.00  0.00    +0.000 A 
ATOM     13 CL   UNL     1      -6.899  12.247  17.364  0.00  0.00    +0.000 Cl
ATOM     14  C   UNL     1      -4.276  11.651  17.408  0.00  0.00    +0.000 A 
ATOM     15  C   UNL     1      -3.036  11.546  18.038  0.00  0.00    +0.000 A 
ATOM     16  C   UNL     1      -2.840  11.943  19.393  0.00  0.00    +0.000 A 
ENDBRANCH   4   6
BRANCH   1  21
ATOM     17  C   UNL     1       3.816   4.812  18.985  0.00  0.00    +0.000 C 
ATOM     18  C   UNL     1       3.097   6.128  18.991  0.00  0.00    +0.000 A 
ATOM     19  C   UNL     1       3.191   7.003  17.905  0.00  0.00    +0.000 A 
ATOM     20  C   UNL     1       2.529   8.235  17.930  0.00  0.00    +0.000 A 
ATOM     21  C   UNL     1       1.765   8.616  19.042  0.00  0.00    +0.000 A 
ATOM     22  C   UNL     1       1.673   7.735  20.127  0.00  0.00    +0.000 A 
ATOM     23  C   UNL     1       2.328   6.500  20.100  0.00  0.00    +0.000 A 
ENDBRANCH   1  21
BRANCH   3  24
ATOM     24  C   UNL     1       0.638  13.530  18.694  0.00  0.00    +0.000 C 
ATOM     25  F   UNL     1       1.720  13.896  17.949  0.00  0.00    +0.000 F 
ATOM     26  F   UNL     1      -0.435  14.019  18.021  0.00  0.00    +0.000 F 
ATOM     27  F   UNL     1       0.731  14.204  19.864  0.00  0.00    +0.000 F 
ENDBRANCH   3  24
TORSDOF 3
ENDMDL
