MODEL 1
REMARK VINA RESULT:      -8.2      0.000      0.000
REMARK  Name = 
REMARK  8 active torsions:
REMARK  status: ('A' for Active; 'I' for Inactive)
REMARK    1  A    between atoms: C_1  and  C_2
REMARK    2  A    between atoms: C_7  and  O_8
REMARK    3  A    between atoms: O_8  and  C_9
REMARK    4  A    between atoms: C_9  and  C_10
REMARK    5  A    between atoms: C_10  and  C_11
REMARK    6  A    between atoms: C_11  and  C_12
REMARK    7  A    between atoms: C_12  and  N_13
REMARK    8  A    between atoms: C_14  and  C_15
REMARK                            x       y       z     vdW  Elec       q    Type
REMARK                         _______ _______ _______ _____ _____    ______ ____
ROOT
ATOM      1  N   UNL     1       5.961   4.986  16.879  0.00  0.00    +0.000 N 
ATOM      2  C   UNL     1       4.958   4.074  16.491  0.00  0.00    +0.000 A 
ATOM      3  N   UNL     1       4.889   3.586  15.287  0.00  0.00    +0.000 NA
ATOM      4  C   UNL     1       5.824   3.954  14.320  0.00  0.00    +0.000 A 
ATOM      5  C   UNL     1       5.736   3.409  13.036  0.00  0.00    +0.000 A 
ATOM      6  C   UNL     1       6.633   3.790  12.030  0.00  0.00    +0.000 A 
ATOM      7  C   UNL     1       7.634   4.720  12.304  0.00  0.00    +0.000 A 
ATOM      8  C   UNL     1       7.735   5.264  13.582  0.00  0.00    +0.000 A 
ATOM      9  C   UNL     1       6.823   4.877  14.576  0.00  0.00    +0.000 A 
ATOM     10  C   UNL     1       6.852   5.480  15.912  0.00  0.00    +0.000 A 
ATOM     11  O   UNL     1       7.615   6.428  16.080  0.00  0.00    +0.000 OA
ENDROOT
BRANCH   2  12
ATOM     12  C   UNL     1       3.867   3.612  17.428  0.00  0.00    +0.000 A 
ATOM     13  C   UNL     1       4.215   2.902  18.588  0.00  0.00    +0.000 A 
ATOM     14  C   UNL     1       3.238   2.541  19.531  0.00  0.00    +0.000 A 
ATOM     15  C   UNL     1       1.903   2.866  19.312  0.00  0.00    +0.000 A 
ATOM     16 CL   UNL     1       0.698   2.462  20.468  0.00  0.00    +0.000 Cl
ATOM     17  C   UNL     1       1.542   3.569  18.174  0.00  0.00    +0.000 A 
ATOM     18  C   UNL     1       2.530   3.969  17.275  0.00  0.00    +0.000 A 
ENDBRANCH   2  12
BRANCH   1  19
ATOM     19  C   UNL     1       6.004   5.707  18.166  0.00  0.00    +0.000 C 
BRANCH  19  20
ATOM     20  C   UNL     1       4.715   6.459  18.598  0.00  0.00    +0.000 C 
BRANCH  20  21
ATOM     21  C   UNL     1       4.019   7.344  17.569  0.00  0.00    +0.000 C 
BRANCH  21  22
ATOM     22  C   UNL     1       2.554   7.487  17.915  0.00  0.00    +0.000 C 
BRANCH  22  23
ATOM     23  O   UNL     1       2.238   8.823  18.232  0.00  0.00    +0.000 OA
BRANCH  23  30
ATOM     24  C   UNL     1       0.020  11.110  18.572  0.00  0.00    +0.000 C 
ATOM     25  C   UNL     1       0.410  10.002  19.519  0.00  0.00    +0.000 A 
ATOM     26  C   UNL     1      -0.301   9.968  20.732  0.00  0.00    +0.000 A 
ATOM     27  C   UNL     1      -0.027   9.035  21.725  0.00  0.00    +0.000 A 
ATOM     28  C   UNL     1       0.983   8.091  21.524  0.00  0.00    +0.000 A 
ATOM     29  C   UNL     1       1.690   8.101  20.328  0.00  0.00    +0.000 A 
ATOM     30  C   UNL     1       1.418   9.033  19.313  0.00  0.00    +0.000 A 
ENDBRANCH  23  30
ENDBRANCH  22  23
ENDBRANCH  21  22
ENDBRANCH  20  21
ENDBRANCH  19  20
ENDBRANCH   1  19
TORSDOF 7
ENDMDL
MODEL 2
REMARK VINA RESULT:      -8.1      4.143      5.467
REMARK  Name = 
REMARK  8 active torsions:
REMARK  status: ('A' for Active; 'I' for Inactive)
REMARK    1  A    between atoms: C_1  and  C_2
REMARK    2  A    between atoms: C_7  and  O_8
REMARK    3  A    between atoms: O_8  and  C_9
REMARK    4  A    between atoms: C_9  and  C_10
REMARK    5  A    between atoms: C_10  and  C_11
REMARK    6  A    between atoms: C_11  and  C_12
REMARK    7  A    between atoms: C_12  and  N_13
REMARK    8  A    between atoms: C_14  and  C_15
REMARK                            x       y       z     vdW  Elec       q    Type
REMARK                         _______ _______ _______ _____ _____    ______ ____
ROOT
ATOM      1  N   UNL     1       6.206   5.121  16.600  0.00  0.00    +0.000 N 
ATOM      2  C   UNL     1       5.031   4.367  16.407  0.00  0.00    +0.000 A 
ATOM      3  N   UNL     1       4.739   3.812  15.267  0.00  0.00    +0.000 NA
ATOM      4  C   UNL     1       5.596   3.947  14.174  0.00  0.00    +0.000 A 
ATOM      5  C   UNL     1       5.267   3.335  12.962  0.00  0.00    +0.000 A 
ATOM      6  C   UNL     1       6.084   3.487  11.835  0.00  0.00    +0.000 A 
ATOM      7  C   UNL     1       7.247   4.250  11.914  0.00  0.00    +0.000 A 
ATOM      8  C   UNL     1       7.588   4.860  13.119  0.00  0.00    +0.000 A 
ATOM      9  C   UNL     1       6.753   4.704  14.237  0.00  0.00    +0.000 A 
ATOM     10  C   UNL     1       7.041   5.387  15.502  0.00  0.00    +0.000 A 
ATOM     11  O   UNL     1       7.960   6.201  15.500  0.00  0.00    +0.000 OA
ENDROOT
BRANCH   2  12
ATOM     12  C   UNL     1       4.003   4.163  17.494  0.00  0.00    +0.000 A 
ATOM     13  C   UNL     1       4.156   3.095  18.392  0.00  0.00    +0.000 A 
ATOM     14  C   UNL     1       3.274   2.932  19.474  0.00  0.00    +0.000 A 
ATOM     15  C   UNL     1       2.220   3.821  19.654  0.00  0.00    +0.000 A 
ATOM     16 CL   UNL     1       1.150   3.658  20.989  0.00  0.00    +0.000 Cl
ATOM     17  C   UNL     1       2.055   4.883  18.780  0.00  0.00    +0.000 A 
ATOM     18  C   UNL     1       2.971   5.064  17.743  0.00  0.00    +0.000 A 
ENDBRANCH   2  12
BRANCH   1  19
ATOM     19  C   UNL     1       6.521   5.914  17.805  0.00  0.00    +0.000 C 
BRANCH  19  20
ATOM     20  C   UNL     1       7.061   7.353  17.582  0.00  0.00    +0.000 C 
BRANCH  20  21
ATOM     21  C   UNL     1       8.257   7.809  18.410  0.00  0.00    +0.000 C 
BRANCH  21  22
ATOM     22  C   UNL     1       8.445   9.304  18.269  0.00  0.00    +0.000 C 
BRANCH  22  23
ATOM     23  O   UNL     1       9.106   9.838  19.394  0.00  0.00    +0.000 OA
BRANCH  23  30
ATOM     24  C   UNL     1       9.479  12.126  21.605  0.00  0.00    +0.000 C 
ATOM     25  C   UNL     1       9.940  12.094  20.169  0.00  0.00    +0.000 A 
ATOM     26  C   UNL     1      10.633  13.238  19.733  0.00  0.00    +0.000 A 
ATOM     27  C   UNL     1      11.083  13.378  18.425  0.00  0.00    +0.000 A 
ATOM     28  C   UNL     1      10.849  12.355  17.503  0.00  0.00    +0.000 A 
ATOM     29  C   UNL     1      10.176  11.212  17.917  0.00  0.00    +0.000 A 
ATOM     30  C   UNL     1       9.723  11.054  19.236  0.00  0.00    +0.000 A 
ENDBRANCH  23  30
ENDBRANCH  22  23
ENDBRANCH  21  22
ENDBRANCH  20  21
ENDBRANCH  19  20
ENDBRANCH   1  19
TORSDOF 7
ENDMDL
MODEL 3
REMARK VINA RESULT:      -8.0      4.056      5.405
REMARK  Name = 
REMARK  8 active torsions:
REMARK  status: ('A' for Active; 'I' for Inactive)
REMARK    1  A    between atoms: C_1  and  C_2
REMARK    2  A    between atoms: C_7  and  O_8
REMARK    3  A    between atoms: O_8  and  C_9
REMARK    4  A    between atoms: C_9  and  C_10
REMARK    5  A    between atoms: C_10  and  C_11
REMARK    6  A    between atoms: C_11  and  C_12
REMARK    7  A    between atoms: C_12  and  N_13
REMARK    8  A    between atoms: C_14  and  C_15
REMARK                            x       y       z     vdW  Elec       q    Type
REMARK                         _______ _______ _______ _____ _____    ______ ____
ROOT
ATOM      1  N   UNL     1       6.362   5.002  16.454  0.00  0.00    +0.000 N 
ATOM      2  C   UNL     1       5.108   4.372  16.317  0.00  0.00    +0.000 A 
ATOM      3  N   UNL     1       4.701   3.871  15.188  0.00  0.00    +0.000 NA
ATOM      4  C   UNL     1       5.507   3.940  14.051  0.00  0.00    +0.000 A 
ATOM      5  C   UNL     1       5.053   3.386  12.851  0.00  0.00    +0.000 A 
ATOM      6  C   UNL     1       5.819   3.476  11.683  0.00  0.00    +0.000 A 
ATOM      7  C   UNL     1       7.055   4.118  11.706  0.00  0.00    +0.000 A 
ATOM      8  C   UNL     1       7.521   4.668  12.899  0.00  0.00    +0.000 A 
ATOM      9  C   UNL     1       6.736   4.576  14.059  0.00  0.00    +0.000 A 
ATOM     10  C   UNL     1       7.159   5.203  15.315  0.00  0.00    +0.000 A 
ATOM     11  O   UNL     1       8.154   5.922  15.273  0.00  0.00    +0.000 OA
ENDROOT
BRANCH   2  12
ATOM     12  C   UNL     1       4.125   4.252  17.457  0.00  0.00    +0.000 A 
ATOM     13  C   UNL     1       4.248   3.184  18.360  0.00  0.00    +0.000 A 
ATOM     14  C   UNL     1       3.413   3.094  19.486  0.00  0.00    +0.000 A 
ATOM     15  C   UNL     1       2.435   4.058  19.708  0.00  0.00    +0.000 A 
ATOM     16 CL   UNL     1       1.426   3.983  21.097  0.00  0.00    +0.000 Cl
ATOM     17  C   UNL     1       2.301   5.121  18.829  0.00  0.00    +0.000 A 
ATOM     18  C   UNL     1       3.173   5.227  17.746  0.00  0.00    +0.000 A 
ENDBRANCH   2  12
BRANCH   1  19
ATOM     19  C   UNL     1       6.819   5.737  17.650  0.00  0.00    +0.000 C 
BRANCH  19  20
ATOM     20  C   UNL     1       6.874   7.286  17.548  0.00  0.00    +0.000 C 
BRANCH  20  21
ATOM     21  C   UNL     1       8.112   7.999  18.082  0.00  0.00    +0.000 C 
BRANCH  21  22
ATOM     22  C   UNL     1       7.994   9.488  17.844  0.00  0.00    +0.000 C 
BRANCH  22  23
ATOM     23  O   UNL     1       8.679  10.214  18.839  0.00  0.00    +0.000 OA
BRANCH  23  30
ATOM     24  C   UNL     1       7.817  12.823  17.190  0.00  0.00    +0.000 C 
ATOM     25  C   UNL     1       9.175  12.421  17.711  0.00  0.00    +0.000 A 
ATOM     26  C   UNL     1      10.219  13.321  17.430  0.00  0.00    +0.000 A 
ATOM     27  C   UNL     1      11.534  13.070  17.804  0.00  0.00    +0.000 A 
ATOM     28  C   UNL     1      11.843  11.892  18.486  0.00  0.00    +0.000 A 
ATOM     29  C   UNL     1      10.824  10.994  18.784  0.00  0.00    +0.000 A 
ATOM     30  C   UNL     1       9.491  11.239  18.419  0.00  0.00    +0.000 A 
ENDBRANCH  23  30
ENDBRANCH  22  23
ENDBRANCH  21  22
ENDBRANCH  20  21
ENDBRANCH  19  20
ENDBRANCH   1  19
TORSDOF 7
ENDMDL
MODEL 4
REMARK VINA RESULT:      -8.0      0.577      1.373
REMARK  Name = 
REMARK  8 active torsions:
REMARK  status: ('A' for Active; 'I' for Inactive)
REMARK    1  A    between atoms: C_1  and  C_2
REMARK    2  A    between atoms: C_7  and  O_8
REMARK    3  A    between atoms: O_8  and  C_9
REMARK    4  A    between atoms: C_9  and  C_10
REMARK    5  A    between atoms: C_10  and  C_11
REMARK    6  A    between atoms: C_11  and  C_12
REMARK    7  A    between atoms: C_12  and  N_13
REMARK    8  A    between atoms: C_14  and  C_15
REMARK                            x       y       z     vdW  Elec       q    Type
REMARK                         _______ _______ _______ _____ _____    ______ ____
ROOT
ATOM      1  N   UNL     1       6.046   4.985  16.916  0.00  0.00    +0.000 N 
ATOM      2  C   UNL     1       5.030   4.067  16.581  0.00  0.00    +0.000 A 
ATOM      3  N   UNL     1       4.918   3.556  15.390  0.00  0.00    +0.000 NA
ATOM      4  C   UNL     1       5.816   3.906  14.383  0.00  0.00    +0.000 A 
ATOM      5  C   UNL     1       5.683   3.338  13.113  0.00  0.00    +0.000 A 
ATOM      6  C   UNL     1       6.542   3.701  12.069  0.00  0.00    +0.000 A 
ATOM      7  C   UNL     1       7.552   4.635  12.289  0.00  0.00    +0.000 A 
ATOM      8  C   UNL     1       7.699   5.203  13.552  0.00  0.00    +0.000 A 
ATOM      9  C   UNL     1       6.824   4.834  14.586  0.00  0.00    +0.000 A 
ATOM     10  C   UNL     1       6.901   5.461  15.908  0.00  0.00    +0.000 A 
ATOM     11  O   UNL     1       7.669   6.412  16.031  0.00  0.00    +0.000 OA
ENDROOT
BRANCH   2  12
ATOM     12  C   UNL     1       3.975   3.622  17.566  0.00  0.00    +0.000 A 
ATOM     13  C   UNL     1       4.368   3.162  18.833  0.00  0.00    +0.000 A 
ATOM     14  C   UNL     1       3.412   2.832  19.807  0.00  0.00    +0.000 A 
ATOM     15  C   UNL     1       2.055   2.938  19.518  0.00  0.00    +0.000 A 
ATOM     16 CL   UNL     1       0.871   2.570  20.707  0.00  0.00    +0.000 Cl
ATOM     17  C   UNL     1       1.649   3.393  18.274  0.00  0.00    +0.000 A 
ATOM     18  C   UNL     1       2.609   3.769  17.336  0.00  0.00    +0.000 A 
ENDBRANCH   2  12
BRANCH   1  19
ATOM     19  C   UNL     1       6.136   5.730  18.187  0.00  0.00    +0.000 C 
BRANCH  19  20
ATOM     20  C   UNL     1       5.037   6.793  18.462  0.00  0.00    +0.000 C 
BRANCH  20  21
ATOM     21  C   UNL     1       4.052   7.115  17.344  0.00  0.00    +0.000 C 
BRANCH  21  22
ATOM     22  C   UNL     1       2.675   7.360  17.921  0.00  0.00    +0.000 C 
BRANCH  22  23
ATOM     23  O   UNL     1       2.688   8.452  18.812  0.00  0.00    +0.000 OA
BRANCH  23  30
ATOM     24  C   UNL     1       1.328   8.695  21.703  0.00  0.00    +0.000 C 
ATOM     25  C   UNL     1       0.833   9.183  20.364  0.00  0.00    +0.000 A 
ATOM     26  C   UNL     1      -0.412   9.839  20.386  0.00  0.00    +0.000 A 
ATOM     27  C   UNL     1      -1.022  10.307  19.227  0.00  0.00    +0.000 A 
ATOM     28  C   UNL     1      -0.389  10.130  17.995  0.00  0.00    +0.000 A 
ATOM     29  C   UNL     1       0.846   9.494  17.954  0.00  0.00    +0.000 A 
ATOM     30  C   UNL     1       1.478   9.024  19.117  0.00  0.00    +0.000 A 
ENDBRANCH  23  30
ENDBRANCH  22  23
ENDBRANCH  21  22
ENDBRANCH  20  21
ENDBRANCH  19  20
ENDBRANCH   1  19
TORSDOF 7
ENDMDL
MODEL 5
REMARK VINA RESULT:      -8.0      5.114     10.059
REMARK  Name = 
REMARK  8 active torsions:
REMARK  status: ('A' for Active; 'I' for Inactive)
REMARK    1  A    between atoms: C_1  and  C_2
REMARK    2  A    between atoms: C_7  and  O_8
REMARK    3  A    between atoms: O_8  and  C_9
REMARK    4  A    between atoms: C_9  and  C_10
REMARK    5  A    between atoms: C_10  and  C_11
REMARK    6  A    between atoms: C_11  and  C_12
REMARK    7  A    between atoms: C_12  and  N_13
REMARK    8  A    between atoms: C_14  and  C_15
REMARK                            x       y       z     vdW  Elec       q    Type
REMARK                         _______ _______ _______ _____ _____    ______ ____
ROOT
ATOM      1  N   UNL     1      -1.095  11.230  20.051  0.00  0.00    +0.000 N 
ATOM      2  C   UNL     1      -2.232  12.041  20.241  0.00  0.00    +0.000 A 
ATOM      3  N   UNL     1      -3.183  12.124  19.357  0.00  0.00    +0.000 NA
ATOM      4  C   UNL     1      -3.109  11.399  18.167  0.00  0.00    +0.000 A 
ATOM      5  C   UNL     1      -4.147  11.496  17.236  0.00  0.00    +0.000 A 
ATOM      6  C   UNL     1      -4.082  10.815  16.015  0.00  0.00    +0.000 A 
ATOM      7  C   UNL     1      -2.977  10.021  15.716  0.00  0.00    +0.000 A 
ATOM      8  C   UNL     1      -1.940   9.912  16.639  0.00  0.00    +0.000 A 
ATOM      9  C   UNL     1      -2.016  10.608  17.856  0.00  0.00    +0.000 A 
ATOM     10  C   UNL     1      -0.915  10.575  18.822  0.00  0.00    +0.000 A 
ATOM     11  O   UNL     1       0.125  10.027  18.464  0.00  0.00    +0.000 OA
ENDROOT
BRANCH   2  12
ATOM     12  C   UNL     1      -2.429  12.899  21.467  0.00  0.00    +0.000 A 
ATOM     13  C   UNL     1      -2.321  14.294  21.353  0.00  0.00    +0.000 A 
ATOM     14  C   UNL     1      -2.592  15.129  22.450  0.00  0.00    +0.000 A 
ATOM     15  C   UNL     1      -2.952  14.577  23.675  0.00  0.00    +0.000 A 
ATOM     16 CL   UNL     1      -3.319  15.583  25.019  0.00  0.00    +0.000 Cl
ATOM     17  C   UNL     1      -3.067  13.202  23.805  0.00  0.00    +0.000 A 
ATOM     18  C   UNL     1      -2.848  12.390  22.693  0.00  0.00    +0.000 A 
ENDBRANCH   2  12
BRANCH   1  19
ATOM     19  C   UNL     1       0.095  11.214  20.925  0.00  0.00    +0.000 C 
BRANCH  19  20
ATOM     20  C   UNL     1       0.121  10.156  22.063  0.00  0.00    +0.000 C 
BRANCH  20  21
ATOM     21  C   UNL     1       0.009   8.684  21.680  0.00  0.00    +0.000 C 
BRANCH  21  22
ATOM     22  C   UNL     1       1.349   8.170  21.203  0.00  0.00    +0.000 C 
BRANCH  22  23
ATOM     23  O   UNL     1       1.404   6.763  21.274  0.00  0.00    +0.000 OA
BRANCH  23  30
ATOM     24  C   UNL     1       1.163   3.633  20.635  0.00  0.00    +0.000 C 
ATOM     25  C   UNL     1       1.792   4.734  19.818  0.00  0.00    +0.000 A 
ATOM     26  C   UNL     1       2.361   4.328  18.597  0.00  0.00    +0.000 A 
ATOM     27  C   UNL     1       3.017   5.217  17.754  0.00  0.00    +0.000 A 
ATOM     28  C   UNL     1       3.119   6.562  18.116  0.00  0.00    +0.000 A 
ATOM     29  C   UNL     1       2.554   6.986  19.313  0.00  0.00    +0.000 A 
ATOM     30  C   UNL     1       1.882   6.100  20.171  0.00  0.00    +0.000 A 
ENDBRANCH  23  30
ENDBRANCH  22  23
ENDBRANCH  21  22
ENDBRANCH  20  21
ENDBRANCH  19  20
ENDBRANCH   1  19
TORSDOF 7
ENDMDL
MODEL 6
REMARK VINA RESULT:      -7.9      5.074     10.000
REMARK  Name = 
REMARK  8 active torsions:
REMARK  status: ('A' for Active; 'I' for Inactive)
REMARK    1  A    between atoms: C_1  and  C_2
REMARK    2  A    between atoms: C_7  and  O_8
REMARK    3  A    between atoms: O_8  and  C_9
REMARK    4  A    between atoms: C_9  and  C_10
REMARK    5  A    between atoms: C_10  and  C_11
REMARK    6  A    between atoms: C_11  and  C_12
REMARK    7  A    between atoms: C_12  and  N_13
REMARK    8  A    between atoms: C_14  and  C_15
REMARK                            x       y       z     vdW  Elec       q    Type
REMARK                         _______ _______ _______ _____ _____    ______ ____
ROOT
ATOM      1  N   UNL     1      -1.086  11.235  20.101  0.00  0.00    +0.000 N 
ATOM      2  C   UNL     1      -2.200  12.076  20.297  0.00  0.00    +0.000 A 
ATOM      3  N   UNL     1      -3.159  12.176  19.424  0.00  0.00    +0.000 NA
ATOM      4  C   UNL     1      -3.118  11.441  18.239  0.00  0.00    +0.000 A 
ATOM      5  C   UNL     1      -4.163  11.558  17.320  0.00  0.00    +0.000 A 
ATOM      6  C   UNL     1      -4.131  10.866  16.103  0.00  0.00    +0.000 A 
ATOM      7  C   UNL     1      -3.050  10.042  15.797  0.00  0.00    +0.000 A 
ATOM      8  C   UNL     1      -2.005   9.913  16.709  0.00  0.00    +0.000 A 
ATOM      9  C   UNL     1      -2.049  10.620  17.921  0.00  0.00    +0.000 A 
ATOM     10  C   UNL     1      -0.938  10.566  18.875  0.00  0.00    +0.000 A 
ATOM     11  O   UNL     1       0.084   9.989  18.510  0.00  0.00    +0.000 OA
ENDROOT
BRANCH   2  12
ATOM     12  C   UNL     1      -2.360  12.948  21.520  0.00  0.00    +0.000 A 
ATOM     13  C   UNL     1      -2.014  14.307  21.444  0.00  0.00    +0.000 A 
ATOM     14  C   UNL     1      -2.240  15.169  22.529  0.00  0.00    +0.000 A 
ATOM     15  C   UNL     1      -2.793  14.677  23.707  0.00  0.00    +0.000 A 
ATOM     16 CL   UNL     1      -3.107  15.723  25.034  0.00  0.00    +0.000 Cl
ATOM     17  C   UNL     1      -3.144  13.340  23.799  0.00  0.00    +0.000 A 
ATOM     18  C   UNL     1      -2.965  12.509  22.694  0.00  0.00    +0.000 A 
ENDBRANCH   2  12
BRANCH   1  19
ATOM     19  C   UNL     1       0.113  11.195  20.961  0.00  0.00    +0.000 C 
BRANCH  19  20
ATOM     20  C   UNL     1       0.124  10.148  22.109  0.00  0.00    +0.000 C 
BRANCH  20  21
ATOM     21  C   UNL     1       1.291   9.169  22.179  0.00  0.00    +0.000 C 
BRANCH  21  22
ATOM     22  C   UNL     1       1.031   7.986  21.273  0.00  0.00    +0.000 C 
BRANCH  22  23
ATOM     23  O   UNL     1       1.991   7.917  20.244  0.00  0.00    +0.000 OA
BRANCH  23  30
ATOM     24  C   UNL     1       3.673   7.249  17.600  0.00  0.00    +0.000 C 
ATOM     25  C   UNL     1       3.001   6.312  18.573  0.00  0.00    +0.000 A 
ATOM     26  C   UNL     1       3.126   4.943  18.275  0.00  0.00    +0.000 A 
ATOM     27  C   UNL     1       2.524   3.959  19.050  0.00  0.00    +0.000 A 
ATOM     28  C   UNL     1       1.771   4.326  20.167  0.00  0.00    +0.000 A 
ATOM     29  C   UNL     1       1.644   5.673  20.485  0.00  0.00    +0.000 A 
ATOM     30  C   UNL     1       2.252   6.677  19.715  0.00  0.00    +0.000 A 
ENDBRANCH  23  30
ENDBRANCH  22  23
ENDBRANCH  21  22
ENDBRANCH  20  21
ENDBRANCH  19  20
ENDBRANCH   1  19
TORSDOF 7
ENDMDL
MODEL 7
REMARK VINA RESULT:      -7.9      2.819      5.543
REMARK  Name = 
REMARK  8 active torsions:
REMARK  status: ('A' for Active; 'I' for Inactive)
REMARK    1  A    between atoms: C_1  and  C_2
REMARK    2  A    between atoms: C_7  and  O_8
REMARK    3  A    between atoms: O_8  and  C_9
REMARK    4  A    between atoms: C_9  and  C_10
REMARK    5  A    between atoms: C_10  and  C_11
REMARK    6  A    between atoms: C_11  and  C_12
REMARK    7  A    between atoms: C_12  and  N_13
REMARK    8  A    between atoms: C_14  and  C_15
REMARK                            x       y       z     vdW  Elec       q    Type
REMARK                         _______ _______ _______ _____ _____    ______ ____
ROOT
ATOM      1  N   UNL     1       3.516   6.079  18.276  0.00  0.00    +0.000 N 
ATOM      2  C   UNL     1       4.260   4.982  17.796  0.00  0.00    +0.000 A 
ATOM      3  N   UNL     1       4.262   3.827  18.395  0.00  0.00    +0.000 NA
ATOM      4  C   UNL     1       3.512   3.630  19.555  0.00  0.00    +0.000 A 
ATOM      5  C   UNL     1       3.521   2.378  20.176  0.00  0.00    +0.000 A 
ATOM      6  C   UNL     1       2.814   2.160  21.364  0.00  0.00    +0.000 A 
ATOM      7  C   UNL     1       2.082   3.196  21.941  0.00  0.00    +0.000 A 
ATOM      8  C   UNL     1       2.061   4.447  21.327  0.00  0.00    +0.000 A 
ATOM      9  C   UNL     1       2.782   4.650  20.140  0.00  0.00    +0.000 A 
ATOM     10  C   UNL     1       2.842   5.969  19.503  0.00  0.00    +0.000 A 
ATOM     11  O   UNL     1       2.350   6.910  20.121  0.00  0.00    +0.000 OA
ENDROOT
BRANCH   2  12
ATOM     12  C   UNL     1       5.136   5.063  16.569  0.00  0.00    +0.000 A 
ATOM     13  C   UNL     1       6.398   5.671  16.665  0.00  0.00    +0.000 A 
ATOM     14  C   UNL     1       7.279   5.678  15.571  0.00  0.00    +0.000 A 
ATOM     15  C   UNL     1       6.898   5.097  14.365  0.00  0.00    +0.000 A 
ATOM     16 CL   UNL     1       7.974   5.067  13.025  0.00  0.00    +0.000 Cl
ATOM     17  C   UNL     1       5.658   4.489  14.253  0.00  0.00    +0.000 A 
ATOM     18  C   UNL     1       4.817   4.442  15.364  0.00  0.00    +0.000 A 
ENDBRANCH   2  12
BRANCH   1  19
ATOM     19  C   UNL     1       3.596   7.457  17.751  0.00  0.00    +0.000 C 
BRANCH  19  20
ATOM     20  C   UNL     1       2.256   8.150  17.381  0.00  0.00    +0.000 C 
BRANCH  20  21
ATOM     21  C   UNL     1       2.046   9.594  17.824  0.00  0.00    +0.000 C 
BRANCH  21  22
ATOM     22  C   UNL     1       0.991   9.656  18.905  0.00  0.00    +0.000 C 
BRANCH  22  23
ATOM     23  O   UNL     1       1.223  10.738  19.777  0.00  0.00    +0.000 OA
BRANCH  23  30
ATOM     24  C   UNL     1      -0.200  13.325  21.022  0.00  0.00    +0.000 C 
ATOM     25  C   UNL     1      -0.213  11.896  21.505  0.00  0.00    +0.000 A 
ATOM     26  C   UNL     1      -0.956  11.663  22.676  0.00  0.00    +0.000 A 
ATOM     27  C   UNL     1      -1.027  10.408  23.271  0.00  0.00    +0.000 A 
ATOM     28  C   UNL     1      -0.348   9.333  22.694  0.00  0.00    +0.000 A 
ATOM     29  C   UNL     1       0.383   9.540  21.530  0.00  0.00    +0.000 A 
ATOM     30  C   UNL     1       0.458  10.800  20.915  0.00  0.00    +0.000 A 
ENDBRANCH  23  30
ENDBRANCH  22  23
ENDBRANCH  21  22
ENDBRANCH  20  21
ENDBRANCH  19  20
ENDBRANCH   1  19
TORSDOF 7
ENDMDL
MODEL 8
REMARK VINA RESULT:      -7.8      4.819      7.416
REMARK  Name = 
REMARK  8 active torsions:
REMARK  status: ('A' for Active; 'I' for Inactive)
REMARK    1  A    between atoms: C_1  and  C_2
REMARK    2  A    between atoms: C_7  and  O_8
REMARK    3  A    between atoms: O_8  and  C_9
REMARK    4  A    between atoms: C_9  and  C_10
REMARK    5  A    between atoms: C_10  and  C_11
REMARK    6  A    between atoms: C_11  and  C_12
REMARK    7  A    between atoms: C_12  and  N_13
REMARK    8  A    between atoms: C_14  and  C_15
REMARK                            x       y       z     vdW  Elec       q    Type
REMARK                         _______ _______ _______ _____ _____    ______ ____
ROOT
ATOM      1  N   UNL     1       5.812   5.265  17.537  0.00  0.00    +0.000 N 
ATOM      2  C   UNL     1       5.156   4.630  16.463  0.00  0.00    +0.000 A 
ATOM      3  N   UNL     1       3.951   4.152  16.569  0.00  0.00    +0.000 NA
ATOM      4  C   UNL     1       3.252   4.253  17.771  0.00  0.00    +0.000 A 
ATOM      5  C   UNL     1       1.955   3.741  17.859  0.00  0.00    +0.000 A 
ATOM      6  C   UNL     1       1.243   3.789  19.064  0.00  0.00    +0.000 A 
ATOM      7  C   UNL     1       1.824   4.359  20.195  0.00  0.00    +0.000 A 
ATOM      8  C   UNL     1       3.114   4.878  20.118  0.00  0.00    +0.000 A 
ATOM      9  C   UNL     1       3.816   4.815  18.904  0.00  0.00    +0.000 A 
ATOM     10  C   UNL     1       5.200   5.286  18.801  0.00  0.00    +0.000 A 
ATOM     11  O   UNL     1       5.759   5.610  19.845  0.00  0.00    +0.000 OA
ENDROOT
BRANCH   2  12
ATOM     12  C   UNL     1       5.804   4.427  15.114  0.00  0.00    +0.000 A 
ATOM     13  C   UNL     1       5.137   3.668  14.139  0.00  0.00    +0.000 A 
ATOM     14  C   UNL     1       5.663   3.539  12.843  0.00  0.00    +0.000 A 
ATOM     15  C   UNL     1       6.870   4.148  12.516  0.00  0.00    +0.000 A 
ATOM     16 CL   UNL     1       7.513   4.030  10.927  0.00  0.00    +0.000 Cl
ATOM     17  C   UNL     1       7.541   4.904  13.464  0.00  0.00    +0.000 A 
ATOM     18  C   UNL     1       6.979   5.068  14.730  0.00  0.00    +0.000 A 
ENDBRANCH   2  12
BRANCH   1  19
ATOM     19  C   UNL     1       7.230   5.679  17.543  0.00  0.00    +0.000 C 
BRANCH  19  20
ATOM     20  C   UNL     1       7.521   7.201  17.445  0.00  0.00    +0.000 C 
BRANCH  20  21
ATOM     21  C   UNL     1       8.327   7.854  18.563  0.00  0.00    +0.000 C 
BRANCH  21  22
ATOM     22  C   UNL     1       8.515   9.327  18.275  0.00  0.00    +0.000 C 
BRANCH  22  23
ATOM     23  O   UNL     1       8.938  10.017  19.428  0.00  0.00    +0.000 OA
BRANCH  23  30
ATOM     24  C   UNL     1       9.720  12.231  21.609  0.00  0.00    +0.000 C 
ATOM     25  C   UNL     1      10.112  12.134  20.155  0.00  0.00    +0.000 A 
ATOM     26  C   UNL     1      10.939  13.170  19.685  0.00  0.00    +0.000 A 
ATOM     27  C   UNL     1      11.349  13.246  18.359  0.00  0.00    +0.000 A 
ATOM     28  C   UNL     1      10.936  12.266  17.453  0.00  0.00    +0.000 A 
ATOM     29  C   UNL     1      10.127  11.228  17.900  0.00  0.00    +0.000 A 
ATOM     30  C   UNL     1       9.713  11.135  19.239  0.00  0.00    +0.000 A 
ENDBRANCH  23  30
ENDBRANCH  22  23
ENDBRANCH  21  22
ENDBRANCH  20  21
ENDBRANCH  19  20
ENDBRANCH   1  19
TORSDOF 7
ENDMDL
MODEL 9
REMARK VINA RESULT:      -7.8      4.467      7.064
REMARK  Name = 
REMARK  8 active torsions:
REMARK  status: ('A' for Active; 'I' for Inactive)
REMARK    1  A    between atoms: C_1  and  C_2
REMARK    2  A    between atoms: C_7  and  O_8
REMARK    3  A    between atoms: O_8  and  C_9
REMARK    4  A    between atoms: C_9  and  C_10
REMARK    5  A    between atoms: C_10  and  C_11
REMARK    6  A    between atoms: C_11  and  C_12
REMARK    7  A    between atoms: C_12  and  N_13
REMARK    8  A    between atoms: C_14  and  C_15
REMARK                            x       y       z     vdW  Elec       q    Type
REMARK                         _______ _______ _______ _____ _____    ______ ____
ROOT
ATOM      1  N   UNL     1       5.755   4.790  17.785  0.00  0.00    +0.000 N 
ATOM      2  C   UNL     1       4.990   4.444  16.652  0.00  0.00    +0.000 A 
ATOM      3  N   UNL     1       3.739   4.100  16.736  0.00  0.00    +0.000 NA
ATOM      4  C   UNL     1       3.097   4.060  17.973  0.00  0.00    +0.000 A 
ATOM      5  C   UNL     1       1.749   3.696  18.039  0.00  0.00    +0.000 A 
ATOM      6  C   UNL     1       1.088   3.605  19.269  0.00  0.00    +0.000 A 
ATOM      7  C   UNL     1       1.771   3.885  20.451  0.00  0.00    +0.000 A 
ATOM      8  C   UNL     1       3.113   4.255  20.398  0.00  0.00    +0.000 A 
ATOM      9  C   UNL     1       3.763   4.333  19.156  0.00  0.00    +0.000 A 
ATOM     10  C   UNL     1       5.191   4.650  19.064  0.00  0.00    +0.000 A 
ATOM     11  O   UNL     1       5.819   4.709  20.118  0.00  0.00    +0.000 OA
ENDROOT
BRANCH   2  12
ATOM     12  C   UNL     1       5.564   4.418  15.256  0.00  0.00    +0.000 A 
ATOM     13  C   UNL     1       6.769   5.091  14.996  0.00  0.00    +0.000 A 
ATOM     14  C   UNL     1       7.383   5.008  13.735  0.00  0.00    +0.000 A 
ATOM     15  C   UNL     1       6.788   4.271  12.717  0.00  0.00    +0.000 A 
ATOM     16 CL   UNL     1       7.539   4.131  11.178  0.00  0.00    +0.000 Cl
ATOM     17  C   UNL     1       5.600   3.598  12.956  0.00  0.00    +0.000 A 
ATOM     18  C   UNL     1       5.032   3.644  14.228  0.00  0.00    +0.000 A 
ENDBRANCH   2  12
BRANCH   1  19
ATOM     19  C   UNL     1       7.212   5.026  17.789  0.00  0.00    +0.000 C 
BRANCH  19  20
ATOM     20  C   UNL     1       7.713   6.335  18.459  0.00  0.00    +0.000 C 
BRANCH  20  21
ATOM     21  C   UNL     1       7.678   7.622  17.641  0.00  0.00    +0.000 C 
BRANCH  21  22
ATOM     22  C   UNL     1       8.517   8.686  18.313  0.00  0.00    +0.000 C 
BRANCH  22  23
ATOM     23  O   UNL     1       8.028   9.974  18.021  0.00  0.00    +0.000 OA
BRANCH  23  30
ATOM     24  C   UNL     1       7.613  13.016  17.104  0.00  0.00    +0.000 C 
ATOM     25  C   UNL     1       8.752  12.391  17.871  0.00  0.00    +0.000 A 
ATOM     26  C   UNL     1       9.787  13.271  18.234  0.00  0.00    +0.000 A 
ATOM     27  C   UNL     1      10.926  12.838  18.904  0.00  0.00    +0.000 A 
ATOM     28  C   UNL     1      11.057  11.488  19.237  0.00  0.00    +0.000 A 
ATOM     29  C   UNL     1      10.040  10.604  18.897  0.00  0.00    +0.000 A 
ATOM     30  C   UNL     1       8.882  11.029  18.227  0.00  0.00    +0.000 A 
ENDBRANCH  23  30
ENDBRANCH  22  23
ENDBRANCH  21  22
ENDBRANCH  20  21
ENDBRANCH  19  20
ENDBRANCH   1  19
TORSDOF 7
ENDMDL
