MODEL 1
REMARK VINA RESULT:      -7.3      0.000      0.000
REMARK  Name = 
REMARK  12 active torsions:
REMARK  status: ('A' for Active; 'I' for Inactive)
REMARK    1  A    between atoms: C_2  and  C_3
REMARK    2  A    between atoms: C_2  and  C_20
REMARK    3  A    between atoms: C_3  and  C_4
REMARK    4  A    between atoms: C_4  and  C_5
REMARK    5  A    between atoms: C_6  and  C_7
REMARK    6  A    between atoms: C_11  and  C_12
REMARK    7  A    between atoms: C_11  and  C_13
REMARK    8  A    between atoms: C_17  and  C_18
REMARK    9  A    between atoms: C_17  and  O_19
REMARK   10  A    between atoms: C_20  and  O_21
REMARK   11  A    between atoms: C_20  and  C_22
REMARK   12  A    between atoms: C_22  and  O_23
REMARK                            x       y       z     vdW  Elec       q    Type
REMARK                         _______ _______ _______ _____ _____    ______ ____
ROOT
ATOM      1  C   UNL     1       5.553   4.538  16.636  0.00  0.00    +0.000 C 
ATOM      2  C   UNL     1       4.135   4.868  17.339  0.00  0.00    +0.000 C 
ATOM      3  C   UNL     1       3.755   6.350  17.122  0.00  0.00    +0.000 C 
ATOM      4  C   UNL     1       3.005   4.004  16.697  0.00  0.00    +0.000 C 
ATOM      5  C   UNL     1       1.664   4.072  17.442  0.00  0.00    +0.000 C 
ATOM      6  C   UNL     1       1.778   3.714  18.922  0.00  0.00    +0.000 C 
ATOM      7  C   UNL     1       2.869   4.496  19.690  0.00  0.00    +0.000 C 
ATOM      8  C   UNL     1       2.389   5.917  20.039  0.00  0.00    +0.000 C 
ATOM      9  C   UNL     1       3.060   3.770  21.051  0.00  0.00    +0.000 C 
ATOM     10  C   UNL     1       4.199   4.438  18.862  0.00  0.00    +0.000 C 
ATOM     11  C   UNL     1       5.398   5.066  19.586  0.00  0.00    +0.000 C 
ATOM     12  C   UNL     1       6.671   4.540  18.958  0.00  0.00    +0.000 C 
ATOM     13  C   UNL     1       6.815   4.954  17.493  0.00  0.00    +0.000 C 
ATOM     14  C   UNL     1       7.203   6.438  17.410  0.00  0.00    +0.000 C 
ENDROOT
BRANCH  13  15
ATOM     15  O   UNL     1       7.970   4.228  17.042  0.00  0.00    +0.000 OA
ATOM     16  H   UNL     1       8.735   4.497  17.578  0.00  0.00    +0.000 HD
ENDBRANCH  13  15
BRANCH   1  17
ATOM     17  C   UNL     1       5.653   4.967  15.118  0.00  0.00    +0.000 C 
BRANCH  17  18
ATOM     18  C   UNL     1       5.876   3.781  14.152  0.00  0.00    +0.000 C 
BRANCH  18  20
ATOM     19  C   UNL     1       7.541   4.735  12.503  0.00  0.00    +0.000 C 
ATOM     20  C   UNL     1       6.465   3.973  12.762  0.00  0.00    +0.000 C 
BRANCH  20  21
ATOM     21  C   UNL     1       5.685   3.203  11.700  0.00  0.00    +0.000 C 
BRANCH  21  22
ATOM     22  O   UNL     1       4.275   3.381  11.927  0.00  0.00    +0.000 OA
ATOM     23  H   UNL     1       4.131   3.264  12.881  0.00  0.00    +0.000 HD
ENDBRANCH  21  22
BRANCH  21  24
ATOM     24  C   UNL     1       5.894   1.688  11.567  0.00  0.00    +0.000 C 
BRANCH  24  25
ATOM     25  O   UNL     1       7.262   1.419  11.233  0.00  0.00    +0.000 OA
ATOM     26  H   UNL     1       7.262   0.524  10.833  0.00  0.00    +0.000 HD
ENDBRANCH  24  25
ENDBRANCH  21  24
ENDBRANCH  20  21
ENDBRANCH  18  20
ENDBRANCH  17  18
ENDBRANCH   1  17
TORSDOF 8
ENDMDL
MODEL 2
REMARK VINA RESULT:      -7.2      0.627      1.182
REMARK  Name = 
REMARK  12 active torsions:
REMARK  status: ('A' for Active; 'I' for Inactive)
REMARK    1  A    between atoms: C_2  and  C_3
REMARK    2  A    between atoms: C_2  and  C_20
REMARK    3  A    between atoms: C_3  and  C_4
REMARK    4  A    between atoms: C_4  and  C_5
REMARK    5  A    between atoms: C_6  and  C_7
REMARK    6  A    between atoms: C_11  and  C_12
REMARK    7  A    between atoms: C_11  and  C_13
REMARK    8  A    between atoms: C_17  and  C_18
REMARK    9  A    between atoms: C_17  and  O_19
REMARK   10  A    between atoms: C_20  and  O_21
REMARK   11  A    between atoms: C_20  and  C_22
REMARK   12  A    between atoms: C_22  and  O_23
REMARK                            x       y       z     vdW  Elec       q    Type
REMARK                         _______ _______ _______ _____ _____    ______ ____
ROOT
ATOM      1  C   UNL     1       5.572   4.513  16.692  0.00  0.00    +0.000 C 
ATOM      2  C   UNL     1       4.145   4.904  17.345  0.00  0.00    +0.000 C 
ATOM      3  C   UNL     1       3.788   6.373  17.025  0.00  0.00    +0.000 C 
ATOM      4  C   UNL     1       3.016   4.013  16.737  0.00  0.00    +0.000 C 
ATOM      5  C   UNL     1       1.662   4.145  17.449  0.00  0.00    +0.000 C 
ATOM      6  C   UNL     1       1.743   3.882  18.950  0.00  0.00    +0.000 C 
ATOM      7  C   UNL     1       2.829   4.699  19.689  0.00  0.00    +0.000 C 
ATOM      8  C   UNL     1       2.360   6.146  19.936  0.00  0.00    +0.000 C 
ATOM      9  C   UNL     1       2.984   4.060  21.097  0.00  0.00    +0.000 C 
ATOM     10  C   UNL     1       4.174   4.573  18.893  0.00  0.00    +0.000 C 
ATOM     11  C   UNL     1       5.366   5.233  19.598  0.00  0.00    +0.000 C 
ATOM     12  C   UNL     1       6.645   4.653  19.032  0.00  0.00    +0.000 C 
ATOM     13  C   UNL     1       6.822   4.970  17.546  0.00  0.00    +0.000 C 
ATOM     14  C   UNL     1       7.230   6.440  17.375  0.00  0.00    +0.000 C 
ENDROOT
BRANCH  13  15
ATOM     15  O   UNL     1       7.976   4.203  17.166  0.00  0.00    +0.000 OA
ATOM     16  H   UNL     1       8.620   4.799  16.746  0.00  0.00    +0.000 HD
ENDBRANCH  13  15
BRANCH   1  17
ATOM     17  C   UNL     1       5.706   4.842  15.153  0.00  0.00    +0.000 C 
BRANCH  17  18
ATOM     18  C   UNL     1       6.196   3.647  14.304  0.00  0.00    +0.000 C 
BRANCH  18  20
ATOM     19  C   UNL     1       7.219   4.421  12.123  0.00  0.00    +0.000 C 
ATOM     20  C   UNL     1       6.285   3.717  12.786  0.00  0.00    +0.000 C 
BRANCH  20  21
ATOM     21  C   UNL     1       5.188   2.902  12.111  0.00  0.00    +0.000 C 
BRANCH  21  22
ATOM     22  O   UNL     1       5.769   1.724  11.521  0.00  0.00    +0.000 OA
ATOM     23  H   UNL     1       6.724   1.766  11.701  0.00  0.00    +0.000 HD
ENDBRANCH  21  22
BRANCH  21  24
ATOM     24  C   UNL     1       4.348   3.548  11.000  0.00  0.00    +0.000 C 
BRANCH  24  25
ATOM     25  O   UNL     1       3.111   2.837  10.857  0.00  0.00    +0.000 OA
ATOM     26  H   UNL     1       2.725   3.153  10.014  0.00  0.00    +0.000 HD
ENDBRANCH  24  25
ENDBRANCH  21  24
ENDBRANCH  20  21
ENDBRANCH  18  20
ENDBRANCH  17  18
ENDBRANCH   1  17
TORSDOF 8
ENDMDL
MODEL 3
REMARK VINA RESULT:      -7.1      2.015      2.525
REMARK  Name = 
REMARK  12 active torsions:
REMARK  status: ('A' for Active; 'I' for Inactive)
REMARK    1  A    between atoms: C_2  and  C_3
REMARK    2  A    between atoms: C_2  and  C_20
REMARK    3  A    between atoms: C_3  and  C_4
REMARK    4  A    between atoms: C_4  and  C_5
REMARK    5  A    between atoms: C_6  and  C_7
REMARK    6  A    between atoms: C_11  and  C_12
REMARK    7  A    between atoms: C_11  and  C_13
REMARK    8  A    between atoms: C_17  and  C_18
REMARK    9  A    between atoms: C_17  and  O_19
REMARK   10  A    between atoms: C_20  and  O_21
REMARK   11  A    between atoms: C_20  and  C_22
REMARK   12  A    between atoms: C_22  and  O_23
REMARK                            x       y       z     vdW  Elec       q    Type
REMARK                         _______ _______ _______ _____ _____    ______ ____
ROOT
ATOM      1  C   UNL     1       4.450   4.105  17.296  0.00  0.00    +0.000 C 
ATOM      2  C   UNL     1       3.007   3.837  17.977  0.00  0.00    +0.000 C 
ATOM      3  C   UNL     1       1.940   4.777  17.372  0.00  0.00    +0.000 C 
ATOM      4  C   UNL     1       2.545   2.373  17.694  0.00  0.00    +0.000 C 
ATOM      5  C   UNL     1       1.300   1.946  18.484  0.00  0.00    +0.000 C 
ATOM      6  C   UNL     1       1.450   2.133  19.992  0.00  0.00    +0.000 C 
ATOM      7  C   UNL     1       1.909   3.546  20.421  0.00  0.00    +0.000 C 
ATOM      8  C   UNL     1       0.737   4.545  20.383  0.00  0.00    +0.000 C 
ATOM      9  C   UNL     1       2.324   3.441  21.916  0.00  0.00    +0.000 C 
ATOM     10  C   UNL     1       3.148   3.953  19.550  0.00  0.00    +0.000 C 
ATOM     11  C   UNL     1       3.782   5.284  19.973  0.00  0.00    +0.000 C 
ATOM     12  C   UNL     1       5.195   5.340  19.432  0.00  0.00    +0.000 C 
ATOM     13  C   UNL     1       5.235   5.335  17.903  0.00  0.00    +0.000 C 
ATOM     14  C   UNL     1       4.810   6.711  17.370  0.00  0.00    +0.000 C 
ENDROOT
BRANCH  13  15
ATOM     15  O   UNL     1       6.634   5.218  17.596  0.00  0.00    +0.000 OA
ATOM     16  H   UNL     1       6.918   4.307  17.784  0.00  0.00    +0.000 HD
ENDBRANCH  13  15
BRANCH   1  17
ATOM     17  C   UNL     1       4.449   4.075  15.716  0.00  0.00    +0.000 C 
BRANCH  17  18
ATOM     18  C   UNL     1       5.729   3.458  15.107  0.00  0.00    +0.000 C 
BRANCH  18  20
ATOM     19  C   UNL     1       5.652   3.576  12.581  0.00  0.00    +0.000 C 
ATOM     20  C   UNL     1       6.257   3.877  13.743  0.00  0.00    +0.000 C 
BRANCH  20  21
ATOM     21  C   UNL     1       7.554   4.671  13.852  0.00  0.00    +0.000 C 
BRANCH  21  22
ATOM     22  O   UNL     1       7.455   5.592  14.954  0.00  0.00    +0.000 OA
ATOM     23  H   UNL     1       7.144   5.077  15.718  0.00  0.00    +0.000 HD
ENDBRANCH  21  22
BRANCH  21  24
ATOM     24  C   UNL     1       8.024   5.510  12.654  0.00  0.00    +0.000 C 
BRANCH  24  25
ATOM     25  O   UNL     1       9.156   6.301  13.036  0.00  0.00    +0.000 OA
ATOM     26  H   UNL     1       9.289   6.937  12.302  0.00  0.00    +0.000 HD
ENDBRANCH  24  25
ENDBRANCH  21  24
ENDBRANCH  20  21
ENDBRANCH  18  20
ENDBRANCH  17  18
ENDBRANCH   1  17
TORSDOF 8
ENDMDL
MODEL 4
REMARK VINA RESULT:      -7.1      3.725      6.396
REMARK  Name = 
REMARK  12 active torsions:
REMARK  status: ('A' for Active; 'I' for Inactive)
REMARK    1  A    between atoms: C_2  and  C_3
REMARK    2  A    between atoms: C_2  and  C_20
REMARK    3  A    between atoms: C_3  and  C_4
REMARK    4  A    between atoms: C_4  and  C_5
REMARK    5  A    between atoms: C_6  and  C_7
REMARK    6  A    between atoms: C_11  and  C_12
REMARK    7  A    between atoms: C_11  and  C_13
REMARK    8  A    between atoms: C_17  and  C_18
REMARK    9  A    between atoms: C_17  and  O_19
REMARK   10  A    between atoms: C_20  and  O_21
REMARK   11  A    between atoms: C_20  and  C_22
REMARK   12  A    between atoms: C_22  and  O_23
REMARK                            x       y       z     vdW  Elec       q    Type
REMARK                         _______ _______ _______ _____ _____    ______ ____
ROOT
ATOM      1  C   UNL     1       3.717   6.436  17.287  0.00  0.00    +0.000 C 
ATOM      2  C   UNL     1       3.435   5.318  18.421  0.00  0.00    +0.000 C 
ATOM      3  C   UNL     1       4.201   5.658  19.719  0.00  0.00    +0.000 C 
ATOM      4  C   UNL     1       1.915   5.290  18.778  0.00  0.00    +0.000 C 
ATOM      5  C   UNL     1       1.505   4.113  19.675  0.00  0.00    +0.000 C 
ATOM      6  C   UNL     1       1.903   2.754  19.106  0.00  0.00    +0.000 C 
ATOM      7  C   UNL     1       3.392   2.638  18.702  0.00  0.00    +0.000 C 
ATOM      8  C   UNL     1       4.285   2.417  19.937  0.00  0.00    +0.000 C 
ATOM      9  C   UNL     1       3.520   1.342  17.852  0.00  0.00    +0.000 C 
ATOM     10  C   UNL     1       3.771   3.887  17.833  0.00  0.00    +0.000 C 
ATOM     11  C   UNL     1       5.191   3.822  17.257  0.00  0.00    +0.000 C 
ATOM     12  C   UNL     1       5.281   4.777  16.084  0.00  0.00    +0.000 C 
ATOM     13  C   UNL     1       5.074   6.233  16.501  0.00  0.00    +0.000 C 
ATOM     14  C   UNL     1       6.330   6.750  17.218  0.00  0.00    +0.000 C 
ENDROOT
BRANCH  13  15
ATOM     15  O   UNL     1       5.023   6.944  15.253  0.00  0.00    +0.000 OA
ATOM     16  H   UNL     1       4.181   6.738  14.812  0.00  0.00    +0.000 HD
ENDBRANCH  13  15
BRANCH   1  17
ATOM     17  C   UNL     1       3.476   7.926  17.754  0.00  0.00    +0.000 C 
BRANCH  17  18
ATOM     18  C   UNL     1       1.982   8.296  17.898  0.00  0.00    +0.000 C 
BRANCH  18  20
ATOM     19  C   UNL     1       1.490   8.439  20.376  0.00  0.00    +0.000 C 
ATOM     20  C   UNL     1       1.435   8.977  19.145  0.00  0.00    +0.000 C 
BRANCH  20  21
ATOM     21  C   UNL     1       0.815  10.334  18.830  0.00  0.00    +0.000 C 
BRANCH  21  22
ATOM     22  O   UNL     1       0.145  10.264  17.558  0.00  0.00    +0.000 OA
ATOM     23  H   UNL     1      -0.300   9.400  17.526  0.00  0.00    +0.000 HD
ENDBRANCH  21  22
BRANCH  21  24
ATOM     24  C   UNL     1       1.719  11.572  18.753  0.00  0.00    +0.000 C 
BRANCH  24  25
ATOM     25  O   UNL     1       2.322  11.648  17.455  0.00  0.00    +0.000 OA
ATOM     26  H   UNL     1       2.071  10.815  17.003  0.00  0.00    +0.000 HD
ENDBRANCH  24  25
ENDBRANCH  21  24
ENDBRANCH  20  21
ENDBRANCH  18  20
ENDBRANCH  17  18
ENDBRANCH   1  17
TORSDOF 8
ENDMDL
MODEL 5
REMARK VINA RESULT:      -6.9      3.891      6.573
REMARK  Name = 
REMARK  12 active torsions:
REMARK  status: ('A' for Active; 'I' for Inactive)
REMARK    1  A    between atoms: C_2  and  C_3
REMARK    2  A    between atoms: C_2  and  C_20
REMARK    3  A    between atoms: C_3  and  C_4
REMARK    4  A    between atoms: C_4  and  C_5
REMARK    5  A    between atoms: C_6  and  C_7
REMARK    6  A    between atoms: C_11  and  C_12
REMARK    7  A    between atoms: C_11  and  C_13
REMARK    8  A    between atoms: C_17  and  C_18
REMARK    9  A    between atoms: C_17  and  O_19
REMARK   10  A    between atoms: C_20  and  O_21
REMARK   11  A    between atoms: C_20  and  C_22
REMARK   12  A    between atoms: C_22  and  O_23
REMARK                            x       y       z     vdW  Elec       q    Type
REMARK                         _______ _______ _______ _____ _____    ______ ____
ROOT
ATOM      1  C   UNL     1       3.723   6.453  17.267  0.00  0.00    +0.000 C 
ATOM      2  C   UNL     1       3.449   5.338  18.406  0.00  0.00    +0.000 C 
ATOM      3  C   UNL     1       4.229   5.679  19.696  0.00  0.00    +0.000 C 
ATOM      4  C   UNL     1       1.933   5.313  18.778  0.00  0.00    +0.000 C 
ATOM      5  C   UNL     1       1.529   4.139  19.681  0.00  0.00    +0.000 C 
ATOM      6  C   UNL     1       1.920   2.778  19.111  0.00  0.00    +0.000 C 
ATOM      7  C   UNL     1       3.404   2.658  18.692  0.00  0.00    +0.000 C 
ATOM      8  C   UNL     1       4.308   2.438  19.920  0.00  0.00    +0.000 C 
ATOM      9  C   UNL     1       3.522   1.361  17.844  0.00  0.00    +0.000 C 
ATOM     10  C   UNL     1       3.777   3.905  17.818  0.00  0.00    +0.000 C 
ATOM     11  C   UNL     1       5.191   3.836  17.227  0.00  0.00    +0.000 C 
ATOM     12  C   UNL     1       5.272   4.789  16.053  0.00  0.00    +0.000 C 
ATOM     13  C   UNL     1       5.072   6.246  16.469  0.00  0.00    +0.000 C 
ATOM     14  C   UNL     1       6.335   6.762  17.173  0.00  0.00    +0.000 C 
ENDROOT
BRANCH  13  15
ATOM     15  O   UNL     1       5.010   6.955  15.220  0.00  0.00    +0.000 OA
ATOM     16  H   UNL     1       5.877   7.361  15.050  0.00  0.00    +0.000 HD
ENDBRANCH  13  15
BRANCH   1  17
ATOM     17  C   UNL     1       3.488   7.944  17.734  0.00  0.00    +0.000 C 
BRANCH  17  18
ATOM     18  C   UNL     1       1.999   8.358  17.762  0.00  0.00    +0.000 C 
BRANCH  18  20
ATOM     19  C   UNL     1       1.415   8.582  20.214  0.00  0.00    +0.000 C 
ATOM     20  C   UNL     1       1.381   9.065  18.960  0.00  0.00    +0.000 C 
BRANCH  20  21
ATOM     21  C   UNL     1       0.713  10.378  18.566  0.00  0.00    +0.000 C 
BRANCH  21  22
ATOM     22  O   UNL     1       1.111  11.407  19.492  0.00  0.00    +0.000 OA
ATOM     23  H   UNL     1       1.443  12.148  18.956  0.00  0.00    +0.000 HD
ENDBRANCH  21  22
BRANCH  21  24
ATOM     24  C   UNL     1      -0.819  10.452  18.501  0.00  0.00    +0.000 C 
BRANCH  24  25
ATOM     25  O   UNL     1      -1.251  10.267  17.146  0.00  0.00    +0.000 OA
ATOM     26  H   UNL     1      -0.779   9.469  16.829  0.00  0.00    +0.000 HD
ENDBRANCH  24  25
ENDBRANCH  21  24
ENDBRANCH  20  21
ENDBRANCH  18  20
ENDBRANCH  17  18
ENDBRANCH   1  17
TORSDOF 8
ENDMDL
MODEL 6
REMARK VINA RESULT:      -6.7      1.447      1.847
REMARK  Name = 
REMARK  12 active torsions:
REMARK  status: ('A' for Active; 'I' for Inactive)
REMARK    1  A    between atoms: C_2  and  C_3
REMARK    2  A    between atoms: C_2  and  C_20
REMARK    3  A    between atoms: C_3  and  C_4
REMARK    4  A    between atoms: C_4  and  C_5
REMARK    5  A    between atoms: C_6  and  C_7
REMARK    6  A    between atoms: C_11  and  C_12
REMARK    7  A    between atoms: C_11  and  C_13
REMARK    8  A    between atoms: C_17  and  C_18
REMARK    9  A    between atoms: C_17  and  O_19
REMARK   10  A    between atoms: C_20  and  O_21
REMARK   11  A    between atoms: C_20  and  C_22
REMARK   12  A    between atoms: C_22  and  O_23
REMARK                            x       y       z     vdW  Elec       q    Type
REMARK                         _______ _______ _______ _____ _____    ______ ____
ROOT
ATOM      1  C   UNL     1       4.511   4.067  17.303  0.00  0.00    +0.000 C 
ATOM      2  C   UNL     1       3.059   3.817  17.971  0.00  0.00    +0.000 C 
ATOM      3  C   UNL     1       2.010   4.773  17.360  0.00  0.00    +0.000 C 
ATOM      4  C   UNL     1       2.579   2.360  17.681  0.00  0.00    +0.000 C 
ATOM      5  C   UNL     1       1.322   1.948  18.459  0.00  0.00    +0.000 C 
ATOM      6  C   UNL     1       1.461   2.130  19.969  0.00  0.00    +0.000 C 
ATOM      7  C   UNL     1       1.936   3.535  20.406  0.00  0.00    +0.000 C 
ATOM      8  C   UNL     1       0.778   4.550  20.359  0.00  0.00    +0.000 C 
ATOM      9  C   UNL     1       2.336   3.422  21.903  0.00  0.00    +0.000 C 
ATOM     10  C   UNL     1       3.187   3.927  19.546  0.00  0.00    +0.000 C 
ATOM     11  C   UNL     1       3.836   5.249  19.978  0.00  0.00    +0.000 C 
ATOM     12  C   UNL     1       5.254   5.287  19.449  0.00  0.00    +0.000 C 
ATOM     13  C   UNL     1       5.307   5.285  17.921  0.00  0.00    +0.000 C 
ATOM     14  C   UNL     1       4.906   6.668  17.387  0.00  0.00    +0.000 C 
ENDROOT
BRANCH  13  15
ATOM     15  O   UNL     1       6.707   5.150  17.625  0.00  0.00    +0.000 OA
ATOM     16  H   UNL     1       7.033   4.329  18.033  0.00  0.00    +0.000 HD
ENDBRANCH  13  15
BRANCH   1  17
ATOM     17  C   UNL     1       4.523   4.041  15.723  0.00  0.00    +0.000 C 
BRANCH  17  18
ATOM     18  C   UNL     1       5.840   3.498  15.123  0.00  0.00    +0.000 C 
BRANCH  18  20
ATOM     19  C   UNL     1       7.272   5.384  14.232  0.00  0.00    +0.000 C 
ATOM     20  C   UNL     1       6.595   4.240  14.030  0.00  0.00    +0.000 C 
BRANCH  20  21
ATOM     21  C   UNL     1       6.487   3.535  12.682  0.00  0.00    +0.000 C 
BRANCH  21  22
ATOM     22  O   UNL     1       7.279   4.246  11.712  0.00  0.00    +0.000 OA
ATOM     23  H   UNL     1       8.087   3.721  11.576  0.00  0.00    +0.000 HD
ENDBRANCH  21  22
BRANCH  21  24
ATOM     24  C   UNL     1       5.105   3.358  12.037  0.00  0.00    +0.000 C 
BRANCH  24  25
ATOM     25  O   UNL     1       5.071   2.124  11.307  0.00  0.00    +0.000 OA
ATOM     26  H   UNL     1       6.009   1.888  11.151  0.00  0.00    +0.000 HD
ENDBRANCH  24  25
ENDBRANCH  21  24
ENDBRANCH  20  21
ENDBRANCH  18  20
ENDBRANCH  17  18
ENDBRANCH   1  17
TORSDOF 8
ENDMDL
MODEL 7
REMARK VINA RESULT:      -6.7      1.069      1.155
REMARK  Name = 
REMARK  12 active torsions:
REMARK  status: ('A' for Active; 'I' for Inactive)
REMARK    1  A    between atoms: C_2  and  C_3
REMARK    2  A    between atoms: C_2  and  C_20
REMARK    3  A    between atoms: C_3  and  C_4
REMARK    4  A    between atoms: C_4  and  C_5
REMARK    5  A    between atoms: C_6  and  C_7
REMARK    6  A    between atoms: C_11  and  C_12
REMARK    7  A    between atoms: C_11  and  C_13
REMARK    8  A    between atoms: C_17  and  C_18
REMARK    9  A    between atoms: C_17  and  O_19
REMARK   10  A    between atoms: C_20  and  O_21
REMARK   11  A    between atoms: C_20  and  C_22
REMARK   12  A    between atoms: C_22  and  O_23
REMARK                            x       y       z     vdW  Elec       q    Type
REMARK                         _______ _______ _______ _____ _____    ______ ____
ROOT
ATOM      1  C   UNL     1       4.877   4.458  17.005  0.00  0.00    +0.000 C 
ATOM      2  C   UNL     1       3.476   4.641  17.792  0.00  0.00    +0.000 C 
ATOM      3  C   UNL     1       3.011   6.113  17.734  0.00  0.00    +0.000 C 
ATOM      4  C   UNL     1       2.365   3.779  17.114  0.00  0.00    +0.000 C 
ATOM      5  C   UNL     1       1.057   3.702  17.915  0.00  0.00    +0.000 C 
ATOM      6  C   UNL     1       1.255   3.214  19.348  0.00  0.00    +0.000 C 
ATOM      7  C   UNL     1       2.337   3.980  20.144  0.00  0.00    +0.000 C 
ATOM      8  C   UNL     1       1.800   5.333  20.647  0.00  0.00    +0.000 C 
ATOM      9  C   UNL     1       2.625   3.140  21.420  0.00  0.00    +0.000 C 
ATOM     10  C   UNL     1       3.631   4.074  19.263  0.00  0.00    +0.000 C 
ATOM     11  C   UNL     1       4.826   4.697  19.995  0.00  0.00    +0.000 C 
ATOM     12  C   UNL     1       6.096   4.304  19.271  0.00  0.00    +0.000 C 
ATOM     13  C   UNL     1       6.152   4.862  17.848  0.00  0.00    +0.000 C 
ATOM     14  C   UNL     1       6.459   6.366  17.893  0.00  0.00    +0.000 C 
ENDROOT
BRANCH  13  15
ATOM     15  O   UNL     1       7.322   4.247  17.284  0.00  0.00    +0.000 OA
ATOM     16  H   UNL     1       7.241   4.256  16.315  0.00  0.00    +0.000 HD
ENDBRANCH  13  15
BRANCH   1  17
ATOM     17  C   UNL     1       4.887   5.033  15.533  0.00  0.00    +0.000 C 
BRANCH  17  18
ATOM     18  C   UNL     1       5.442   4.042  14.484  0.00  0.00    +0.000 C 
BRANCH  18  20
ATOM     19  C   UNL     1       7.585   5.289  13.982  0.00  0.00    +0.000 C 
ATOM     20  C   UNL     1       6.675   4.357  13.650  0.00  0.00    +0.000 C 
BRANCH  20  21
ATOM     21  C   UNL     1       6.751   3.496  12.393  0.00  0.00    +0.000 C 
BRANCH  21  22
ATOM     22  O   UNL     1       7.247   4.293  11.302  0.00  0.00    +0.000 OA
ATOM     23  H   UNL     1       8.217   4.226  11.330  0.00  0.00    +0.000 HD
ENDBRANCH  21  22
BRANCH  21  24
ATOM     24  C   UNL     1       5.474   2.824  11.867  0.00  0.00    +0.000 C 
BRANCH  24  25
ATOM     25  O   UNL     1       5.765   1.473  11.486  0.00  0.00    +0.000 OA
ATOM     26  H   UNL     1       6.743   1.417  11.451  0.00  0.00    +0.000 HD
ENDBRANCH  24  25
ENDBRANCH  21  24
ENDBRANCH  20  21
ENDBRANCH  18  20
ENDBRANCH  17  18
ENDBRANCH   1  17
TORSDOF 8
ENDMDL
MODEL 8
REMARK VINA RESULT:      -6.7      3.994      6.547
REMARK  Name = 
REMARK  12 active torsions:
REMARK  status: ('A' for Active; 'I' for Inactive)
REMARK    1  A    between atoms: C_2  and  C_3
REMARK    2  A    between atoms: C_2  and  C_20
REMARK    3  A    between atoms: C_3  and  C_4
REMARK    4  A    between atoms: C_4  and  C_5
REMARK    5  A    between atoms: C_6  and  C_7
REMARK    6  A    between atoms: C_11  and  C_12
REMARK    7  A    between atoms: C_11  and  C_13
REMARK    8  A    between atoms: C_17  and  C_18
REMARK    9  A    between atoms: C_17  and  O_19
REMARK   10  A    between atoms: C_20  and  O_21
REMARK   11  A    between atoms: C_20  and  C_22
REMARK   12  A    between atoms: C_22  and  O_23
REMARK                            x       y       z     vdW  Elec       q    Type
REMARK                         _______ _______ _______ _____ _____    ______ ____
ROOT
ATOM      1  C   UNL     1       3.656   6.455  17.311  0.00  0.00    +0.000 C 
ATOM      2  C   UNL     1       3.378   5.324  18.433  0.00  0.00    +0.000 C 
ATOM      3  C   UNL     1       4.113   5.672  19.746  0.00  0.00    +0.000 C 
ATOM      4  C   UNL     1       1.853   5.260  18.762  0.00  0.00    +0.000 C 
ATOM      5  C   UNL     1       1.453   4.068  19.645  0.00  0.00    +0.000 C 
ATOM      6  C   UNL     1       1.892   2.722  19.075  0.00  0.00    +0.000 C 
ATOM      7  C   UNL     1       3.389   2.641  18.697  0.00  0.00    +0.000 C 
ATOM      8  C   UNL     1       4.265   2.432  19.947  0.00  0.00    +0.000 C 
ATOM      9  C   UNL     1       3.562   1.354  17.842  0.00  0.00    +0.000 C 
ATOM     10  C   UNL     1       3.756   3.904  17.843  0.00  0.00    +0.000 C 
ATOM     11  C   UNL     1       5.187   3.874  17.291  0.00  0.00    +0.000 C 
ATOM     12  C   UNL     1       5.277   4.838  16.127  0.00  0.00    +0.000 C 
ATOM     13  C   UNL     1       5.030   6.287  16.548  0.00  0.00    +0.000 C 
ATOM     14  C   UNL     1       6.261   6.827  17.291  0.00  0.00    +0.000 C 
ENDROOT
BRANCH  13  15
ATOM     15  O   UNL     1       4.986   7.004  15.303  0.00  0.00    +0.000 OA
ATOM     16  H   UNL     1       5.098   7.953  15.488  0.00  0.00    +0.000 HD
ENDBRANCH  13  15
BRANCH   1  17
ATOM     17  C   UNL     1       3.373   7.936  17.782  0.00  0.00    +0.000 C 
BRANCH  17  18
ATOM     18  C   UNL     1       1.881   8.336  17.709  0.00  0.00    +0.000 C 
BRANCH  18  20
ATOM     19  C   UNL     1       2.207  10.822  18.045  0.00  0.00    +0.000 C 
ATOM     20  C   UNL     1       1.406   9.743  18.038  0.00  0.00    +0.000 C 
BRANCH  20  21
ATOM     21  C   UNL     1      -0.083   9.781  18.365  0.00  0.00    +0.000 C 
BRANCH  21  22
ATOM     22  O   UNL     1      -0.769  10.555  17.364  0.00  0.00    +0.000 OA
ATOM     23  H   UNL     1      -0.848  11.458  17.718  0.00  0.00    +0.000 HD
ENDBRANCH  21  22
BRANCH  21  24
ATOM     24  C   UNL     1      -0.541  10.354  19.715  0.00  0.00    +0.000 C 
BRANCH  24  25
ATOM     25  O   UNL     1       0.000   9.563  20.781  0.00  0.00    +0.000 OA
ATOM     26  H   UNL     1      -0.122  10.100  21.592  0.00  0.00    +0.000 HD
ENDBRANCH  24  25
ENDBRANCH  21  24
ENDBRANCH  20  21
ENDBRANCH  18  20
ENDBRANCH  17  18
ENDBRANCH   1  17
TORSDOF 8
ENDMDL
MODEL 9
REMARK VINA RESULT:      -6.6      4.240      8.062
REMARK  Name = 
REMARK  12 active torsions:
REMARK  status: ('A' for Active; 'I' for Inactive)
REMARK    1  A    between atoms: C_2  and  C_3
REMARK    2  A    between atoms: C_2  and  C_20
REMARK    3  A    between atoms: C_3  and  C_4
REMARK    4  A    between atoms: C_4  and  C_5
REMARK    5  A    between atoms: C_6  and  C_7
REMARK    6  A    between atoms: C_11  and  C_12
REMARK    7  A    between atoms: C_11  and  C_13
REMARK    8  A    between atoms: C_17  and  C_18
REMARK    9  A    between atoms: C_17  and  O_19
REMARK   10  A    between atoms: C_20  and  O_21
REMARK   11  A    between atoms: C_20  and  C_22
REMARK   12  A    between atoms: C_22  and  O_23
REMARK                            x       y       z     vdW  Elec       q    Type
REMARK                         _______ _______ _______ _____ _____    ______ ____
ROOT
ATOM      1  C   UNL     1       2.533   5.121  20.152  0.00  0.00    +0.000 C 
ATOM      2  C   UNL     1       3.154   5.356  18.677  0.00  0.00    +0.000 C 
ATOM      3  C   UNL     1       2.103   5.037  17.590  0.00  0.00    +0.000 C 
ATOM      4  C   UNL     1       3.561   6.852  18.499  0.00  0.00    +0.000 C 
ATOM      5  C   UNL     1       4.367   7.134  17.223  0.00  0.00    +0.000 C 
ATOM      6  C   UNL     1       5.616   6.266  17.094  0.00  0.00    +0.000 C 
ATOM      7  C   UNL     1       5.362   4.748  17.254  0.00  0.00    +0.000 C 
ATOM      8  C   UNL     1       4.773   4.147  15.964  0.00  0.00    +0.000 C 
ATOM      9  C   UNL     1       6.755   4.082  17.432  0.00  0.00    +0.000 C 
ATOM     10  C   UNL     1       4.493   4.521  18.540  0.00  0.00    +0.000 C 
ATOM     11  C   UNL     1       4.285   3.041  18.884  0.00  0.00    +0.000 C 
ATOM     12  C   UNL     1       3.884   2.934  20.340  0.00  0.00    +0.000 C 
ATOM     13  C   UNL     1       2.545   3.614  20.628  0.00  0.00    +0.000 C 
ATOM     14  C   UNL     1       1.397   2.748  20.088  0.00  0.00    +0.000 C 
ENDROOT
BRANCH  13  15
ATOM     15  O   UNL     1       2.430   3.556  22.060  0.00  0.00    +0.000 OA
ATOM     16  H   UNL     1       3.053   4.195  22.447  0.00  0.00    +0.000 HD
ENDBRANCH  13  15
BRANCH   1  17
ATOM     17  C   UNL     1       1.158   5.855  20.413  0.00  0.00    +0.000 C 
BRANCH  17  18
ATOM     18  C   UNL     1       1.280   7.095  21.327  0.00  0.00    +0.000 C 
BRANCH  18  20
ATOM     19  C   UNL     1       1.156   8.823  19.484  0.00  0.00    +0.000 C 
ATOM     20  C   UNL     1       1.131   8.511  20.791  0.00  0.00    +0.000 C 
BRANCH  20  21
ATOM     21  C   UNL     1       0.958   9.531  21.911  0.00  0.00    +0.000 C 
BRANCH  21  22
ATOM     22  O   UNL     1       2.031   9.381  22.859  0.00  0.00    +0.000 OA
ATOM     23  H   UNL     1       1.985   8.466  23.186  0.00  0.00    +0.000 HD
ENDBRANCH  21  22
BRANCH  21  24
ATOM     24  C   UNL     1      -0.333   9.520  22.743  0.00  0.00    +0.000 C 
BRANCH  24  25
ATOM     25  O   UNL     1      -0.005   9.496  24.139  0.00  0.00    +0.000 OA
ATOM     26  H   UNL     1      -0.852   9.646  24.608  0.00  0.00    +0.000 HD
ENDBRANCH  24  25
ENDBRANCH  21  24
ENDBRANCH  20  21
ENDBRANCH  18  20
ENDBRANCH  17  18
ENDBRANCH   1  17
TORSDOF 8
ENDMDL
