MODEL 1
REMARK VINA RESULT:      -6.5      0.000      0.000
REMARK  Name = 
REMARK  8 active torsions:
REMARK  status: ('A' for Active; 'I' for Inactive)
REMARK    1  A    between atoms: C_2  and  C_3
REMARK    2  A    between atoms: C_3  and  C_4
REMARK    3  A    between atoms: C_5  and  O_6
REMARK    4  A    between atoms: O_6  and  C_7
REMARK    5  A    between atoms: C_12  and  C_13
REMARK    6  A    between atoms: C_13  and  O_15
REMARK    7  A    between atoms: C_22  and  C_23
REMARK    8  A    between atoms: C_23  and  O_25
REMARK                            x       y       z     vdW  Elec       q    Type
REMARK                         _______ _______ _______ _____ _____    ______ ____
ROOT
ATOM      1  C   UNL     1       3.841   4.464  19.328  0.00  0.00    +0.000 A 
ATOM      2  C   UNL     1       2.904   5.146  20.166  0.00  0.00    +0.000 A 
ATOM      3  C   UNL     1       2.468   6.448  19.818  0.00  0.00    +0.000 A 
ATOM      4  C   UNL     1       1.442   7.229  20.565  0.00  0.00    +0.000 A 
ATOM      5  O   UNL     1       0.859   6.847  21.566  0.00  0.00    +0.000 OA
ATOM      6  C   UNL     1       1.086   8.563  20.070  0.00  0.00    +0.000 A 
ATOM      7  C   UNL     1       1.636   9.004  18.942  0.00  0.00    +0.000 A 
ATOM      8  O   UNL     1       2.553   8.294  18.207  0.00  0.00    +0.000 OA
ATOM      9  C   UNL     1       2.964   7.048  18.643  0.00  0.00    +0.000 A 
ATOM     10  C   UNL     1       3.891   6.377  17.825  0.00  0.00    +0.000 A 
ATOM     11  C   UNL     1       4.377   6.975  16.561  0.00  0.00    +0.000 A 
ATOM     12  O   UNL     1       4.037   8.080  16.165  0.00  0.00    +0.000 OA
ATOM     13  C   UNL     1       5.302   6.164  15.750  0.00  0.00    +0.000 A 
ATOM     14  C   UNL     1       5.674   4.959  16.200  0.00  0.00    +0.000 A 
ATOM     15  O   UNL     1       5.238   4.401  17.394  0.00  0.00    +0.000 OA
ATOM     16  C   UNL     1       4.338   5.100  18.170  0.00  0.00    +0.000 A 
ENDROOT
BRANCH   2  17
ATOM     17  O   UNL     1       2.350   4.351  21.140  0.00  0.00    +0.000 OA
ATOM     18  C   UNL     1       1.152   3.632  20.858  0.00  0.00    +0.000 C 
ENDBRANCH   2  17
BRANCH   7  19
ATOM     19  C   UNL     1       1.219  10.348  18.444  0.00  0.00    +0.000 C 
ATOM     20  O   UNL     1       0.248  10.955  18.852  0.00  0.00    +0.000 OA
BRANCH  19  21
ATOM     21  O   UNL     1       2.039  10.812  17.481  0.00  0.00    +0.000 OA
ATOM     22  H   UNL     1       2.996  10.730  17.688  0.00  0.00    +0.000 HD
ENDBRANCH  19  21
ENDBRANCH   7  19
BRANCH  14  23
ATOM     23  C   UNL     1       6.611   4.180  15.356  0.00  0.00    +0.000 C 
ATOM     24  O   UNL     1       6.285   3.487  14.403  0.00  0.00    +0.000 OA
BRANCH  23  25
ATOM     25  O   UNL     1       7.898   4.310  15.761  0.00  0.00    +0.000 OA
ATOM     26  H   UNL     1       8.487   3.645  15.350  0.00  0.00    +0.000 HD
ENDBRANCH  23  25
ENDBRANCH  14  23
BRANCH   1  27
ATOM     27  C   UNL     1       4.296   3.043  19.653  0.00  0.00    +0.000 C 
BRANCH  27  29
ATOM     28  C   UNL     1       2.643   2.249  17.921  0.00  0.00    +0.000 C 
ATOM     29  C   UNL     1       3.624   2.002  18.801  0.00  0.00    +0.000 C 
ENDBRANCH  27  29
ENDBRANCH   1  27
TORSDOF 7
ENDMDL
MODEL 2
REMARK VINA RESULT:      -6.5      5.576     10.778
REMARK  Name = 
REMARK  8 active torsions:
REMARK  status: ('A' for Active; 'I' for Inactive)
REMARK    1  A    between atoms: C_2  and  C_3
REMARK    2  A    between atoms: C_3  and  C_4
REMARK    3  A    between atoms: C_5  and  O_6
REMARK    4  A    between atoms: O_6  and  C_7
REMARK    5  A    between atoms: C_12  and  C_13
REMARK    6  A    between atoms: C_13  and  O_15
REMARK    7  A    between atoms: C_22  and  C_23
REMARK    8  A    between atoms: C_23  and  O_25
REMARK                            x       y       z     vdW  Elec       q    Type
REMARK                         _______ _______ _______ _____ _____    ______ ____
ROOT
ATOM      1  C   UNL     1      -4.270  12.673  20.229  0.00  0.00    +0.000 A 
ATOM      2  C   UNL     1      -4.039  11.911  19.041  0.00  0.00    +0.000 A 
ATOM      3  C   UNL     1      -2.757  11.361  18.797  0.00  0.00    +0.000 A 
ATOM      4  C   UNL     1      -2.412  10.489  17.640  0.00  0.00    +0.000 A 
ATOM      5  O   UNL     1      -3.186  10.149  16.760  0.00  0.00    +0.000 OA
ATOM      6  C   UNL     1      -1.039   9.985  17.533  0.00  0.00    +0.000 A 
ATOM      7  C   UNL     1      -0.168  10.264  18.500  0.00  0.00    +0.000 A 
ATOM      8  O   UNL     1      -0.465  11.029  19.601  0.00  0.00    +0.000 OA
ATOM      9  C   UNL     1      -1.729  11.571  19.739  0.00  0.00    +0.000 A 
ATOM     10  C   UNL     1      -1.958  12.327  20.903  0.00  0.00    +0.000 A 
ATOM     11  C   UNL     1      -0.902  12.508  21.925  0.00  0.00    +0.000 A 
ATOM     12  O   UNL     1       0.225  12.048  21.815  0.00  0.00    +0.000 OA
ATOM     13  C   UNL     1      -1.264  13.269  23.133  0.00  0.00    +0.000 A 
ATOM     14  C   UNL     1      -2.499  13.775  23.236  0.00  0.00    +0.000 A 
ATOM     15  O   UNL     1      -3.488  13.625  22.273  0.00  0.00    +0.000 OA
ATOM     16  C   UNL     1      -3.215  12.886  21.142  0.00  0.00    +0.000 A 
ENDROOT
BRANCH   2  17
ATOM     17  O   UNL     1      -5.184  11.610  18.344  0.00  0.00    +0.000 OA
ATOM     18  C   UNL     1      -5.553  12.415  17.227  0.00  0.00    +0.000 C 
ENDBRANCH   2  17
BRANCH   7  19
ATOM     19  C   UNL     1       1.207   9.698  18.381  0.00  0.00    +0.000 C 
ATOM     20  O   UNL     1       1.642   8.807  19.086  0.00  0.00    +0.000 OA
BRANCH  19  21
ATOM     21  O   UNL     1       1.921  10.292  17.404  0.00  0.00    +0.000 OA
ATOM     22  H   UNL     1       1.839   9.864  16.524  0.00  0.00    +0.000 HD
ENDBRANCH  19  21
ENDBRANCH   7  19
BRANCH  14  23
ATOM     23  C   UNL     1      -2.819  14.539  24.465  0.00  0.00    +0.000 C 
ATOM     24  O   UNL     1      -1.996  15.086  25.184  0.00  0.00    +0.000 OA
BRANCH  23  25
ATOM     25  O   UNL     1      -4.149  14.567  24.721  0.00  0.00    +0.000 OA
ATOM     26  H   UNL     1      -4.687  14.584  23.904  0.00  0.00    +0.000 HD
ENDBRANCH  23  25
ENDBRANCH  14  23
BRANCH   1  27
ATOM     27  C   UNL     1      -5.653  13.241  20.541  0.00  0.00    +0.000 C 
BRANCH  27  29
ATOM     28  C   UNL     1      -7.507  11.581  20.949  0.00  0.00    +0.000 C 
ATOM     29  C   UNL     1      -6.486  12.327  21.396  0.00  0.00    +0.000 C 
ENDBRANCH  27  29
ENDBRANCH   1  27
TORSDOF 7
ENDMDL
MODEL 3
REMARK VINA RESULT:      -6.4      7.788     10.492
REMARK  Name = 
REMARK  8 active torsions:
REMARK  status: ('A' for Active; 'I' for Inactive)
REMARK    1  A    between atoms: C_2  and  C_3
REMARK    2  A    between atoms: C_3  and  C_4
REMARK    3  A    between atoms: C_5  and  O_6
REMARK    4  A    between atoms: O_6  and  C_7
REMARK    5  A    between atoms: C_12  and  C_13
REMARK    6  A    between atoms: C_13  and  O_15
REMARK    7  A    between atoms: C_22  and  C_23
REMARK    8  A    between atoms: C_23  and  O_25
REMARK                            x       y       z     vdW  Elec       q    Type
REMARK                         _______ _______ _______ _____ _____    ______ ____
ROOT
ATOM      1  C   UNL     1      -5.560  12.462  18.153  0.00  0.00    +0.000 A 
ATOM      2  C   UNL     1      -5.553  13.018  19.471  0.00  0.00    +0.000 A 
ATOM      3  C   UNL     1      -4.412  12.857  20.295  0.00  0.00    +0.000 A 
ATOM      4  C   UNL     1      -4.253  13.452  21.651  0.00  0.00    +0.000 A 
ATOM      5  O   UNL     1      -5.085  14.141  22.219  0.00  0.00    +0.000 OA
ATOM      6  C   UNL     1      -3.003  13.205  22.378  0.00  0.00    +0.000 A 
ATOM      7  C   UNL     1      -2.031  12.520  21.781  0.00  0.00    +0.000 A 
ATOM      8  O   UNL     1      -2.128  11.994  20.516  0.00  0.00    +0.000 OA
ATOM      9  C   UNL     1      -3.297  12.154  19.796  0.00  0.00    +0.000 A 
ATOM     10  C   UNL     1      -3.311  11.602  18.502  0.00  0.00    +0.000 A 
ATOM     11  C   UNL     1      -2.126  10.908  17.947  0.00  0.00    +0.000 A 
ATOM     12  O   UNL     1      -1.089  10.745  18.573  0.00  0.00    +0.000 OA
ATOM     13  C   UNL     1      -2.226  10.418  16.562  0.00  0.00    +0.000 A 
ATOM     14  C   UNL     1      -3.371  10.595  15.891  0.00  0.00    +0.000 A 
ATOM     15  O   UNL     1      -4.493  11.227  16.412  0.00  0.00    +0.000 OA
ATOM     16  C   UNL     1      -4.438  11.742  17.689  0.00  0.00    +0.000 A 
ENDROOT
BRANCH   2  17
ATOM     17  O   UNL     1      -6.611  13.856  19.724  0.00  0.00    +0.000 OA
ATOM     18  C   UNL     1      -7.755  13.350  20.408  0.00  0.00    +0.000 C 
ENDBRANCH   2  17
BRANCH   7  19
ATOM     19  C   UNL     1      -0.756  12.325  22.531  0.00  0.00    +0.000 C 
ATOM     20  O   UNL     1      -0.297  13.131  23.319  0.00  0.00    +0.000 OA
BRANCH  19  21
ATOM     21  O   UNL     1      -0.162  11.153  22.232  0.00  0.00    +0.000 OA
ATOM     22  H   UNL     1      -0.782  10.443  21.954  0.00  0.00    +0.000 HD
ENDBRANCH  19  21
ENDBRANCH   7  19
BRANCH  14  23
ATOM     23  C   UNL     1      -3.431  10.081  14.502  0.00  0.00    +0.000 C 
ATOM     24  O   UNL     1      -2.458   9.828  13.806  0.00  0.00    +0.000 OA
BRANCH  23  25
ATOM     25  O   UNL     1      -4.704   9.920  14.068  0.00  0.00    +0.000 OA
ATOM     26  H   UNL     1      -4.787  10.045  13.101  0.00  0.00    +0.000 HD
ENDBRANCH  23  25
ENDBRANCH  14  23
BRANCH   1  27
ATOM     27  C   UNL     1      -6.757  12.656  17.225  0.00  0.00    +0.000 C 
BRANCH  27  29
ATOM     28  C   UNL     1      -7.916  14.738  16.400  0.00  0.00    +0.000 C 
ATOM     29  C   UNL     1      -6.800  14.021  16.597  0.00  0.00    +0.000 C 
ENDBRANCH  27  29
ENDBRANCH   1  27
TORSDOF 7
ENDMDL
MODEL 4
REMARK VINA RESULT:      -6.3      8.332     10.537
REMARK  Name = 
REMARK  8 active torsions:
REMARK  status: ('A' for Active; 'I' for Inactive)
REMARK    1  A    between atoms: C_2  and  C_3
REMARK    2  A    between atoms: C_3  and  C_4
REMARK    3  A    between atoms: C_5  and  O_6
REMARK    4  A    between atoms: O_6  and  C_7
REMARK    5  A    between atoms: C_12  and  C_13
REMARK    6  A    between atoms: C_13  and  O_15
REMARK    7  A    between atoms: C_22  and  C_23
REMARK    8  A    between atoms: C_23  and  O_25
REMARK                            x       y       z     vdW  Elec       q    Type
REMARK                         _______ _______ _______ _____ _____    ______ ____
ROOT
ATOM      1  C   UNL     1      -5.606  12.018  19.899  0.00  0.00    +0.000 A 
ATOM      2  C   UNL     1      -5.790  12.590  21.197  0.00  0.00    +0.000 A 
ATOM      3  C   UNL     1      -4.671  13.079  21.914  0.00  0.00    +0.000 A 
ATOM      4  C   UNL     1      -4.741  13.763  23.236  0.00  0.00    +0.000 A 
ATOM      5  O   UNL     1      -5.765  13.977  23.863  0.00  0.00    +0.000 OA
ATOM      6  C   UNL     1      -3.491  14.225  23.848  0.00  0.00    +0.000 A 
ATOM      7  C   UNL     1      -2.350  14.082  23.179  0.00  0.00    +0.000 A 
ATOM      8  O   UNL     1      -2.255  13.495  21.941  0.00  0.00    +0.000 OA
ATOM      9  C   UNL     1      -3.391  12.998  21.330  0.00  0.00    +0.000 A 
ATOM     10  C   UNL     1      -3.213  12.429  20.055  0.00  0.00    +0.000 A 
ATOM     11  C   UNL     1      -1.882  12.388  19.409  0.00  0.00    +0.000 A 
ATOM     12  O   UNL     1      -0.864  12.810  19.938  0.00  0.00    +0.000 OA
ATOM     13  C   UNL     1      -1.816  11.822  18.050  0.00  0.00    +0.000 A 
ATOM     14  C   UNL     1      -2.936  11.355  17.486  0.00  0.00    +0.000 A 
ATOM     15  O   UNL     1      -4.184  11.373  18.095  0.00  0.00    +0.000 OA
ATOM     16  C   UNL     1      -4.310  11.930  19.349  0.00  0.00    +0.000 A 
ENDROOT
BRANCH   2  17
ATOM     17  O   UNL     1      -7.106  12.800  21.529  0.00  0.00    +0.000 OA
ATOM     18  C   UNL     1      -7.745  14.007  21.123  0.00  0.00    +0.000 C 
ENDBRANCH   2  17
BRANCH   7  19
ATOM     19  C   UNL     1      -1.103  14.604  23.811  0.00  0.00    +0.000 C 
ATOM     20  O   UNL     1      -1.031  14.990  24.962  0.00  0.00    +0.000 OA
BRANCH  19  21
ATOM     21  O   UNL     1      -0.060  14.607  22.957  0.00  0.00    +0.000 OA
ATOM     22  H   UNL     1       0.377  13.734  22.848  0.00  0.00    +0.000 HD
ENDBRANCH  19  21
ENDBRANCH   7  19
BRANCH  14  23
ATOM     23  C   UNL     1      -2.823  10.789  16.121  0.00  0.00    +0.000 C 
ATOM     24  O   UNL     1      -2.349   9.694  15.853  0.00  0.00    +0.000 OA
BRANCH  23  25
ATOM     25  O   UNL     1      -3.305  11.629  15.174  0.00  0.00    +0.000 OA
ATOM     26  H   UNL     1      -2.799  12.465  15.125  0.00  0.00    +0.000 HD
ENDBRANCH  23  25
ENDBRANCH  14  23
BRANCH   1  27
ATOM     27  C   UNL     1      -6.798  11.524  19.083  0.00  0.00    +0.000 C 
BRANCH  27  29
ATOM     28  C   UNL     1      -7.397   9.401  20.305  0.00  0.00    +0.000 C 
ATOM     29  C   UNL     1      -7.010  10.039  19.191  0.00  0.00    +0.000 C 
ENDBRANCH  27  29
ENDBRANCH   1  27
TORSDOF 7
ENDMDL
MODEL 5
REMARK VINA RESULT:      -6.3      4.937      8.609
REMARK  Name = 
REMARK  8 active torsions:
REMARK  status: ('A' for Active; 'I' for Inactive)
REMARK    1  A    between atoms: C_2  and  C_3
REMARK    2  A    between atoms: C_3  and  C_4
REMARK    3  A    between atoms: C_5  and  O_6
REMARK    4  A    between atoms: O_6  and  C_7
REMARK    5  A    between atoms: C_12  and  C_13
REMARK    6  A    between atoms: C_13  and  O_15
REMARK    7  A    between atoms: C_22  and  C_23
REMARK    8  A    between atoms: C_23  and  O_25
REMARK                            x       y       z     vdW  Elec       q    Type
REMARK                         _______ _______ _______ _____ _____    ______ ____
ROOT
ATOM      1  C   UNL     1      -2.787  10.841  18.298  0.00  0.00    +0.000 A 
ATOM      2  C   UNL     1      -3.800  11.721  18.793  0.00  0.00    +0.000 A 
ATOM      3  C   UNL     1      -3.531  12.542  19.915  0.00  0.00    +0.000 A 
ATOM      4  C   UNL     1      -4.474  13.550  20.476  0.00  0.00    +0.000 A 
ATOM      5  O   UNL     1      -5.590  13.786  20.043  0.00  0.00    +0.000 OA
ATOM      6  C   UNL     1      -4.044  14.336  21.637  0.00  0.00    +0.000 A 
ATOM      7  C   UNL     1      -2.810  14.173  22.109  0.00  0.00    +0.000 A 
ATOM      8  O   UNL     1      -1.902  13.284  21.589  0.00  0.00    +0.000 OA
ATOM      9  C   UNL     1      -2.261  12.482  20.523  0.00  0.00    +0.000 A 
ATOM     10  C   UNL     1      -1.268  11.611  20.037  0.00  0.00    +0.000 A 
ATOM     11  C   UNL     1       0.087  11.578  20.633  0.00  0.00    +0.000 A 
ATOM     12  O   UNL     1       0.419  12.269  21.585  0.00  0.00    +0.000 OA
ATOM     13  C   UNL     1       1.068  10.671  20.013  0.00  0.00    +0.000 A 
ATOM     14  C   UNL     1       0.688   9.913  18.977  0.00  0.00    +0.000 A 
ATOM     15  O   UNL     1      -0.587   9.924  18.427  0.00  0.00    +0.000 OA
ATOM     16  C   UNL     1      -1.532  10.785  18.941  0.00  0.00    +0.000 A 
ENDROOT
BRANCH   2  17
ATOM     17  O   UNL     1      -4.892  11.828  17.967  0.00  0.00    +0.000 OA
ATOM     18  C   UNL     1      -6.049  11.039  18.233  0.00  0.00    +0.000 C 
ENDBRANCH   2  17
BRANCH   7  19
ATOM     19  C   UNL     1      -2.390  15.020  23.263  0.00  0.00    +0.000 C 
ATOM     20  O   UNL     1      -2.906  16.082  23.554  0.00  0.00    +0.000 OA
BRANCH  19  21
ATOM     21  O   UNL     1      -1.364  14.477  23.948  0.00  0.00    +0.000 OA
ATOM     22  H   UNL     1      -0.787  13.887  23.414  0.00  0.00    +0.000 HD
ENDBRANCH  19  21
ENDBRANCH   7  19
BRANCH  14  23
ATOM     23  C   UNL     1       1.704   9.010  18.388  0.00  0.00    +0.000 C 
ATOM     24  O   UNL     1       2.179   9.126  17.267  0.00  0.00    +0.000 OA
BRANCH  23  25
ATOM     25  O   UNL     1       2.061   8.013  19.234  0.00  0.00    +0.000 OA
ATOM     26  H   UNL     1       2.982   7.716  19.094  0.00  0.00    +0.000 HD
ENDBRANCH  23  25
ENDBRANCH  14  23
BRANCH   1  27
ATOM     27  C   UNL     1      -3.031   9.977  17.064  0.00  0.00    +0.000 C 
BRANCH  27  29
ATOM     28  C   UNL     1      -3.013  10.227  14.555  0.00  0.00    +0.000 C 
ATOM     29  C   UNL     1      -2.697  10.679  15.777  0.00  0.00    +0.000 C 
ENDBRANCH  27  29
ENDBRANCH   1  27
TORSDOF 7
ENDMDL
MODEL 6
REMARK VINA RESULT:      -6.3      6.180      9.275
REMARK  Name = 
REMARK  8 active torsions:
REMARK  status: ('A' for Active; 'I' for Inactive)
REMARK    1  A    between atoms: C_2  and  C_3
REMARK    2  A    between atoms: C_3  and  C_4
REMARK    3  A    between atoms: C_5  and  O_6
REMARK    4  A    between atoms: O_6  and  C_7
REMARK    5  A    between atoms: C_12  and  C_13
REMARK    6  A    between atoms: C_13  and  O_15
REMARK    7  A    between atoms: C_22  and  C_23
REMARK    8  A    between atoms: C_23  and  O_25
REMARK                            x       y       z     vdW  Elec       q    Type
REMARK                         _______ _______ _______ _____ _____    ______ ____
ROOT
ATOM      1  C   UNL     1      -2.958  11.785  18.352  0.00  0.00    +0.000 A 
ATOM      2  C   UNL     1      -4.174  12.095  19.036  0.00  0.00    +0.000 A 
ATOM      3  C   UNL     1      -4.147  12.385  20.422  0.00  0.00    +0.000 A 
ATOM      4  C   UNL     1      -5.330  12.795  21.229  0.00  0.00    +0.000 A 
ATOM      5  O   UNL     1      -6.464  12.924  20.798  0.00  0.00    +0.000 OA
ATOM      6  C   UNL     1      -5.138  13.075  22.656  0.00  0.00    +0.000 A 
ATOM      7  C   UNL     1      -3.911  13.021  23.167  0.00  0.00    +0.000 A 
ATOM      8  O   UNL     1      -2.792  12.687  22.443  0.00  0.00    +0.000 OA
ATOM      9  C   UNL     1      -2.913  12.369  21.104  0.00  0.00    +0.000 A 
ATOM     10  C   UNL     1      -1.719  12.057  20.428  0.00  0.00    +0.000 A 
ATOM     11  C   UNL     1      -0.411  12.089  21.121  0.00  0.00    +0.000 A 
ATOM     12  O   UNL     1      -0.285  12.355  22.308  0.00  0.00    +0.000 OA
ATOM     13  C   UNL     1       0.784  11.802  20.308  0.00  0.00    +0.000 A 
ATOM     14  C   UNL     1       0.631  11.503  19.013  0.00  0.00    +0.000 A 
ATOM     15  O   UNL     1      -0.594  11.451  18.361  0.00  0.00    +0.000 OA
ATOM     16  C   UNL     1      -1.740  11.753  19.065  0.00  0.00    +0.000 A 
ENDROOT
BRANCH   2  17
ATOM     17  O   UNL     1      -5.247  12.289  18.200  0.00  0.00    +0.000 OA
ATOM     18  C   UNL     1      -6.184  11.232  18.011  0.00  0.00    +0.000 C 
ENDBRANCH   2  17
BRANCH   7  19
ATOM     19  C   UNL     1      -3.744  13.355  24.612  0.00  0.00    +0.000 C 
ATOM     20  O   UNL     1      -3.097  14.298  25.024  0.00  0.00    +0.000 OA
BRANCH  19  21
ATOM     21  O   UNL     1      -4.390  12.485  25.414  0.00  0.00    +0.000 OA
ATOM     22  H   UNL     1      -4.224  11.540  25.204  0.00  0.00    +0.000 HD
ENDBRANCH  19  21
ENDBRANCH   7  19
BRANCH  14  23
ATOM     23  C   UNL     1       1.858  11.214  18.233  0.00  0.00    +0.000 C 
ATOM     24  O   UNL     1       2.324  10.099  18.047  0.00  0.00    +0.000 OA
BRANCH  23  25
ATOM     25  O   UNL     1       2.431  12.338  17.739  0.00  0.00    +0.000 OA
ATOM     26  H   UNL     1       2.701  12.240  16.804  0.00  0.00    +0.000 HD
ENDBRANCH  23  25
ENDBRANCH  14  23
BRANCH   1  27
ATOM     27  C   UNL     1      -2.949  11.511  16.850  0.00  0.00    +0.000 C 
BRANCH  27  29
ATOM     28  C   UNL     1      -3.053   9.545  15.275  0.00  0.00    +0.000 C 
ATOM     29  C   UNL     1      -3.001  10.046  16.518  0.00  0.00    +0.000 C 
ENDBRANCH  27  29
ENDBRANCH   1  27
TORSDOF 7
ENDMDL
MODEL 7
REMARK VINA RESULT:      -6.3      6.414      9.568
REMARK  Name = 
REMARK  8 active torsions:
REMARK  status: ('A' for Active; 'I' for Inactive)
REMARK    1  A    between atoms: C_2  and  C_3
REMARK    2  A    between atoms: C_3  and  C_4
REMARK    3  A    between atoms: C_5  and  O_6
REMARK    4  A    between atoms: O_6  and  C_7
REMARK    5  A    between atoms: C_12  and  C_13
REMARK    6  A    between atoms: C_13  and  O_15
REMARK    7  A    between atoms: C_22  and  C_23
REMARK    8  A    between atoms: C_23  and  O_25
REMARK                            x       y       z     vdW  Elec       q    Type
REMARK                         _______ _______ _______ _____ _____    ______ ____
ROOT
ATOM      1  C   UNL     1      -0.562  12.348  19.648  0.00  0.00    +0.000 A 
ATOM      2  C   UNL     1      -0.498  12.863  20.980  0.00  0.00    +0.000 A 
ATOM      3  C   UNL     1      -1.693  13.080  21.708  0.00  0.00    +0.000 A 
ATOM      4  C   UNL     1      -1.754  13.539  23.124  0.00  0.00    +0.000 A 
ATOM      5  O   UNL     1      -0.787  13.790  23.825  0.00  0.00    +0.000 OA
ATOM      6  C   UNL     1      -3.072  13.705  23.746  0.00  0.00    +0.000 A 
ATOM      7  C   UNL     1      -4.161  13.380  23.054  0.00  0.00    +0.000 A 
ATOM      8  O   UNL     1      -4.138  12.914  21.762  0.00  0.00    +0.000 OA
ATOM      9  C   UNL     1      -2.930  12.777  21.105  0.00  0.00    +0.000 A 
ATOM     10  C   UNL     1      -2.990  12.277  19.791  0.00  0.00    +0.000 A 
ATOM     11  C   UNL     1      -4.280  11.904  19.167  0.00  0.00    +0.000 A 
ATOM     12  O   UNL     1      -5.359  12.030  19.727  0.00  0.00    +0.000 OA
ATOM     13  C   UNL     1      -4.226  11.336  17.809  0.00  0.00    +0.000 A 
ATOM     14  C   UNL     1      -3.038  11.212  17.204  0.00  0.00    +0.000 A 
ATOM     15  O   UNL     1      -1.827  11.578  17.776  0.00  0.00    +0.000 OA
ATOM     16  C   UNL     1      -1.817  12.076  19.061  0.00  0.00    +0.000 A 
ENDROOT
BRANCH   2  17
ATOM     17  O   UNL     1       0.773  12.894  21.501  0.00  0.00    +0.000 OA
ATOM     18  C   UNL     1       1.538  14.093  21.404  0.00  0.00    +0.000 C 
ENDBRANCH   2  17
BRANCH   7  19
ATOM     19  C   UNL     1      -5.483  13.519  23.733  0.00  0.00    +0.000 C 
ATOM     20  O   UNL     1      -6.085  14.569  23.845  0.00  0.00    +0.000 OA
BRANCH  19  21
ATOM     21  O   UNL     1      -5.934  12.344  24.216  0.00  0.00    +0.000 OA
ATOM     22  H   UNL     1      -5.784  12.217  25.178  0.00  0.00    +0.000 HD
ENDBRANCH  19  21
ENDBRANCH   7  19
BRANCH  14  23
ATOM     23  C   UNL     1      -3.030  10.643  15.835  0.00  0.00    +0.000 C 
ATOM     24  O   UNL     1      -2.691   9.502  15.553  0.00  0.00    +0.000 OA
BRANCH  23  25
ATOM     25  O   UNL     1      -3.440  11.536  14.903  0.00  0.00    +0.000 OA
ATOM     26  H   UNL     1      -2.870  12.331  14.873  0.00  0.00    +0.000 HD
ENDBRANCH  23  25
ENDBRANCH  14  23
BRANCH   1  27
ATOM     27  C   UNL     1       0.710  12.061  18.854  0.00  0.00    +0.000 C 
BRANCH  27  29
ATOM     28  C   UNL     1       1.361   9.771  18.021  0.00  0.00    +0.000 C 
ATOM     29  C   UNL     1       1.203  10.651  19.021  0.00  0.00    +0.000 C 
ENDBRANCH  27  29
ENDBRANCH   1  27
TORSDOF 7
ENDMDL
MODEL 8
REMARK VINA RESULT:      -6.2      4.991      8.215
REMARK  Name = 
REMARK  8 active torsions:
REMARK  status: ('A' for Active; 'I' for Inactive)
REMARK    1  A    between atoms: C_2  and  C_3
REMARK    2  A    between atoms: C_3  and  C_4
REMARK    3  A    between atoms: C_5  and  O_6
REMARK    4  A    between atoms: O_6  and  C_7
REMARK    5  A    between atoms: C_12  and  C_13
REMARK    6  A    between atoms: C_13  and  O_15
REMARK    7  A    between atoms: C_22  and  C_23
REMARK    8  A    between atoms: C_23  and  O_25
REMARK                            x       y       z     vdW  Elec       q    Type
REMARK                         _______ _______ _______ _____ _____    ______ ____
ROOT
ATOM      1  C   UNL     1      -0.473  10.016  18.523  0.00  0.00    +0.000 A 
ATOM      2  C   UNL     1      -0.202  10.361  19.884  0.00  0.00    +0.000 A 
ATOM      3  C   UNL     1      -1.123  11.162  20.603  0.00  0.00    +0.000 A 
ATOM      4  C   UNL     1      -0.992  11.524  22.042  0.00  0.00    +0.000 A 
ATOM      5  O   UNL     1      -0.076  11.183  22.772  0.00  0.00    +0.000 OA
ATOM      6  C   UNL     1      -2.038  12.353  22.650  0.00  0.00    +0.000 A 
ATOM      7  C   UNL     1      -3.098  12.697  21.922  0.00  0.00    +0.000 A 
ATOM      8  O   UNL     1      -3.271  12.344  20.605  0.00  0.00    +0.000 OA
ATOM      9  C   UNL     1      -2.299  11.601  19.962  0.00  0.00    +0.000 A 
ATOM     10  C   UNL     1      -2.559  11.265  18.621  0.00  0.00    +0.000 A 
ATOM     11  C   UNL     1      -3.816  11.675  17.954  0.00  0.00    +0.000 A 
ATOM     12  O   UNL     1      -4.680  12.344  18.501  0.00  0.00    +0.000 OA
ATOM     13  C   UNL     1      -4.014  11.223  16.566  0.00  0.00    +0.000 A 
ATOM     14  C   UNL     1      -3.055  10.500  15.975  0.00  0.00    +0.000 A 
ATOM     15  O   UNL     1      -1.866  10.129  16.588  0.00  0.00    +0.000 OA
ATOM     16  C   UNL     1      -1.648  10.490  17.900  0.00  0.00    +0.000 A 
ENDROOT
BRANCH   2  17
ATOM     17  O   UNL     1       0.859   9.679  20.428  0.00  0.00    +0.000 OA
ATOM     18  C   UNL     1       0.620   8.464  21.135  0.00  0.00    +0.000 C 
ENDBRANCH   2  17
BRANCH   7  19
ATOM     19  C   UNL     1      -4.165  13.502  22.584  0.00  0.00    +0.000 C 
ATOM     20  O   UNL     1      -4.248  14.714  22.515  0.00  0.00    +0.000 OA
BRANCH  19  21
ATOM     21  O   UNL     1      -5.028  12.734  23.277  0.00  0.00    +0.000 OA
ATOM     22  H   UNL     1      -5.682  12.256  22.721  0.00  0.00    +0.000 HD
ENDBRANCH  19  21
ENDBRANCH   7  19
BRANCH  14  23
ATOM     23  C   UNL     1      -3.293  10.071  14.576  0.00  0.00    +0.000 C 
ATOM     24  O   UNL     1      -2.418   9.885  13.742  0.00  0.00    +0.000 OA
BRANCH  23  25
ATOM     25  O   UNL     1      -4.610   9.908  14.305  0.00  0.00    +0.000 OA
ATOM     26  H   UNL     1      -4.763   9.520  13.420  0.00  0.00    +0.000 HD
ENDBRANCH  23  25
ENDBRANCH  14  23
BRANCH   1  27
ATOM     27  C   UNL     1       0.477   9.118  17.736  0.00  0.00    +0.000 C 
BRANCH  27  29
ATOM     28  C   UNL     1       2.966   8.712  17.780  0.00  0.00    +0.000 C 
ATOM     29  C   UNL     1       1.915   9.543  17.845  0.00  0.00    +0.000 C 
ENDBRANCH  27  29
ENDBRANCH   1  27
TORSDOF 7
ENDMDL
MODEL 9
REMARK VINA RESULT:      -6.2      8.530     10.686
REMARK  Name = 
REMARK  8 active torsions:
REMARK  status: ('A' for Active; 'I' for Inactive)
REMARK    1  A    between atoms: C_2  and  C_3
REMARK    2  A    between atoms: C_3  and  C_4
REMARK    3  A    between atoms: C_5  and  O_6
REMARK    4  A    between atoms: O_6  and  C_7
REMARK    5  A    between atoms: C_12  and  C_13
REMARK    6  A    between atoms: C_13  and  O_15
REMARK    7  A    between atoms: C_22  and  C_23
REMARK    8  A    between atoms: C_23  and  O_25
REMARK                            x       y       z     vdW  Elec       q    Type
REMARK                         _______ _______ _______ _____ _____    ______ ____
ROOT
ATOM      1  C   UNL     1      -1.659  12.848  20.344  0.00  0.00    +0.000 A 
ATOM      2  C   UNL     1      -1.841  13.316  21.683  0.00  0.00    +0.000 A 
ATOM      3  C   UNL     1      -3.122  13.248  22.283  0.00  0.00    +0.000 A 
ATOM      4  C   UNL     1      -3.423  13.632  23.691  0.00  0.00    +0.000 A 
ATOM      5  O   UNL     1      -2.608  14.057  24.494  0.00  0.00    +0.000 OA
ATOM      6  C   UNL     1      -4.802  13.491  24.172  0.00  0.00    +0.000 A 
ATOM      7  C   UNL     1      -5.720  12.967  23.364  0.00  0.00    +0.000 A 
ATOM      8  O   UNL     1      -5.467  12.564  22.076  0.00  0.00    +0.000 OA
ATOM      9  C   UNL     1      -4.199  12.711  21.548  0.00  0.00    +0.000 A 
ATOM     10  C   UNL     1      -4.017  12.257  20.229  0.00  0.00    +0.000 A 
ATOM     11  C   UNL     1      -5.127  11.642  19.466  0.00  0.00    +0.000 A 
ATOM     12  O   UNL     1      -6.258  11.515  19.910  0.00  0.00    +0.000 OA
ATOM     13  C   UNL     1      -4.815  11.149  18.113  0.00  0.00    +0.000 A 
ATOM     14  C   UNL     1      -3.574  11.302  17.636  0.00  0.00    +0.000 A 
ATOM     15  O   UNL     1      -2.534  11.896  18.338  0.00  0.00    +0.000 OA
ATOM     16  C   UNL     1      -2.760  12.337  19.624  0.00  0.00    +0.000 A 
ENDROOT
BRANCH   2  17
ATOM     17  O   UNL     1      -0.666  13.599  22.336  0.00  0.00    +0.000 OA
ATOM     18  C   UNL     1      -0.224  14.951  22.425  0.00  0.00    +0.000 C 
ENDBRANCH   2  17
BRANCH   7  19
ATOM     19  C   UNL     1      -7.102  12.797  23.901  0.00  0.00    +0.000 C 
ATOM     20  O   UNL     1      -7.799  11.822  23.695  0.00  0.00    +0.000 OA
BRANCH  19  21
ATOM     21  O   UNL     1      -7.496  13.854  24.638  0.00  0.00    +0.000 OA
ATOM     22  H   UNL     1      -6.838  14.582  24.687  0.00  0.00    +0.000 HD
ENDBRANCH  19  21
ENDBRANCH   7  19
BRANCH  14  23
ATOM     23  C   UNL     1      -3.306  10.797  16.268  0.00  0.00    +0.000 C 
ATOM     24  O   UNL     1      -2.973   9.652  15.997  0.00  0.00    +0.000 OA
BRANCH  23  25
ATOM     25  O   UNL     1      -3.464  11.757  15.325  0.00  0.00    +0.000 OA
ATOM     26  H   UNL     1      -4.349  12.173  15.362  0.00  0.00    +0.000 HD
ENDBRANCH  23  25
ENDBRANCH  14  23
BRANCH   1  27
ATOM     27  C   UNL     1      -0.282  12.868  19.686  0.00  0.00    +0.000 C 
BRANCH  27  29
ATOM     28  C   UNL     1       1.098  14.820  18.885  0.00  0.00    +0.000 C 
ATOM     29  C   UNL     1      -0.037  14.106  18.870  0.00  0.00    +0.000 C 
ENDBRANCH  27  29
ENDBRANCH   1  27
TORSDOF 7
ENDMDL
