MODEL 1
REMARK VINA RESULT:      -7.6      0.000      0.000
REMARK  Name = 
REMARK  8 active torsions:
REMARK  status: ('A' for Active; 'I' for Inactive)
REMARK    1  A    between atoms: C_1  and  O_2
REMARK    2  A    between atoms: O_2  and  C_3
REMARK    3  A    between atoms: C_8  and  C_9
REMARK    4  A    between atoms: C_13  and  C_14
REMARK    5  A    between atoms: C_14  and  N_15
REMARK    6  A    between atoms: N_15  and  C_16
REMARK    7  A    between atoms: N_15  and  C_17
REMARK    8  A    between atoms: C_17  and  C_18
REMARK                            x       y       z     vdW  Elec       q    Type
REMARK                         _______ _______ _______ _____ _____    ______ ____
ROOT
ATOM      1  C   UNL     1       2.776   4.057  18.489  0.00  0.00    +0.000 A 
ATOM      2  N   UNL     1       1.839   3.102  18.333  0.00  0.00    +0.000 NA
ATOM      3  N   UNL     1       2.498   2.042  17.859  0.00  0.00    +0.000 N 
ATOM      4  C   UNL     1       3.833   2.244  17.733  0.00  0.00    +0.000 A 
ATOM      5  C   UNL     1       4.068   3.556  18.100  0.00  0.00    +0.000 A 
ATOM      6  H   UNL     1       1.970   1.203  17.649  0.00  0.00    +0.000 HD
ENDROOT
BRANCH   1  12
ATOM      7  C   UNL     1       1.120  10.264  19.584  0.00  0.00    +0.000 A 
ATOM      8  C   UNL     1       1.585  10.124  18.278  0.00  0.00    +0.000 A 
ATOM      9  C   UNL     1       2.016   8.877  17.817  0.00  0.00    +0.000 A 
ATOM     10  C   UNL     1       1.996   7.755  18.656  0.00  0.00    +0.000 A 
ATOM     11  C   UNL     1       2.410   6.494  18.200  0.00  0.00    +0.000 A 
ATOM     12  C   UNL     1       2.395   5.367  19.037  0.00  0.00    +0.000 A 
ATOM     13  C   UNL     1       2.002   5.540  20.368  0.00  0.00    +0.000 A 
ATOM     14  C   UNL     1       1.558   6.783  20.832  0.00  0.00    +0.000 A 
ATOM     15  C   UNL     1       1.544   7.898  19.985  0.00  0.00    +0.000 A 
ATOM     16  C   UNL     1       1.100   9.153  20.429  0.00  0.00    +0.000 A 
BRANCH   7  18
ATOM     17  C   UNL     1       1.124  12.638  19.569  0.00  0.00    +0.000 C 
ATOM     18  O   UNL     1       0.665  11.424  20.151  0.00  0.00    +0.000 OA
ENDBRANCH   7  18
ENDBRANCH   1  12
BRANCH   5  19
ATOM     19  C   UNL     1       5.395   4.245  18.097  0.00  0.00    +0.000 C 
BRANCH  19  20
ATOM     20  N   UNL     1       5.518   5.186  16.958  0.00  0.00    +0.000 NA
ATOM     21  C   UNL     1       5.701   6.580  17.381  0.00  0.00    +0.000 C 
BRANCH  20  22
ATOM     22  C   UNL     1       6.640   4.747  16.100  0.00  0.00    +0.000 C 
BRANCH  22  23
ATOM     23  C   UNL     1       6.380   4.835  14.580  0.00  0.00    +0.000 C 
ATOM     24  C   UNL     1       5.769   3.540  14.031  0.00  0.00    +0.000 C 
ATOM     25  C   UNL     1       5.694   3.572  12.512  0.00  0.00    +0.000 C 
ATOM     26  O   UNL     1       6.984   3.812  11.949  0.00  0.00    +0.000 OA
ATOM     27  C   UNL     1       7.502   5.084  12.329  0.00  0.00    +0.000 C 
ATOM     28  C   UNL     1       7.687   5.163  13.838  0.00  0.00    +0.000 C 
ENDBRANCH  22  23
ENDBRANCH  20  22
ENDBRANCH  19  20
ENDBRANCH   5  19
TORSDOF 6
ENDMDL
MODEL 2
REMARK VINA RESULT:      -7.6      1.858      3.201
REMARK  Name = 
REMARK  8 active torsions:
REMARK  status: ('A' for Active; 'I' for Inactive)
REMARK    1  A    between atoms: C_1  and  O_2
REMARK    2  A    between atoms: O_2  and  C_3
REMARK    3  A    between atoms: C_8  and  C_9
REMARK    4  A    between atoms: C_13  and  C_14
REMARK    5  A    between atoms: C_14  and  N_15
REMARK    6  A    between atoms: N_15  and  C_16
REMARK    7  A    between atoms: N_15  and  C_17
REMARK    8  A    between atoms: C_17  and  C_18
REMARK                            x       y       z     vdW  Elec       q    Type
REMARK                         _______ _______ _______ _____ _____    ______ ____
ROOT
ATOM      1  C   UNL     1       2.107   4.707  20.567  0.00  0.00    +0.000 A 
ATOM      2  N   UNL     1       2.178   4.598  21.907  0.00  0.00    +0.000 NA
ATOM      3  N   UNL     1       2.300   3.290  22.144  0.00  0.00    +0.000 N 
ATOM      4  C   UNL     1       2.352   2.536  21.018  0.00  0.00    +0.000 A 
ATOM      5  C   UNL     1       2.199   3.408  19.955  0.00  0.00    +0.000 A 
ATOM      6  H   UNL     1       2.350   2.979  23.107  0.00  0.00    +0.000 HD
ENDROOT
BRANCH   1  12
ATOM      7  C   UNL     1       1.255  11.002  19.112  0.00  0.00    +0.000 A 
ATOM      8  C   UNL     1       0.702  10.728  20.361  0.00  0.00    +0.000 A 
ATOM      9  C   UNL     1       0.749   9.432  20.880  0.00  0.00    +0.000 A 
ATOM     10  C   UNL     1       1.341   8.389  20.155  0.00  0.00    +0.000 A 
ATOM     11  C   UNL     1       1.411   7.087  20.673  0.00  0.00    +0.000 A 
ATOM     12  C   UNL     1       2.002   6.038  19.950  0.00  0.00    +0.000 A 
ATOM     13  C   UNL     1       2.480   6.311  18.665  0.00  0.00    +0.000 A 
ATOM     14  C   UNL     1       2.447   7.609  18.145  0.00  0.00    +0.000 A 
ATOM     15  C   UNL     1       1.886   8.659  18.882  0.00  0.00    +0.000 A 
ATOM     16  C   UNL     1       1.845   9.969  18.381  0.00  0.00    +0.000 A 
BRANCH   7  18
ATOM     17  C   UNL     1       2.555  12.709  18.095  0.00  0.00    +0.000 C 
ATOM     18  O   UNL     1       1.280  12.226  18.499  0.00  0.00    +0.000 OA
ENDBRANCH   7  18
ENDBRANCH   1  12
BRANCH   5  19
ATOM     19  C   UNL     1       2.164   3.031  18.509  0.00  0.00    +0.000 C 
BRANCH  19  20
ATOM     20  N   UNL     1       3.525   2.773  17.980  0.00  0.00    +0.000 NA
ATOM     21  C   UNL     1       3.830   1.343  17.852  0.00  0.00    +0.000 C 
BRANCH  20  22
ATOM     22  C   UNL     1       3.664   3.457  16.676  0.00  0.00    +0.000 C 
BRANCH  22  23
ATOM     23  C   UNL     1       4.894   4.380  16.544  0.00  0.00    +0.000 C 
ATOM     24  C   UNL     1       5.824   3.932  15.410  0.00  0.00    +0.000 C 
ATOM     25  C   UNL     1       7.117   4.735  15.415  0.00  0.00    +0.000 C 
ATOM     26  O   UNL     1       7.766   4.636  16.683  0.00  0.00    +0.000 OA
ATOM     27  C   UNL     1       6.973   5.190  17.731  0.00  0.00    +0.000 C 
ATOM     28  C   UNL     1       5.663   4.430  17.876  0.00  0.00    +0.000 C 
ENDBRANCH  22  23
ENDBRANCH  20  22
ENDBRANCH  19  20
ENDBRANCH   5  19
TORSDOF 6
ENDMDL
MODEL 3
REMARK VINA RESULT:      -7.5      1.901      2.965
REMARK  Name = 
REMARK  8 active torsions:
REMARK  status: ('A' for Active; 'I' for Inactive)
REMARK    1  A    between atoms: C_1  and  O_2
REMARK    2  A    between atoms: O_2  and  C_3
REMARK    3  A    between atoms: C_8  and  C_9
REMARK    4  A    between atoms: C_13  and  C_14
REMARK    5  A    between atoms: C_14  and  N_15
REMARK    6  A    between atoms: N_15  and  C_16
REMARK    7  A    between atoms: N_15  and  C_17
REMARK    8  A    between atoms: C_17  and  C_18
REMARK                            x       y       z     vdW  Elec       q    Type
REMARK                         _______ _______ _______ _____ _____    ______ ____
ROOT
ATOM      1  C   UNL     1       2.843   3.978  18.342  0.00  0.00    +0.000 A 
ATOM      2  N   UNL     1       2.333   2.849  18.867  0.00  0.00    +0.000 NA
ATOM      3  N   UNL     1       2.890   1.857  18.168  0.00  0.00    +0.000 N 
ATOM      4  C   UNL     1       3.775   2.282  17.233  0.00  0.00    +0.000 A 
ATOM      5  C   UNL     1       3.762   3.663  17.280  0.00  0.00    +0.000 A 
ATOM      6  H   UNL     1       2.624   0.904  18.391  0.00  0.00    +0.000 HD
ENDROOT
BRANCH   1  12
ATOM      7  C   UNL     1       1.206  10.173  19.529  0.00  0.00    +0.000 A 
ATOM      8  C   UNL     1       1.683  10.054  18.225  0.00  0.00    +0.000 A 
ATOM      9  C   UNL     1       2.113   8.813  17.747  0.00  0.00    +0.000 A 
ATOM     10  C   UNL     1       2.080   7.676  18.566  0.00  0.00    +0.000 A 
ATOM     11  C   UNL     1       2.492   6.422  18.092  0.00  0.00    +0.000 A 
ATOM     12  C   UNL     1       2.463   5.280  18.909  0.00  0.00    +0.000 A 
ATOM     13  C   UNL     1       2.058   5.432  20.239  0.00  0.00    +0.000 A 
ATOM     14  C   UNL     1       1.615   6.669  20.720  0.00  0.00    +0.000 A 
ATOM     15  C   UNL     1       1.615   7.798  19.892  0.00  0.00    +0.000 A 
ATOM     16  C   UNL     1       1.173   9.048  20.354  0.00  0.00    +0.000 A 
BRANCH   7  18
ATOM     17  C   UNL     1       0.323  12.357  19.230  0.00  0.00    +0.000 C 
ATOM     18  O   UNL     1       0.751  11.326  20.111  0.00  0.00    +0.000 OA
ENDBRANCH   7  18
ENDBRANCH   1  12
BRANCH   5  19
ATOM     19  C   UNL     1       4.561   4.579  16.409  0.00  0.00    +0.000 C 
BRANCH  19  20
ATOM     20  N   UNL     1       5.601   3.842  15.651  0.00  0.00    +0.000 NA
ATOM     21  C   UNL     1       5.448   3.965  14.197  0.00  0.00    +0.000 C 
BRANCH  20  22
ATOM     22  C   UNL     1       6.931   4.324  16.081  0.00  0.00    +0.000 C 
BRANCH  22  23
ATOM     23  C   UNL     1       6.915   5.391  17.198  0.00  0.00    +0.000 C 
ATOM     24  C   UNL     1       7.392   6.756  16.689  0.00  0.00    +0.000 C 
ATOM     25  C   UNL     1       7.549   7.743  17.837  0.00  0.00    +0.000 C 
ATOM     26  O   UNL     1       8.436   7.225  18.828  0.00  0.00    +0.000 OA
ATOM     27  C   UNL     1       7.932   6.031  19.422  0.00  0.00    +0.000 C 
ATOM     28  C   UNL     1       7.785   4.930  18.381  0.00  0.00    +0.000 C 
ENDBRANCH  22  23
ENDBRANCH  20  22
ENDBRANCH  19  20
ENDBRANCH   5  19
TORSDOF 6
ENDMDL
MODEL 4
REMARK VINA RESULT:      -7.5      2.876      6.605
REMARK  Name = 
REMARK  8 active torsions:
REMARK  status: ('A' for Active; 'I' for Inactive)
REMARK    1  A    between atoms: C_1  and  O_2
REMARK    2  A    between atoms: O_2  and  C_3
REMARK    3  A    between atoms: C_8  and  C_9
REMARK    4  A    between atoms: C_13  and  C_14
REMARK    5  A    between atoms: C_14  and  N_15
REMARK    6  A    between atoms: N_15  and  C_16
REMARK    7  A    between atoms: N_15  and  C_17
REMARK    8  A    between atoms: C_17  and  C_18
REMARK                            x       y       z     vdW  Elec       q    Type
REMARK                         _______ _______ _______ _____ _____    ______ ____
ROOT
ATOM      1  C   UNL     1       3.274   3.213  18.476  0.00  0.00    +0.000 A 
ATOM      2  N   UNL     1       3.718   1.981  18.163  0.00  0.00    +0.000 NA
ATOM      3  N   UNL     1       2.733   1.154  18.523  0.00  0.00    +0.000 N 
ATOM      4  C   UNL     1       1.645   1.790  19.022  0.00  0.00    +0.000 A 
ATOM      5  C   UNL     1       1.954   3.138  19.046  0.00  0.00    +0.000 A 
ATOM      6  H   UNL     1       2.869   0.158  18.390  0.00  0.00    +0.000 HD
ENDROOT
BRANCH   1  12
ATOM      7  C   UNL     1       7.923   7.747  17.923  0.00  0.00    +0.000 A 
ATOM      8  C   UNL     1       8.261   6.845  18.931  0.00  0.00    +0.000 A 
ATOM      9  C   UNL     1       7.402   5.789  19.244  0.00  0.00    +0.000 A 
ATOM     10  C   UNL     1       6.189   5.622  18.562  0.00  0.00    +0.000 A 
ATOM     11  C   UNL     1       5.327   4.555  18.855  0.00  0.00    +0.000 A 
ATOM     12  C   UNL     1       4.109   4.385  18.176  0.00  0.00    +0.000 A 
ATOM     13  C   UNL     1       3.746   5.343  17.224  0.00  0.00    +0.000 A 
ATOM     14  C   UNL     1       4.608   6.396  16.897  0.00  0.00    +0.000 A 
ATOM     15  C   UNL     1       5.836   6.544  17.554  0.00  0.00    +0.000 A 
ATOM     16  C   UNL     1       6.715   7.591  17.240  0.00  0.00    +0.000 A 
BRANCH   7  18
ATOM     17  C   UNL     1       8.680   9.952  18.370  0.00  0.00    +0.000 C 
ATOM     18  O   UNL     1       8.679   8.814  17.518  0.00  0.00    +0.000 OA
ENDBRANCH   7  18
ENDBRANCH   1  12
BRANCH   5  19
ATOM     19  C   UNL     1       1.068   4.234  19.544  0.00  0.00    +0.000 C 
BRANCH  19  20
ATOM     20  N   UNL     1       1.523   4.750  20.857  0.00  0.00    +0.000 NA
ATOM     21  C   UNL     1       2.331   3.780  21.607  0.00  0.00    +0.000 C 
BRANCH  20  22
ATOM     22  C   UNL     1       2.278   6.002  20.638  0.00  0.00    +0.000 C 
BRANCH  22  23
ATOM     23  C   UNL     1       1.444   7.189  20.106  0.00  0.00    +0.000 C 
ATOM     24  C   UNL     1       2.182   7.952  18.999  0.00  0.00    +0.000 C 
ATOM     25  C   UNL     1       1.433   9.221  18.619  0.00  0.00    +0.000 C 
ATOM     26  O   UNL     1       1.228  10.047  19.765  0.00  0.00    +0.000 OA
ATOM     27  C   UNL     1       0.413   9.406  20.743  0.00  0.00    +0.000 C 
ATOM     28  C   UNL     1       1.083   8.141  21.259  0.00  0.00    +0.000 C 
ENDBRANCH  22  23
ENDBRANCH  20  22
ENDBRANCH  19  20
ENDBRANCH   5  19
TORSDOF 6
ENDMDL
MODEL 5
REMARK VINA RESULT:      -7.4      2.147      3.472
REMARK  Name = 
REMARK  8 active torsions:
REMARK  status: ('A' for Active; 'I' for Inactive)
REMARK    1  A    between atoms: C_1  and  O_2
REMARK    2  A    between atoms: O_2  and  C_3
REMARK    3  A    between atoms: C_8  and  C_9
REMARK    4  A    between atoms: C_13  and  C_14
REMARK    5  A    between atoms: C_14  and  N_15
REMARK    6  A    between atoms: N_15  and  C_16
REMARK    7  A    between atoms: N_15  and  C_17
REMARK    8  A    between atoms: C_17  and  C_18
REMARK                            x       y       z     vdW  Elec       q    Type
REMARK                         _______ _______ _______ _____ _____    ______ ____
ROOT
ATOM      1  C   UNL     1       3.002   4.543  19.206  0.00  0.00    +0.000 A 
ATOM      2  N   UNL     1       2.961   3.884  20.379  0.00  0.00    +0.000 NA
ATOM      3  N   UNL     1       3.493   2.687  20.124  0.00  0.00    +0.000 N 
ATOM      4  C   UNL     1       3.919   2.543  18.845  0.00  0.00    +0.000 A 
ATOM      5  C   UNL     1       3.595   3.716  18.189  0.00  0.00    +0.000 A 
ATOM      6  H   UNL     1       3.542   2.013  20.880  0.00  0.00    +0.000 HD
ENDROOT
BRANCH   1  12
ATOM      7  C   UNL     1       0.831  10.595  20.275  0.00  0.00    +0.000 A 
ATOM      8  C   UNL     1       0.735   9.846  21.447  0.00  0.00    +0.000 A 
ATOM      9  C   UNL     1       1.129   8.506  21.456  0.00  0.00    +0.000 A 
ATOM     10  C   UNL     1       1.616   7.891  20.294  0.00  0.00    +0.000 A 
ATOM     11  C   UNL     1       2.031   6.551  20.295  0.00  0.00    +0.000 A 
ATOM     12  C   UNL     1       2.518   5.930  19.134  0.00  0.00    +0.000 A 
ATOM     13  C   UNL     1       2.533   6.671  17.948  0.00  0.00    +0.000 A 
ATOM     14  C   UNL     1       2.152   8.017  17.934  0.00  0.00    +0.000 A 
ATOM     15  C   UNL     1       1.698   8.642  19.102  0.00  0.00    +0.000 A 
ATOM     16  C   UNL     1       1.312   9.991  19.112  0.00  0.00    +0.000 A 
BRANCH   7  18
ATOM     17  C   UNL     1       1.525  12.804  19.751  0.00  0.00    +0.000 C 
ATOM     18  O   UNL     1       0.487  11.913  20.138  0.00  0.00    +0.000 OA
ENDBRANCH   7  18
ENDBRANCH   1  12
BRANCH   5  19
ATOM     19  C   UNL     1       3.846   4.013  16.745  0.00  0.00    +0.000 C 
BRANCH  19  20
ATOM     20  N   UNL     1       5.282   4.271  16.484  0.00  0.00    +0.000 NA
ATOM     21  C   UNL     1       5.781   3.583  15.287  0.00  0.00    +0.000 C 
BRANCH  20  22
ATOM     22  C   UNL     1       5.488   5.731  16.372  0.00  0.00    +0.000 C 
BRANCH  22  23
ATOM     23  C   UNL     1       6.193   6.391  17.578  0.00  0.00    +0.000 C 
ATOM     24  C   UNL     1       7.279   7.377  17.133  0.00  0.00    +0.000 C 
ATOM     25  C   UNL     1       8.086   7.874  18.323  0.00  0.00    +0.000 C 
ATOM     26  O   UNL     1       8.650   6.778  19.042  0.00  0.00    +0.000 OA
ATOM     27  C   UNL     1       7.644   5.931  19.594  0.00  0.00    +0.000 C 
ATOM     28  C   UNL     1       6.795   5.312  18.493  0.00  0.00    +0.000 C 
ENDBRANCH  22  23
ENDBRANCH  20  22
ENDBRANCH  19  20
ENDBRANCH   5  19
TORSDOF 6
ENDMDL
MODEL 6
REMARK VINA RESULT:      -7.4      1.751      3.066
REMARK  Name = 
REMARK  8 active torsions:
REMARK  status: ('A' for Active; 'I' for Inactive)
REMARK    1  A    between atoms: C_1  and  O_2
REMARK    2  A    between atoms: O_2  and  C_3
REMARK    3  A    between atoms: C_8  and  C_9
REMARK    4  A    between atoms: C_13  and  C_14
REMARK    5  A    between atoms: C_14  and  N_15
REMARK    6  A    between atoms: N_15  and  C_16
REMARK    7  A    between atoms: N_15  and  C_17
REMARK    8  A    between atoms: C_17  and  C_18
REMARK                            x       y       z     vdW  Elec       q    Type
REMARK                         _______ _______ _______ _____ _____    ______ ____
ROOT
ATOM      1  C   UNL     1       2.110   4.724  20.511  0.00  0.00    +0.000 A 
ATOM      2  N   UNL     1       2.135   4.626  21.853  0.00  0.00    +0.000 NA
ATOM      3  N   UNL     1       2.269   3.322  22.104  0.00  0.00    +0.000 N 
ATOM      4  C   UNL     1       2.374   2.561  20.987  0.00  0.00    +0.000 A 
ATOM      5  C   UNL     1       2.244   3.422  19.913  0.00  0.00    +0.000 A 
ATOM      6  H   UNL     1       2.291   3.019  23.072  0.00  0.00    +0.000 HD
ENDROOT
BRANCH   1  12
ATOM      7  C   UNL     1       1.296  11.011  18.998  0.00  0.00    +0.000 A 
ATOM      8  C   UNL     1       0.770  10.759  20.264  0.00  0.00    +0.000 A 
ATOM      9  C   UNL     1       0.814   9.468  20.797  0.00  0.00    +0.000 A 
ATOM     10  C   UNL     1       1.377   8.410  20.071  0.00  0.00    +0.000 A 
ATOM     11  C   UNL     1       1.444   7.113  20.603  0.00  0.00    +0.000 A 
ATOM     12  C   UNL     1       2.005   6.049  19.880  0.00  0.00    +0.000 A 
ATOM     13  C   UNL     1       2.456   6.301  18.580  0.00  0.00    +0.000 A 
ATOM     14  C   UNL     1       2.426   7.593  18.045  0.00  0.00    +0.000 A 
ATOM     15  C   UNL     1       1.895   8.658  18.783  0.00  0.00    +0.000 A 
ATOM     16  C   UNL     1       1.856   9.962  18.266  0.00  0.00    +0.000 A 
BRANCH   7  18
ATOM     17  C   UNL     1       1.097  13.369  19.187  0.00  0.00    +0.000 C 
ATOM     18  O   UNL     1       1.320  12.227  18.370  0.00  0.00    +0.000 OA
ENDBRANCH   7  18
ENDBRANCH   1  12
BRANCH   5  19
ATOM     19  C   UNL     1       2.266   3.035  18.469  0.00  0.00    +0.000 C 
BRANCH  19  20
ATOM     20  N   UNL     1       3.646   2.767  17.997  0.00  0.00    +0.000 NA
ATOM     21  C   UNL     1       3.887   1.349  17.703  0.00  0.00    +0.000 C 
BRANCH  20  22
ATOM     22  C   UNL     1       3.909   3.602  16.805  0.00  0.00    +0.000 C 
BRANCH  22  23
ATOM     23  C   UNL     1       5.391   3.964  16.570  0.00  0.00    +0.000 C 
ATOM     24  C   UNL     1       5.837   5.138  17.450  0.00  0.00    +0.000 C 
ATOM     25  C   UNL     1       7.236   5.603  17.073  0.00  0.00    +0.000 C 
ATOM     26  O   UNL     1       7.298   5.945  15.689  0.00  0.00    +0.000 OA
ATOM     27  C   UNL     1       7.034   4.822  14.851  0.00  0.00    +0.000 C 
ATOM     28  C   UNL     1       5.626   4.292  15.085  0.00  0.00    +0.000 C 
ENDBRANCH  22  23
ENDBRANCH  20  22
ENDBRANCH  19  20
ENDBRANCH   5  19
TORSDOF 6
ENDMDL
MODEL 7
REMARK VINA RESULT:      -7.3      3.964      8.747
REMARK  Name = 
REMARK  8 active torsions:
REMARK  status: ('A' for Active; 'I' for Inactive)
REMARK    1  A    between atoms: C_1  and  O_2
REMARK    2  A    between atoms: O_2  and  C_3
REMARK    3  A    between atoms: C_8  and  C_9
REMARK    4  A    between atoms: C_13  and  C_14
REMARK    5  A    between atoms: C_14  and  N_15
REMARK    6  A    between atoms: N_15  and  C_16
REMARK    7  A    between atoms: N_15  and  C_17
REMARK    8  A    between atoms: C_17  and  C_18
REMARK                            x       y       z     vdW  Elec       q    Type
REMARK                         _______ _______ _______ _____ _____    ______ ____
ROOT
ATOM      1  C   UNL     1       0.322   9.477  21.508  0.00  0.00    +0.000 A 
ATOM      2  N   UNL     1      -0.225   8.802  22.537  0.00  0.00    +0.000 NA
ATOM      3  N   UNL     1      -0.891   9.721  23.240  0.00  0.00    +0.000 N 
ATOM      4  C   UNL     1      -0.840  10.962  22.698  0.00  0.00    +0.000 A 
ATOM      5  C   UNL     1      -0.033  10.870  21.580  0.00  0.00    +0.000 A 
ATOM      6  H   UNL     1      -1.370   9.425  24.083  0.00  0.00    +0.000 HD
ENDROOT
BRANCH   1  12
ATOM      7  C   UNL     1       3.621   5.178  17.887  0.00  0.00    +0.000 A 
ATOM      8  C   UNL     1       3.383   4.644  19.153  0.00  0.00    +0.000 A 
ATOM      9  C   UNL     1       2.703   5.396  20.113  0.00  0.00    +0.000 A 
ATOM     10  C   UNL     1       2.256   6.693  19.828  0.00  0.00    +0.000 A 
ATOM     11  C   UNL     1       1.556   7.451  20.779  0.00  0.00    +0.000 A 
ATOM     12  C   UNL     1       1.109   8.752  20.499  0.00  0.00    +0.000 A 
ATOM     13  C   UNL     1       1.425   9.304  19.253  0.00  0.00    +0.000 A 
ATOM     14  C   UNL     1       2.096   8.552  18.282  0.00  0.00    +0.000 A 
ATOM     15  C   UNL     1       2.511   7.243  18.554  0.00  0.00    +0.000 A 
ATOM     16  C   UNL     1       3.183   6.471  17.594  0.00  0.00    +0.000 A 
BRANCH   7  18
ATOM     17  C   UNL     1       5.349   5.244  16.260  0.00  0.00    +0.000 C 
ATOM     18  O   UNL     1       4.267   4.544  16.860  0.00  0.00    +0.000 OA
ENDBRANCH   7  18
ENDBRANCH   1  12
BRANCH   5  19
ATOM     19  C   UNL     1       0.339  11.996  20.669  0.00  0.00    +0.000 C 
BRANCH  19  20
ATOM     20  N   UNL     1      -0.860  12.650  20.093  0.00  0.00    +0.000 NA
ATOM     21  C   UNL     1      -1.083  14.004  20.613  0.00  0.00    +0.000 C 
BRANCH  20  22
ATOM     22  C   UNL     1      -0.725  12.670  18.620  0.00  0.00    +0.000 C 
BRANCH  22  23
ATOM     23  C   UNL     1      -1.813  11.892  17.848  0.00  0.00    +0.000 C 
ATOM     24  C   UNL     1      -3.110  11.772  18.658  0.00  0.00    +0.000 C 
ATOM     25  C   UNL     1      -4.102  10.848  17.967  0.00  0.00    +0.000 C 
ATOM     26  O   UNL     1      -3.518   9.566  17.736  0.00  0.00    +0.000 OA
ATOM     27  C   UNL     1      -2.398   9.641  16.859  0.00  0.00    +0.000 C 
ATOM     28  C   UNL     1      -1.294  10.496  17.465  0.00  0.00    +0.000 C 
ENDBRANCH  22  23
ENDBRANCH  20  22
ENDBRANCH  19  20
ENDBRANCH   5  19
TORSDOF 6
ENDMDL
MODEL 8
REMARK VINA RESULT:      -7.2      1.079      1.771
REMARK  Name = 
REMARK  8 active torsions:
REMARK  status: ('A' for Active; 'I' for Inactive)
REMARK    1  A    between atoms: C_1  and  O_2
REMARK    2  A    between atoms: O_2  and  C_3
REMARK    3  A    between atoms: C_8  and  C_9
REMARK    4  A    between atoms: C_13  and  C_14
REMARK    5  A    between atoms: C_14  and  N_15
REMARK    6  A    between atoms: N_15  and  C_16
REMARK    7  A    between atoms: N_15  and  C_17
REMARK    8  A    between atoms: C_17  and  C_18
REMARK                            x       y       z     vdW  Elec       q    Type
REMARK                         _______ _______ _______ _____ _____    ______ ____
ROOT
ATOM      1  C   UNL     1       3.288   4.998  19.088  0.00  0.00    +0.000 A 
ATOM      2  N   UNL     1       2.491   3.923  19.228  0.00  0.00    +0.000 NA
ATOM      3  N   UNL     1       3.322   2.879  19.288  0.00  0.00    +0.000 N 
ATOM      4  C   UNL     1       4.632   3.225  19.234  0.00  0.00    +0.000 A 
ATOM      5  C   UNL     1       4.670   4.597  19.071  0.00  0.00    +0.000 A 
ATOM      6  H   UNL     1       2.923   1.952  19.375  0.00  0.00    +0.000 HD
ENDROOT
BRANCH   1  12
ATOM      7  C   UNL     1       0.563  10.815  20.192  0.00  0.00    +0.000 A 
ATOM      8  C   UNL     1       0.476  10.028  21.340  0.00  0.00    +0.000 A 
ATOM      9  C   UNL     1       0.981   8.726  21.336  0.00  0.00    +0.000 A 
ATOM     10  C   UNL     1       1.574   8.187  20.186  0.00  0.00    +0.000 A 
ATOM     11  C   UNL     1       2.100   6.887  20.176  0.00  0.00    +0.000 A 
ATOM     12  C   UNL     1       2.693   6.342  19.025  0.00  0.00    +0.000 A 
ATOM     13  C   UNL     1       2.700   7.114  17.859  0.00  0.00    +0.000 A 
ATOM     14  C   UNL     1       2.207   8.423  17.859  0.00  0.00    +0.000 A 
ATOM     15  C   UNL     1       1.647   8.975  19.018  0.00  0.00    +0.000 A 
ATOM     16  C   UNL     1       1.148  10.286  19.040  0.00  0.00    +0.000 A 
BRANCH   7  18
ATOM     17  C   UNL     1       0.445  12.994  21.129  0.00  0.00    +0.000 C 
ATOM     18  O   UNL     1       0.115  12.103  20.070  0.00  0.00    +0.000 OA
ENDBRANCH   7  18
ENDBRANCH   1  12
BRANCH   5  19
ATOM     19  C   UNL     1       5.903   5.431  18.933  0.00  0.00    +0.000 C 
BRANCH  19  20
ATOM     20  N   UNL     1       6.079   5.919  17.545  0.00  0.00    +0.000 NA
ATOM     21  C   UNL     1       6.951   7.097  17.455  0.00  0.00    +0.000 C 
BRANCH  20  22
ATOM     22  C   UNL     1       6.607   4.813  16.718  0.00  0.00    +0.000 C 
BRANCH  22  23
ATOM     23  C   UNL     1       6.335   4.935  15.202  0.00  0.00    +0.000 C 
ATOM     24  C   UNL     1       5.564   3.725  14.662  0.00  0.00    +0.000 C 
ATOM     25  C   UNL     1       5.469   3.771  13.144  0.00  0.00    +0.000 C 
ATOM     26  O   UNL     1       6.768   3.855  12.561  0.00  0.00    +0.000 OA
ATOM     27  C   UNL     1       7.443   5.054  12.934  0.00  0.00    +0.000 C 
ATOM     28  C   UNL     1       7.660   5.106  14.439  0.00  0.00    +0.000 C 
ENDBRANCH  22  23
ENDBRANCH  20  22
ENDBRANCH  19  20
ENDBRANCH   5  19
TORSDOF 6
ENDMDL
MODEL 9
REMARK VINA RESULT:      -7.2      5.252     10.230
REMARK  Name = 
REMARK  8 active torsions:
REMARK  status: ('A' for Active; 'I' for Inactive)
REMARK    1  A    between atoms: C_1  and  O_2
REMARK    2  A    between atoms: O_2  and  C_3
REMARK    3  A    between atoms: C_8  and  C_9
REMARK    4  A    between atoms: C_13  and  C_14
REMARK    5  A    between atoms: C_14  and  N_15
REMARK    6  A    between atoms: N_15  and  C_16
REMARK    7  A    between atoms: N_15  and  C_17
REMARK    8  A    between atoms: C_17  and  C_18
REMARK                            x       y       z     vdW  Elec       q    Type
REMARK                         _______ _______ _______ _____ _____    ______ ____
ROOT
ATOM      1  C   UNL     1       0.269  10.939  18.968  0.00  0.00    +0.000 A 
ATOM      2  N   UNL     1       0.807  12.066  19.473  0.00  0.00    +0.000 NA
ATOM      3  N   UNL     1      -0.024  13.044  19.103  0.00  0.00    +0.000 N 
ATOM      4  C   UNL     1      -1.104  12.606  18.411  0.00  0.00    +0.000 A 
ATOM      5  C   UNL     1      -0.950  11.239  18.265  0.00  0.00    +0.000 A 
ATOM      6  H   UNL     1       0.207  13.995  19.366  0.00  0.00    +0.000 HD
ENDROOT
BRANCH   1  12
ATOM      7  C   UNL     1       3.867   5.505  18.934  0.00  0.00    +0.000 A 
ATOM      8  C   UNL     1       3.984   6.156  17.707  0.00  0.00    +0.000 A 
ATOM      9  C   UNL     1       3.284   7.342  17.473  0.00  0.00    +0.000 A 
ATOM     10  C   UNL     1       2.452   7.892  18.457  0.00  0.00    +0.000 A 
ATOM     11  C   UNL     1       1.758   9.092  18.241  0.00  0.00    +0.000 A 
ATOM     12  C   UNL     1       0.921   9.646  19.222  0.00  0.00    +0.000 A 
ATOM     13  C   UNL     1       0.751   8.940  20.418  0.00  0.00    +0.000 A 
ATOM     14  C   UNL     1       1.458   7.758  20.663  0.00  0.00    +0.000 A 
ATOM     15  C   UNL     1       2.317   7.226  19.693  0.00  0.00    +0.000 A 
ATOM     16  C   UNL     1       3.038   6.043  19.919  0.00  0.00    +0.000 A 
BRANCH   7  18
ATOM     17  C   UNL     1       4.013   3.147  18.701  0.00  0.00    +0.000 C 
ATOM     18  O   UNL     1       4.503   4.346  19.288  0.00  0.00    +0.000 OA
ENDBRANCH   7  18
ENDBRANCH   1  12
BRANCH   5  19
ATOM     19  C   UNL     1      -1.884  10.322  17.544  0.00  0.00    +0.000 C 
BRANCH  19  20
ATOM     20  N   UNL     1      -2.979  11.069  16.880  0.00  0.00    +0.000 NA
ATOM     21  C   UNL     1      -3.039  10.836  15.432  0.00  0.00    +0.000 C 
BRANCH  20  22
ATOM     22  C   UNL     1      -4.260  10.704  17.523  0.00  0.00    +0.000 C 
BRANCH  22  23
ATOM     23  C   UNL     1      -5.099  11.893  18.041  0.00  0.00    +0.000 C 
ATOM     24  C   UNL     1      -4.688  12.305  19.460  0.00  0.00    +0.000 C 
ATOM     25  C   UNL     1      -5.643  13.347  20.024  0.00  0.00    +0.000 C 
ATOM     26  O   UNL     1      -6.986  12.865  19.997  0.00  0.00    +0.000 OA
ATOM     27  C   UNL     1      -7.437  12.620  18.667  0.00  0.00    +0.000 C 
ATOM     28  C   UNL     1      -6.596  11.540  18.002  0.00  0.00    +0.000 C 
ENDBRANCH  22  23
ENDBRANCH  20  22
ENDBRANCH  19  20
ENDBRANCH   5  19
TORSDOF 6
ENDMDL
