MODEL 1
REMARK VINA RESULT:      -8.9      0.000      0.000
REMARK  Name = 
REMARK  3 active torsions:
REMARK  status: ('A' for Active; 'I' for Inactive)
REMARK    1  A    between atoms: C_2  and  C_5
REMARK    2  A    between atoms: N_3  and  O_4
REMARK    3  A    between atoms: N_9  and  C_10
REMARK                            x       y       z     vdW  Elec       q    Type
REMARK                         _______ _______ _______ _____ _____    ______ ____
ROOT
ATOM      1  C   UNL     1       0.560  10.035  19.150  0.00  0.00    +0.000 A 
ATOM      2  C   UNL     1       0.801   9.274  20.265  0.00  0.00    +0.000 A 
ATOM      3  N   UNL     1       1.619   8.193  20.257  0.00  0.00    +0.000 NA
ATOM      4  C   UNL     1       2.180   7.842  19.090  0.00  0.00    +0.000 A 
ATOM      5  N   UNL     1       2.965   6.704  19.102  0.00  0.00    +0.000 N 
ATOM      6  N   UNL     1       2.026   8.547  17.963  0.00  0.00    +0.000 NA
ATOM      7  C   UNL     1       1.238   9.645  18.021  0.00  0.00    +0.000 A 
ATOM      8  H   UNL     1       3.830   6.924  19.580  0.00  0.00    +0.000 HD
ENDROOT
BRANCH   5   9
ATOM      9  C   UNL     1       3.151   6.012  17.846  0.00  0.00    +0.000 C 
ATOM     10  C   UNL     1       4.622   5.839  17.489  0.00  0.00    +0.000 A 
ATOM     11  C   UNL     1       5.565   6.818  17.208  0.00  0.00    +0.000 A 
ATOM     12  C   UNL     1       6.858   6.411  16.869  0.00  0.00    +0.000 A 
ATOM     13  C   UNL     1       7.192   5.047  16.807  0.00  0.00    +0.000 A 
ATOM     14  C   UNL     1       6.239   4.064  17.081  0.00  0.00    +0.000 A 
ATOM     15  C   UNL     1       4.957   4.466  17.420  0.00  0.00    +0.000 A 
ATOM     16  C   UNL     1       3.786   3.681  17.752  0.00  0.00    +0.000 A 
ATOM     17  C   UNL     1       3.617   2.309  17.841  0.00  0.00    +0.000 A 
ATOM     18  C   UNL     1       2.359   1.815  18.209  0.00  0.00    +0.000 A 
ATOM     19  C   UNL     1       1.293   2.689  18.474  0.00  0.00    +0.000 A 
ATOM     20  C   UNL     1       1.463   4.072  18.375  0.00  0.00    +0.000 A 
ATOM     21  C   UNL     1       2.714   4.557  18.019  0.00  0.00    +0.000 A 
ENDBRANCH   5   9
BRANCH   1  23
ATOM     22  O   UNL     1      -1.193  11.319  20.048  0.00  0.00    +0.000 OA
ATOM     23  C   UNL     1      -0.323  11.212  19.191  0.00  0.00    +0.000 C 
ATOM     24  N   UNL     1      -0.120  12.159  18.214  0.00  0.00    +0.000 N 
ATOM     25  H   UNL     1       0.318  11.959  17.322  0.00  0.00    +0.000 HD
BRANCH  24  26
ATOM     26  O   UNL     1      -1.026  13.247  18.220  0.00  0.00    +0.000 OA
ATOM     27  H   UNL     1      -1.475  13.159  17.352  0.00  0.00    +0.000 HD
ENDBRANCH  24  26
ENDBRANCH   1  23
TORSDOF 3
ENDMDL
MODEL 2
REMARK VINA RESULT:      -8.7      1.549      3.807
REMARK  Name = 
REMARK  3 active torsions:
REMARK  status: ('A' for Active; 'I' for Inactive)
REMARK    1  A    between atoms: C_2  and  C_5
REMARK    2  A    between atoms: N_3  and  O_4
REMARK    3  A    between atoms: N_9  and  C_10
REMARK                            x       y       z     vdW  Elec       q    Type
REMARK                         _______ _______ _______ _____ _____    ______ ____
ROOT
ATOM      1  C   UNL     1       0.841   9.993  20.715  0.00  0.00    +0.000 A 
ATOM      2  C   UNL     1       0.968  10.193  19.365  0.00  0.00    +0.000 A 
ATOM      3  N   UNL     1       1.415   9.235  18.517  0.00  0.00    +0.000 NA
ATOM      4  C   UNL     1       1.784   8.057  19.042  0.00  0.00    +0.000 A 
ATOM      5  N   UNL     1       2.288   7.120  18.160  0.00  0.00    +0.000 N 
ATOM      6  N   UNL     1       1.662   7.766  20.343  0.00  0.00    +0.000 NA
ATOM      7  C   UNL     1       1.170   8.733  21.150  0.00  0.00    +0.000 A 
ATOM      8  H   UNL     1       1.518   6.761  17.609  0.00  0.00    +0.000 HD
ENDROOT
BRANCH   5   9
ATOM      9  C   UNL     1       3.149   6.092  18.701  0.00  0.00    +0.000 C 
ATOM     10  C   UNL     1       2.438   4.751  18.841  0.00  0.00    +0.000 A 
ATOM     11  C   UNL     1       1.362   4.423  19.653  0.00  0.00    +0.000 A 
ATOM     12  C   UNL     1       0.900   3.105  19.635  0.00  0.00    +0.000 A 
ATOM     13  C   UNL     1       1.514   2.135  18.822  0.00  0.00    +0.000 A 
ATOM     14  C   UNL     1       2.603   2.466  18.013  0.00  0.00    +0.000 A 
ATOM     15  C   UNL     1       3.061   3.775  18.028  0.00  0.00    +0.000 A 
ATOM     16  C   UNL     1       4.150   4.393  17.303  0.00  0.00    +0.000 A 
ATOM     17  C   UNL     1       5.034   3.862  16.377  0.00  0.00    +0.000 A 
ATOM     18  C   UNL     1       5.993   4.709  15.808  0.00  0.00    +0.000 A 
ATOM     19  C   UNL     1       6.062   6.064  16.172  0.00  0.00    +0.000 A 
ATOM     20  C   UNL     1       5.175   6.596  17.110  0.00  0.00    +0.000 A 
ATOM     21  C   UNL     1       4.221   5.754  17.665  0.00  0.00    +0.000 A 
ENDBRANCH   5   9
BRANCH   1  23
ATOM     22  O   UNL     1       0.812  12.178  21.583  0.00  0.00    +0.000 OA
ATOM     23  C   UNL     1       0.339  11.047  21.611  0.00  0.00    +0.000 C 
ATOM     24  N   UNL     1      -0.667  10.682  22.476  0.00  0.00    +0.000 N 
ATOM     25  H   UNL     1      -0.833   9.727  22.772  0.00  0.00    +0.000 HD
BRANCH  24  26
ATOM     26  O   UNL     1      -1.086  11.686  23.384  0.00  0.00    +0.000 OA
ATOM     27  H   UNL     1      -1.579  11.173  24.059  0.00  0.00    +0.000 HD
ENDBRANCH  24  26
ENDBRANCH   1  23
TORSDOF 3
ENDMDL
MODEL 3
REMARK VINA RESULT:      -8.5      1.629      1.948
REMARK  Name = 
REMARK  3 active torsions:
REMARK  status: ('A' for Active; 'I' for Inactive)
REMARK    1  A    between atoms: C_2  and  C_5
REMARK    2  A    between atoms: N_3  and  O_4
REMARK    3  A    between atoms: N_9  and  C_10
REMARK                            x       y       z     vdW  Elec       q    Type
REMARK                         _______ _______ _______ _____ _____    ______ ____
ROOT
ATOM      1  C   UNL     1       0.489  10.048  21.030  0.00  0.00    +0.000 A 
ATOM      2  C   UNL     1       1.074   9.206  21.940  0.00  0.00    +0.000 A 
ATOM      3  N   UNL     1       1.791   8.113  21.579  0.00  0.00    +0.000 NA
ATOM      4  C   UNL     1       1.889   7.834  20.270  0.00  0.00    +0.000 A 
ATOM      5  N   UNL     1       2.579   6.684  19.936  0.00  0.00    +0.000 N 
ATOM      6  N   UNL     1       1.378   8.621  19.315  0.00  0.00    +0.000 NA
ATOM      7  C   UNL     1       0.708   9.725  19.714  0.00  0.00    +0.000 A 
ATOM      8  H   UNL     1       3.565   6.853  20.089  0.00  0.00    +0.000 HD
ENDROOT
BRANCH   5   9
ATOM      9  C   UNL     1       2.281   6.079  18.657  0.00  0.00    +0.000 C 
ATOM     10  C   UNL     1       3.504   5.999  17.751  0.00  0.00    +0.000 A 
ATOM     11  C   UNL     1       4.244   7.037  17.204  0.00  0.00    +0.000 A 
ATOM     12  C   UNL     1       5.314   6.715  16.366  0.00  0.00    +0.000 A 
ATOM     13  C   UNL     1       5.628   5.374  16.080  0.00  0.00    +0.000 A 
ATOM     14  C   UNL     1       4.875   4.332  16.624  0.00  0.00    +0.000 A 
ATOM     15  C   UNL     1       3.815   4.650  17.458  0.00  0.00    +0.000 A 
ATOM     16  C   UNL     1       2.880   3.792  18.153  0.00  0.00    +0.000 A 
ATOM     17  C   UNL     1       2.787   2.410  18.198  0.00  0.00    +0.000 A 
ATOM     18  C   UNL     1       1.779   1.835  18.982  0.00  0.00    +0.000 A 
ATOM     19  C   UNL     1       0.879   2.639  19.699  0.00  0.00    +0.000 A 
ATOM     20  C   UNL     1       0.969   4.031  19.646  0.00  0.00    +0.000 A 
ATOM     21  C   UNL     1       1.975   4.597  18.875  0.00  0.00    +0.000 A 
ENDBRANCH   5   9
BRANCH   1  23
ATOM     22  O   UNL     1      -0.350  12.223  20.730  0.00  0.00    +0.000 OA
ATOM     23  C   UNL     1      -0.272  11.235  21.452  0.00  0.00    +0.000 C 
ATOM     24  N   UNL     1      -0.865  11.169  22.691  0.00  0.00    +0.000 N 
ATOM     25  H   UNL     1      -0.548  10.555  23.433  0.00  0.00    +0.000 HD
BRANCH  24  26
ATOM     26  O   UNL     1      -1.527  12.347  23.115  0.00  0.00    +0.000 OA
ATOM     27  H   UNL     1      -1.070  12.563  23.955  0.00  0.00    +0.000 HD
ENDBRANCH  24  26
ENDBRANCH   1  23
TORSDOF 3
ENDMDL
MODEL 4
REMARK VINA RESULT:      -8.4      1.120      3.569
REMARK  Name = 
REMARK  3 active torsions:
REMARK  status: ('A' for Active; 'I' for Inactive)
REMARK    1  A    between atoms: C_2  and  C_5
REMARK    2  A    between atoms: N_3  and  O_4
REMARK    3  A    between atoms: N_9  and  C_10
REMARK                            x       y       z     vdW  Elec       q    Type
REMARK                         _______ _______ _______ _____ _____    ______ ____
ROOT
ATOM      1  C   UNL     1       0.946  10.167  19.854  0.00  0.00    +0.000 A 
ATOM      2  C   UNL     1       1.315  10.343  18.546  0.00  0.00    +0.000 A 
ATOM      3  N   UNL     1       1.906   9.370  17.810  0.00  0.00    +0.000 NA
ATOM      4  C   UNL     1       2.172   8.202  18.415  0.00  0.00    +0.000 A 
ATOM      5  N   UNL     1       2.825   7.250  17.656  0.00  0.00    +0.000 N 
ATOM      6  N   UNL     1       1.815   7.935  19.678  0.00  0.00    +0.000 NA
ATOM      7  C   UNL     1       1.187   8.916  20.365  0.00  0.00    +0.000 A 
ATOM      8  H   UNL     1       2.167   6.879  16.982  0.00  0.00    +0.000 HD
ENDROOT
BRANCH   5   9
ATOM      9  C   UNL     1       3.571   6.233  18.363  0.00  0.00    +0.000 C 
ATOM     10  C   UNL     1       2.893   4.869  18.310  0.00  0.00    +0.000 A 
ATOM     11  C   UNL     1       1.670   4.491  18.845  0.00  0.00    +0.000 A 
ATOM     12  C   UNL     1       1.269   3.161  18.697  0.00  0.00    +0.000 A 
ATOM     13  C   UNL     1       2.085   2.230  18.031  0.00  0.00    +0.000 A 
ATOM     14  C   UNL     1       3.320   2.612  17.502  0.00  0.00    +0.000 A 
ATOM     15  C   UNL     1       3.718   3.932  17.646  0.00  0.00    +0.000 A 
ATOM     16  C   UNL     1       4.924   4.599  17.204  0.00  0.00    +0.000 A 
ATOM     17  C   UNL     1       6.015   4.117  16.498  0.00  0.00    +0.000 A 
ATOM     18  C   UNL     1       7.050   5.004  16.182  0.00  0.00    +0.000 A 
ATOM     19  C   UNL     1       6.989   6.351  16.576  0.00  0.00    +0.000 A 
ATOM     20  C   UNL     1       5.892   6.834  17.293  0.00  0.00    +0.000 A 
ATOM     21  C   UNL     1       4.865   5.952  17.597  0.00  0.00    +0.000 A 
ENDBRANCH   5   9
BRANCH   1  23
ATOM     22  O   UNL     1       0.917  11.892  21.452  0.00  0.00    +0.000 OA
ATOM     23  C   UNL     1       0.292  11.238  20.625  0.00  0.00    +0.000 C 
ATOM     24  N   UNL     1      -1.045  11.440  20.371  0.00  0.00    +0.000 N 
ATOM     25  H   UNL     1      -1.657  10.730  19.984  0.00  0.00    +0.000 HD
BRANCH  24  26
ATOM     26  O   UNL     1      -1.677  12.420  21.174  0.00  0.00    +0.000 OA
ATOM     27  H   UNL     1      -0.921  12.955  21.499  0.00  0.00    +0.000 HD
ENDBRANCH  24  26
ENDBRANCH   1  23
TORSDOF 3
ENDMDL
MODEL 5
REMARK VINA RESULT:      -8.4      5.074      7.668
REMARK  Name = 
REMARK  3 active torsions:
REMARK  status: ('A' for Active; 'I' for Inactive)
REMARK    1  A    between atoms: C_2  and  C_5
REMARK    2  A    between atoms: N_3  and  O_4
REMARK    3  A    between atoms: N_9  and  C_10
REMARK                            x       y       z     vdW  Elec       q    Type
REMARK                         _______ _______ _______ _____ _____    ______ ____
ROOT
ATOM      1  C   UNL     1       6.221   4.330  14.067  0.00  0.00    +0.000 A 
ATOM      2  C   UNL     1       6.765   5.407  14.719  0.00  0.00    +0.000 A 
ATOM      3  N   UNL     1       6.279   5.880  15.892  0.00  0.00    +0.000 NA
ATOM      4  C   UNL     1       5.192   5.284  16.406  0.00  0.00    +0.000 A 
ATOM      5  N   UNL     1       4.687   5.824  17.573  0.00  0.00    +0.000 N 
ATOM      6  N   UNL     1       4.619   4.208  15.853  0.00  0.00    +0.000 NA
ATOM      7  C   UNL     1       5.160   3.737  14.707  0.00  0.00    +0.000 A 
ATOM      8  H   UNL     1       5.316   5.582  18.330  0.00  0.00    +0.000 HD
ENDROOT
BRANCH   5   9
ATOM      9  C   UNL     1       3.293   5.579  17.870  0.00  0.00    +0.000 C 
ATOM     10  C   UNL     1       3.107   4.642  19.058  0.00  0.00    +0.000 A 
ATOM     11  C   UNL     1       3.473   3.309  19.173  0.00  0.00    +0.000 A 
ATOM     12  C   UNL     1       3.164   2.640  20.360  0.00  0.00    +0.000 A 
ATOM     13  C   UNL     1       2.493   3.298  21.406  0.00  0.00    +0.000 A 
ATOM     14  C   UNL     1       2.117   4.637  21.283  0.00  0.00    +0.000 A 
ATOM     15  C   UNL     1       2.426   5.303  20.107  0.00  0.00    +0.000 A 
ATOM     16  C   UNL     1       2.166   6.670  19.710  0.00  0.00    +0.000 A 
ATOM     17  C   UNL     1       1.551   7.707  20.394  0.00  0.00    +0.000 A 
ATOM     18  C   UNL     1       1.452   8.954  19.766  0.00  0.00    +0.000 A 
ATOM     19  C   UNL     1       1.956   9.148  18.470  0.00  0.00    +0.000 A 
ATOM     20  C   UNL     1       2.569   8.101  17.778  0.00  0.00    +0.000 A 
ATOM     21  C   UNL     1       2.672   6.869  18.409  0.00  0.00    +0.000 A 
ENDBRANCH   5   9
BRANCH   1  23
ATOM     22  O   UNL     1       7.501   4.534  12.106  0.00  0.00    +0.000 OA
ATOM     23  C   UNL     1       6.779   3.828  12.801  0.00  0.00    +0.000 C 
ATOM     24  N   UNL     1       6.430   2.545  12.449  0.00  0.00    +0.000 N 
ATOM     25  H   UNL     1       5.595   2.078  12.786  0.00  0.00    +0.000 HD
BRANCH  24  26
ATOM     26  O   UNL     1       6.911   2.104  11.192  0.00  0.00    +0.000 OA
ATOM     27  H   UNL     1       7.085   2.947  10.720  0.00  0.00    +0.000 HD
ENDBRANCH  24  26
ENDBRANCH   1  23
TORSDOF 3
ENDMDL
MODEL 6
REMARK VINA RESULT:      -8.2      1.574      1.655
REMARK  Name = 
REMARK  3 active torsions:
REMARK  status: ('A' for Active; 'I' for Inactive)
REMARK    1  A    between atoms: C_2  and  C_5
REMARK    2  A    between atoms: N_3  and  O_4
REMARK    3  A    between atoms: N_9  and  C_10
REMARK                            x       y       z     vdW  Elec       q    Type
REMARK                         _______ _______ _______ _____ _____    ______ ____
ROOT
ATOM      1  C   UNL     1      -0.022  10.437  18.815  0.00  0.00    +0.000 A 
ATOM      2  C   UNL     1       0.314  10.155  20.114  0.00  0.00    +0.000 A 
ATOM      3  N   UNL     1       1.148   9.143  20.455  0.00  0.00    +0.000 NA
ATOM      4  C   UNL     1       1.626   8.366  19.471  0.00  0.00    +0.000 A 
ATOM      5  N   UNL     1       2.429   7.309  19.856  0.00  0.00    +0.000 N 
ATOM      6  N   UNL     1       1.377   8.592  18.175  0.00  0.00    +0.000 NA
ATOM      7  C   UNL     1       0.576   9.639  17.872  0.00  0.00    +0.000 A 
ATOM      8  H   UNL     1       3.324   7.684  20.148  0.00  0.00    +0.000 HD
ENDROOT
BRANCH   5   9
ATOM      9  C   UNL     1       2.533   6.189  18.947  0.00  0.00    +0.000 C 
ATOM     10  C   UNL     1       3.938   6.029  18.377  0.00  0.00    +0.000 A 
ATOM     11  C   UNL     1       4.640   6.897  17.553  0.00  0.00    +0.000 A 
ATOM     12  C   UNL     1       5.915   6.515  17.126  0.00  0.00    +0.000 A 
ATOM     13  C   UNL     1       6.467   5.282  17.516  0.00  0.00    +0.000 A 
ATOM     14  C   UNL     1       5.753   4.407  18.338  0.00  0.00    +0.000 A 
ATOM     15  C   UNL     1       4.490   4.786  18.764  0.00  0.00    +0.000 A 
ATOM     16  C   UNL     1       3.540   4.094  19.609  0.00  0.00    +0.000 A 
ATOM     17  C   UNL     1       3.628   2.866  20.246  0.00  0.00    +0.000 A 
ATOM     18  C   UNL     1       2.548   2.444  21.032  0.00  0.00    +0.000 A 
ATOM     19  C   UNL     1       1.401   3.243  21.166  0.00  0.00    +0.000 A 
ATOM     20  C   UNL     1       1.311   4.477  20.518  0.00  0.00    +0.000 A 
ATOM     21  C   UNL     1       2.388   4.894  19.747  0.00  0.00    +0.000 A 
ENDBRANCH   5   9
BRANCH   1  23
ATOM     22  O   UNL     1      -0.521  12.712  18.488  0.00  0.00    +0.000 OA
ATOM     23  C   UNL     1      -0.920  11.553  18.472  0.00  0.00    +0.000 C 
ATOM     24  N   UNL     1      -2.214  11.215  18.152  0.00  0.00    +0.000 N 
ATOM     25  H   UNL     1      -2.663  10.358  18.457  0.00  0.00    +0.000 HD
BRANCH  24  26
ATOM     26  O   UNL     1      -3.085  12.303  17.900  0.00  0.00    +0.000 OA
ATOM     27  H   UNL     1      -2.480  12.983  17.533  0.00  0.00    +0.000 HD
ENDBRANCH  24  26
ENDBRANCH   1  23
TORSDOF 3
ENDMDL
MODEL 7
REMARK VINA RESULT:      -7.4      4.904      7.507
REMARK  Name = 
REMARK  3 active torsions:
REMARK  status: ('A' for Active; 'I' for Inactive)
REMARK    1  A    between atoms: C_2  and  C_5
REMARK    2  A    between atoms: N_3  and  O_4
REMARK    3  A    between atoms: N_9  and  C_10
REMARK                            x       y       z     vdW  Elec       q    Type
REMARK                         _______ _______ _______ _____ _____    ______ ____
ROOT
ATOM      1  C   UNL     1       6.800   4.849  14.596  0.00  0.00    +0.000 A 
ATOM      2  C   UNL     1       7.387   5.373  15.719  0.00  0.00    +0.000 A 
ATOM      3  N   UNL     1       6.812   5.319  16.945  0.00  0.00    +0.000 NA
ATOM      4  C   UNL     1       5.596   4.760  17.042  0.00  0.00    +0.000 A 
ATOM      5  N   UNL     1       5.012   4.770  18.294  0.00  0.00    +0.000 N 
ATOM      6  N   UNL     1       4.967   4.195  16.004  0.00  0.00    +0.000 NA
ATOM      7  C   UNL     1       5.593   4.230  14.806  0.00  0.00    +0.000 A 
ATOM      8  H   UNL     1       5.494   4.091  18.871  0.00  0.00    +0.000 HD
ENDROOT
BRANCH   5   9
ATOM      9  C   UNL     1       3.571   4.672  18.356  0.00  0.00    +0.000 C 
ATOM     10  C   UNL     1       3.091   3.907  19.584  0.00  0.00    +0.000 A 
ATOM     11  C   UNL     1       3.299   2.574  19.907  0.00  0.00    +0.000 A 
ATOM     12  C   UNL     1       2.725   2.082  21.083  0.00  0.00    +0.000 A 
ATOM     13  C   UNL     1       1.952   2.915  21.911  0.00  0.00    +0.000 A 
ATOM     14  C   UNL     1       1.736   4.254  21.578  0.00  0.00    +0.000 A 
ATOM     15  C   UNL     1       2.308   4.743  20.413  0.00  0.00    +0.000 A 
ATOM     16  C   UNL     1       2.256   6.067  19.830  0.00  0.00    +0.000 A 
ATOM     17  C   UNL     1       1.637   7.224  20.274  0.00  0.00    +0.000 A 
ATOM     18  C   UNL     1       1.771   8.388  19.507  0.00  0.00    +0.000 A 
ATOM     19  C   UNL     1       2.508   8.381  18.312  0.00  0.00    +0.000 A 
ATOM     20  C   UNL     1       3.124   7.212  17.861  0.00  0.00    +0.000 A 
ATOM     21  C   UNL     1       2.996   6.062  18.630  0.00  0.00    +0.000 A 
ENDBRANCH   5   9
BRANCH   1  23
ATOM     22  O   UNL     1       8.398   5.666  13.077  0.00  0.00    +0.000 OA
ATOM     23  C   UNL     1       7.454   4.910  13.279  0.00  0.00    +0.000 C 
ATOM     24  N   UNL     1       6.938   4.087  12.305  0.00  0.00    +0.000 N 
ATOM     25  H   UNL     1       5.988   3.731  12.317  0.00  0.00    +0.000 HD
BRANCH  24  26
ATOM     26  O   UNL     1       7.527   4.213  11.024  0.00  0.00    +0.000 OA
ATOM     27  H   UNL     1       7.503   5.182  10.869  0.00  0.00    +0.000 HD
ENDBRANCH  24  26
ENDBRANCH   1  23
TORSDOF 3
ENDMDL
MODEL 8
REMARK VINA RESULT:      -7.3      3.526      8.360
REMARK  Name = 
REMARK  3 active torsions:
REMARK  status: ('A' for Active; 'I' for Inactive)
REMARK    1  A    between atoms: C_2  and  C_5
REMARK    2  A    between atoms: N_3  and  O_4
REMARK    3  A    between atoms: N_9  and  C_10
REMARK                            x       y       z     vdW  Elec       q    Type
REMARK                         _______ _______ _______ _____ _____    ______ ____
ROOT
ATOM      1  C   UNL     1       3.129   6.922  18.397  0.00  0.00    +0.000 A 
ATOM      2  C   UNL     1       3.174   7.897  17.434  0.00  0.00    +0.000 A 
ATOM      3  N   UNL     1       2.393   9.004  17.469  0.00  0.00    +0.000 NA
ATOM      4  C   UNL     1       1.513   9.117  18.476  0.00  0.00    +0.000 A 
ATOM      5  N   UNL     1       0.693  10.229  18.454  0.00  0.00    +0.000 N 
ATOM      6  N   UNL     1       1.427   8.230  19.475  0.00  0.00    +0.000 NA
ATOM      7  C   UNL     1       2.255   7.162  19.428  0.00  0.00    +0.000 A 
ATOM      8  H   UNL     1       1.251  11.037  18.702  0.00  0.00    +0.000 HD
ENDROOT
BRANCH   5   9
ATOM      9  C   UNL     1      -0.561  10.144  19.170  0.00  0.00    +0.000 C 
ATOM     10  C   UNL     1      -0.764  11.309  20.131  0.00  0.00    +0.000 A 
ATOM     11  C   UNL     1      -0.024  11.638  21.258  0.00  0.00    +0.000 A 
ATOM     12  C   UNL     1      -0.426  12.745  22.011  0.00  0.00    +0.000 A 
ATOM     13  C   UNL     1      -1.553  13.499  21.641  0.00  0.00    +0.000 A 
ATOM     14  C   UNL     1      -2.301  13.159  20.511  0.00  0.00    +0.000 A 
ATOM     15  C   UNL     1      -1.902  12.063  19.762  0.00  0.00    +0.000 A 
ATOM     16  C   UNL     1      -2.475  11.490  18.563  0.00  0.00    +0.000 A 
ATOM     17  C   UNL     1      -3.573  11.881  17.812  0.00  0.00    +0.000 A 
ATOM     18  C   UNL     1      -3.894  11.143  16.667  0.00  0.00    +0.000 A 
ATOM     19  C   UNL     1      -3.127  10.028  16.290  0.00  0.00    +0.000 A 
ATOM     20  C   UNL     1      -2.025   9.631  17.052  0.00  0.00    +0.000 A 
ATOM     21  C   UNL     1      -1.706  10.371  18.182  0.00  0.00    +0.000 A 
ENDBRANCH   5   9
BRANCH   1  23
ATOM     22  O   UNL     1       3.865   4.895  17.460  0.00  0.00    +0.000 OA
ATOM     23  C   UNL     1       4.000   5.736  18.341  0.00  0.00    +0.000 C 
ATOM     24  N   UNL     1       4.947   5.630  19.333  0.00  0.00    +0.000 N 
ATOM     25  H   UNL     1       4.867   6.084  20.236  0.00  0.00    +0.000 HD
BRANCH  24  26
ATOM     26  O   UNL     1       5.725   4.447  19.310  0.00  0.00    +0.000 OA
ATOM     27  H   UNL     1       5.150   3.820  18.822  0.00  0.00    +0.000 HD
ENDBRANCH  24  26
ENDBRANCH   1  23
TORSDOF 3
ENDMDL
MODEL 9
REMARK VINA RESULT:      -7.1      4.922      7.514
REMARK  Name = 
REMARK  3 active torsions:
REMARK  status: ('A' for Active; 'I' for Inactive)
REMARK    1  A    between atoms: C_2  and  C_5
REMARK    2  A    between atoms: N_3  and  O_4
REMARK    3  A    between atoms: N_9  and  C_10
REMARK                            x       y       z     vdW  Elec       q    Type
REMARK                         _______ _______ _______ _____ _____    ______ ____
ROOT
ATOM      1  C   UNL     1       6.839   4.771  14.515  0.00  0.00    +0.000 A 
ATOM      2  C   UNL     1       7.429   4.897  15.747  0.00  0.00    +0.000 A 
ATOM      3  N   UNL     1       6.773   4.646  16.906  0.00  0.00    +0.000 NA
ATOM      4  C   UNL     1       5.479   4.299  16.831  0.00  0.00    +0.000 A 
ATOM      5  N   UNL     1       4.823   4.104  18.031  0.00  0.00    +0.000 N 
ATOM      6  N   UNL     1       4.836   4.120  15.670  0.00  0.00    +0.000 NA
ATOM      7  C   UNL     1       5.537   4.337  14.534  0.00  0.00    +0.000 A 
ATOM      8  H   UNL     1       5.150   3.232  18.430  0.00  0.00    +0.000 HD
ENDROOT
BRANCH   5   9
ATOM      9  C   UNL     1       3.384   4.243  18.033  0.00  0.00    +0.000 C 
ATOM     10  C   UNL     1       2.735   3.585  19.245  0.00  0.00    +0.000 A 
ATOM     11  C   UNL     1       2.709   2.241  19.588  0.00  0.00    +0.000 A 
ATOM     12  C   UNL     1       2.015   1.868  20.742  0.00  0.00    +0.000 A 
ATOM     13  C   UNL     1       1.356   2.828  21.530  0.00  0.00    +0.000 A 
ATOM     14  C   UNL     1       1.376   4.179  21.176  0.00  0.00    +0.000 A 
ATOM     15  C   UNL     1       2.066   4.551  20.033  0.00  0.00    +0.000 A 
ATOM     16  C   UNL     1       2.256   5.856  19.437  0.00  0.00    +0.000 A 
ATOM     17  C   UNL     1       1.818   7.106  19.845  0.00  0.00    +0.000 A 
ATOM     18  C   UNL     1       2.171   8.220  19.074  0.00  0.00    +0.000 A 
ATOM     19  C   UNL     1       2.945   8.075  17.912  0.00  0.00    +0.000 A 
ATOM     20  C   UNL     1       3.380   6.814  17.498  0.00  0.00    +0.000 A 
ATOM     21  C   UNL     1       3.034   5.713  18.270  0.00  0.00    +0.000 A 
ENDBRANCH   5   9
BRANCH   1  23
ATOM     22  O   UNL     1       7.321   4.427  12.239  0.00  0.00    +0.000 OA
ATOM     23  C   UNL     1       7.581   5.037  13.271  0.00  0.00    +0.000 C 
ATOM     24  N   UNL     1       8.574   5.985  13.346  0.00  0.00    +0.000 N 
ATOM     25  H   UNL     1       9.042   6.241  14.208  0.00  0.00    +0.000 HD
BRANCH  24  26
ATOM     26  O   UNL     1       9.329   6.174  12.162  0.00  0.00    +0.000 OA
ATOM     27  H   UNL     1       9.906   6.933  12.392  0.00  0.00    +0.000 HD
ENDBRANCH  24  26
ENDBRANCH   1  23
TORSDOF 3
ENDMDL
