MODEL 1
REMARK VINA RESULT:      -6.0      0.000      0.000
REMARK  Name = 
REMARK  7 active torsions:
REMARK  status: ('A' for Active; 'I' for Inactive)
REMARK    1  A    between atoms: O_1  and  C_2
REMARK    2  A    between atoms: C_2  and  C_3
REMARK    3  A    between atoms: C_3  and  O_4
REMARK    4  A    between atoms: O_4  and  C_5
REMARK    5  A    between atoms: C_5  and  C_6
REMARK    6  A    between atoms: C_6  and  N_7
REMARK    7  A    between atoms: N_7  and  C_8
REMARK                            x       y       z     vdW  Elec       q    Type
REMARK                         _______ _______ _______ _____ _____    ______ ____
ROOT
ATOM      1  C   UNL     1       5.977   4.340  18.405  0.00  0.00    +0.000 A 
ATOM      2  N   UNL     1       6.621   5.236  19.239  0.00  0.00    +0.000 N 
ATOM      3  C   UNL     1       7.495   6.174  18.755  0.00  0.00    +0.000 A 
ATOM      4  N   UNL     1       7.798   6.366  17.514  0.00  0.00    +0.000 NA
ATOM      5  C   UNL     1       7.154   5.528  16.647  0.00  0.00    +0.000 A 
ATOM      6  N   UNL     1       7.270   5.490  15.358  0.00  0.00    +0.000 NA
ATOM      7  C   UNL     1       6.420   4.449  15.010  0.00  0.00    +0.000 A 
ATOM      8  N   UNL     1       5.792   3.828  15.970  0.00  0.00    +0.000 NA
ATOM      9  C   UNL     1       6.221   4.489  17.090  0.00  0.00    +0.000 A 
ATOM     10  H   UNL     1       6.456   5.141  20.229  0.00  0.00    +0.000 HD
ENDROOT
BRANCH   1  11
ATOM     11  N   UNL     1       5.169   3.363  18.937  0.00  0.00    +0.000 N 
ATOM     12  H   UNL     1       5.607   2.468  19.119  0.00  0.00    +0.000 HD
BRANCH  11  13
ATOM     13  C   UNL     1       3.724   3.296  18.700  0.00  0.00    +0.000 C 
BRANCH  13  14
ATOM     14  C   UNL     1       3.038   4.581  19.165  0.00  0.00    +0.000 C 
BRANCH  14  15
ATOM     15  O   UNL     1       2.735   4.499  20.558  0.00  0.00    +0.000 OA
BRANCH  15  16
ATOM     16  C   UNL     1       1.397   4.051  20.766  0.00  0.00    +0.000 C 
BRANCH  16  17
ATOM     17  C   UNL     1       1.413   2.737  21.533  0.00  0.00    +0.000 C 
BRANCH  17  18
ATOM     18  O   UNL     1       2.708   2.514  22.074  0.00  0.00    +0.000 OA
ATOM     19  H   UNL     1       3.277   3.230  21.743  0.00  0.00    +0.000 HD
ENDBRANCH  17  18
ENDBRANCH  16  17
ENDBRANCH  15  16
ENDBRANCH  14  15
ENDBRANCH  13  14
ENDBRANCH  11  13
ENDBRANCH   1  11
TORSDOF 7
ENDMDL
MODEL 2
REMARK VINA RESULT:      -6.0      1.584      1.880
REMARK  Name = 
REMARK  7 active torsions:
REMARK  status: ('A' for Active; 'I' for Inactive)
REMARK    1  A    between atoms: O_1  and  C_2
REMARK    2  A    between atoms: C_2  and  C_3
REMARK    3  A    between atoms: C_3  and  O_4
REMARK    4  A    between atoms: O_4  and  C_5
REMARK    5  A    between atoms: C_5  and  C_6
REMARK    6  A    between atoms: C_6  and  N_7
REMARK    7  A    between atoms: N_7  and  C_8
REMARK                            x       y       z     vdW  Elec       q    Type
REMARK                         _______ _______ _______ _____ _____    ______ ____
ROOT
ATOM      1  C   UNL     1       4.805   5.313  17.831  0.00  0.00    +0.000 A 
ATOM      2  N   UNL     1       5.339   5.506  19.092  0.00  0.00    +0.000 N 
ATOM      3  C   UNL     1       6.674   5.326  19.346  0.00  0.00    +0.000 A 
ATOM      4  N   UNL     1       7.578   5.003  18.481  0.00  0.00    +0.000 NA
ATOM      5  C   UNL     1       7.103   4.840  17.211  0.00  0.00    +0.000 A 
ATOM      6  N   UNL     1       7.776   4.512  16.154  0.00  0.00    +0.000 NA
ATOM      7  C   UNL     1       6.795   4.472  15.173  0.00  0.00    +0.000 A 
ATOM      8  N   UNL     1       5.567   4.735  15.527  0.00  0.00    +0.000 NA
ATOM      9  C   UNL     1       5.687   4.997  16.866  0.00  0.00    +0.000 A 
ATOM     10  H   UNL     1       4.695   5.740  19.832  0.00  0.00    +0.000 HD
ENDROOT
BRANCH   1  11
ATOM     11  N   UNL     1       3.448   5.426  17.633  0.00  0.00    +0.000 N 
ATOM     12  H   UNL     1       3.150   5.673  16.697  0.00  0.00    +0.000 HD
BRANCH  11  13
ATOM     13  C   UNL     1       2.509   5.808  18.692  0.00  0.00    +0.000 C 
BRANCH  13  14
ATOM     14  C   UNL     1       1.961   4.571  19.403  0.00  0.00    +0.000 C 
BRANCH  14  15
ATOM     15  O   UNL     1       2.838   4.186  20.463  0.00  0.00    +0.000 OA
BRANCH  15  16
ATOM     16  C   UNL     1       2.893   2.767  20.594  0.00  0.00    +0.000 C 
BRANCH  16  17
ATOM     17  C   UNL     1       3.728   2.183  19.465  0.00  0.00    +0.000 C 
BRANCH  17  18
ATOM     18  O   UNL     1       5.109   2.369  19.745  0.00  0.00    +0.000 OA
ATOM     19  H   UNL     1       5.195   2.413  20.713  0.00  0.00    +0.000 HD
ENDBRANCH  17  18
ENDBRANCH  16  17
ENDBRANCH  15  16
ENDBRANCH  14  15
ENDBRANCH  13  14
ENDBRANCH  11  13
ENDBRANCH   1  11
TORSDOF 7
ENDMDL
MODEL 3
REMARK VINA RESULT:      -5.9      1.409      1.697
REMARK  Name = 
REMARK  7 active torsions:
REMARK  status: ('A' for Active; 'I' for Inactive)
REMARK    1  A    between atoms: O_1  and  C_2
REMARK    2  A    between atoms: C_2  and  C_3
REMARK    3  A    between atoms: C_3  and  O_4
REMARK    4  A    between atoms: O_4  and  C_5
REMARK    5  A    between atoms: C_5  and  C_6
REMARK    6  A    between atoms: C_6  and  N_7
REMARK    7  A    between atoms: N_7  and  C_8
REMARK                            x       y       z     vdW  Elec       q    Type
REMARK                         _______ _______ _______ _____ _____    ______ ____
ROOT
ATOM      1  C   UNL     1       4.663   4.925  17.944  0.00  0.00    +0.000 A 
ATOM      2  N   UNL     1       5.191   5.247  19.181  0.00  0.00    +0.000 N 
ATOM      3  C   UNL     1       6.543   5.268  19.407  0.00  0.00    +0.000 A 
ATOM      4  N   UNL     1       7.465   5.036  18.533  0.00  0.00    +0.000 NA
ATOM      5  C   UNL     1       6.992   4.751  17.284  0.00  0.00    +0.000 A 
ATOM      6  N   UNL     1       7.683   4.473  16.225  0.00  0.00    +0.000 NA
ATOM      7  C   UNL     1       6.698   4.251  15.272  0.00  0.00    +0.000 A 
ATOM      8  N   UNL     1       5.452   4.355  15.647  0.00  0.00    +0.000 NA
ATOM      9  C   UNL     1       5.562   4.692  16.970  0.00  0.00    +0.000 A 
ATOM     10  H   UNL     1       4.536   5.422  19.928  0.00  0.00    +0.000 HD
ENDROOT
BRANCH   1  11
ATOM     11  N   UNL     1       3.301   4.837  17.779  0.00  0.00    +0.000 N 
ATOM     12  H   UNL     1       2.751   5.590  18.174  0.00  0.00    +0.000 HD
BRANCH  11  13
ATOM     13  C   UNL     1       2.586   3.564  17.650  0.00  0.00    +0.000 C 
BRANCH  13  14
ATOM     14  C   UNL     1       2.969   2.610  18.782  0.00  0.00    +0.000 C 
BRANCH  14  15
ATOM     15  O   UNL     1       1.819   2.296  19.568  0.00  0.00    +0.000 OA
BRANCH  15  16
ATOM     16  C   UNL     1       1.236   3.475  20.118  0.00  0.00    +0.000 C 
BRANCH  16  17
ATOM     17  C   UNL     1       2.129   4.017  21.225  0.00  0.00    +0.000 C 
BRANCH  17  18
ATOM     18  O   UNL     1       2.581   5.320  20.880  0.00  0.00    +0.000 OA
ATOM     19  H   UNL     1       1.955   5.949  21.280  0.00  0.00    +0.000 HD
ENDBRANCH  17  18
ENDBRANCH  16  17
ENDBRANCH  15  16
ENDBRANCH  14  15
ENDBRANCH  13  14
ENDBRANCH  11  13
ENDBRANCH   1  11
TORSDOF 7
ENDMDL
MODEL 4
REMARK VINA RESULT:      -5.9      1.281      2.699
REMARK  Name = 
REMARK  7 active torsions:
REMARK  status: ('A' for Active; 'I' for Inactive)
REMARK    1  A    between atoms: O_1  and  C_2
REMARK    2  A    between atoms: C_2  and  C_3
REMARK    3  A    between atoms: C_3  and  O_4
REMARK    4  A    between atoms: O_4  and  C_5
REMARK    5  A    between atoms: C_5  and  C_6
REMARK    6  A    between atoms: C_6  and  N_7
REMARK    7  A    between atoms: N_7  and  C_8
REMARK                            x       y       z     vdW  Elec       q    Type
REMARK                         _______ _______ _______ _____ _____    ______ ____
ROOT
ATOM      1  C   UNL     1       4.929   4.018  17.143  0.00  0.00    +0.000 A 
ATOM      2  N   UNL     1       5.341   3.836  15.836  0.00  0.00    +0.000 N 
ATOM      3  C   UNL     1       6.576   4.246  15.404  0.00  0.00    +0.000 A 
ATOM      4  N   UNL     1       7.492   4.799  16.129  0.00  0.00    +0.000 NA
ATOM      5  C   UNL     1       7.144   4.963  17.440  0.00  0.00    +0.000 A 
ATOM      6  N   UNL     1       7.857   5.491  18.383  0.00  0.00    +0.000 NA
ATOM      7  C   UNL     1       7.007   5.419  19.479  0.00  0.00    +0.000 A 
ATOM      8  N   UNL     1       5.822   4.901  19.299  0.00  0.00    +0.000 NA
ATOM      9  C   UNL     1       5.836   4.567  17.970  0.00  0.00    +0.000 A 
ATOM     10  H   UNL     1       4.675   3.429  15.197  0.00  0.00    +0.000 HD
ENDROOT
BRANCH   1  11
ATOM     11  N   UNL     1       3.653   3.665  17.518  0.00  0.00    +0.000 N 
ATOM     12  H   UNL     1       3.025   4.427  17.745  0.00  0.00    +0.000 HD
BRANCH  11  13
ATOM     13  C   UNL     1       3.328   2.393  18.170  0.00  0.00    +0.000 C 
BRANCH  13  14
ATOM     14  C   UNL     1       1.840   2.324  18.514  0.00  0.00    +0.000 C 
BRANCH  14  15
ATOM     15  O   UNL     1       1.655   2.480  19.921  0.00  0.00    +0.000 OA
BRANCH  15  16
ATOM     16  C   UNL     1       1.185   3.790  20.235  0.00  0.00    +0.000 C 
BRANCH  16  17
ATOM     17  C   UNL     1       2.208   4.503  21.107  0.00  0.00    +0.000 C 
BRANCH  17  18
ATOM     18  O   UNL     1       3.088   5.262  20.289  0.00  0.00    +0.000 OA
ATOM     19  H   UNL     1       3.956   5.253  20.729  0.00  0.00    +0.000 HD
ENDBRANCH  17  18
ENDBRANCH  16  17
ENDBRANCH  15  16
ENDBRANCH  14  15
ENDBRANCH  13  14
ENDBRANCH  11  13
ENDBRANCH   1  11
TORSDOF 7
ENDMDL
MODEL 5
REMARK VINA RESULT:      -5.9      1.761      2.941
REMARK  Name = 
REMARK  7 active torsions:
REMARK  status: ('A' for Active; 'I' for Inactive)
REMARK    1  A    between atoms: O_1  and  C_2
REMARK    2  A    between atoms: C_2  and  C_3
REMARK    3  A    between atoms: C_3  and  O_4
REMARK    4  A    between atoms: O_4  and  C_5
REMARK    5  A    between atoms: C_5  and  C_6
REMARK    6  A    between atoms: C_6  and  N_7
REMARK    7  A    between atoms: N_7  and  C_8
REMARK                            x       y       z     vdW  Elec       q    Type
REMARK                         _______ _______ _______ _____ _____    ______ ____
ROOT
ATOM      1  C   UNL     1       4.494   5.039  18.859  0.00  0.00    +0.000 A 
ATOM      2  N   UNL     1       3.821   4.497  17.779  0.00  0.00    +0.000 N 
ATOM      3  C   UNL     1       4.481   4.073  16.656  0.00  0.00    +0.000 A 
ATOM      4  N   UNL     1       5.760   4.086  16.472  0.00  0.00    +0.000 NA
ATOM      5  C   UNL     1       6.471   4.577  17.531  0.00  0.00    +0.000 A 
ATOM      6  N   UNL     1       7.755   4.713  17.621  0.00  0.00    +0.000 NA
ATOM      7  C   UNL     1       7.911   5.273  18.882  0.00  0.00    +0.000 A 
ATOM      8  N   UNL     1       6.835   5.508  19.582  0.00  0.00    +0.000 NA
ATOM      9  C   UNL     1       5.835   5.067  18.756  0.00  0.00    +0.000 A 
ATOM     10  H   UNL     1       2.814   4.470  17.833  0.00  0.00    +0.000 HD
ENDROOT
BRANCH   1  11
ATOM     11  N   UNL     1       3.790   5.527  19.935  0.00  0.00    +0.000 N 
ATOM     12  H   UNL     1       4.107   5.233  20.851  0.00  0.00    +0.000 HD
BRANCH  11  13
ATOM     13  C   UNL     1       2.371   5.889  19.871  0.00  0.00    +0.000 C 
BRANCH  13  14
ATOM     14  C   UNL     1       1.509   4.836  20.567  0.00  0.00    +0.000 C 
BRANCH  14  15
ATOM     15  O   UNL     1       2.160   3.565  20.526  0.00  0.00    +0.000 OA
BRANCH  15  16
ATOM     16  C   UNL     1       1.231   2.522  20.240  0.00  0.00    +0.000 C 
BRANCH  16  17
ATOM     17  C   UNL     1       0.984   2.455  18.740  0.00  0.00    +0.000 C 
BRANCH  17  18
ATOM     18  O   UNL     1       2.101   1.853  18.098  0.00  0.00    +0.000 OA
ATOM     19  H   UNL     1       2.891   2.124  18.597  0.00  0.00    +0.000 HD
ENDBRANCH  17  18
ENDBRANCH  16  17
ENDBRANCH  15  16
ENDBRANCH  14  15
ENDBRANCH  13  14
ENDBRANCH  11  13
ENDBRANCH   1  11
TORSDOF 7
ENDMDL
MODEL 6
REMARK VINA RESULT:      -5.8      1.929      2.287
REMARK  Name = 
REMARK  7 active torsions:
REMARK  status: ('A' for Active; 'I' for Inactive)
REMARK    1  A    between atoms: O_1  and  C_2
REMARK    2  A    between atoms: C_2  and  C_3
REMARK    3  A    between atoms: C_3  and  O_4
REMARK    4  A    between atoms: O_4  and  C_5
REMARK    5  A    between atoms: C_5  and  C_6
REMARK    6  A    between atoms: C_6  and  N_7
REMARK    7  A    between atoms: N_7  and  C_8
REMARK                            x       y       z     vdW  Elec       q    Type
REMARK                         _______ _______ _______ _____ _____    ______ ____
ROOT
ATOM      1  C   UNL     1       4.486   4.218  17.529  0.00  0.00    +0.000 A 
ATOM      2  N   UNL     1       3.878   5.365  18.007  0.00  0.00    +0.000 N 
ATOM      3  C   UNL     1       4.106   6.593  17.442  0.00  0.00    +0.000 A 
ATOM      4  N   UNL     1       4.853   6.833  16.416  0.00  0.00    +0.000 NA
ATOM      5  C   UNL     1       5.446   5.723  15.884  0.00  0.00    +0.000 A 
ATOM      6  N   UNL     1       6.245   5.668  14.867  0.00  0.00    +0.000 NA
ATOM      7  C   UNL     1       6.550   4.316  14.797  0.00  0.00    +0.000 A 
ATOM      8  N   UNL     1       6.019   3.523  15.687  0.00  0.00    +0.000 NA
ATOM      9  C   UNL     1       5.265   4.381  16.444  0.00  0.00    +0.000 A 
ATOM     10  H   UNL     1       3.292   5.267  18.822  0.00  0.00    +0.000 HD
ENDROOT
BRANCH   1  11
ATOM     11  N   UNL     1       4.295   3.018  18.172  0.00  0.00    +0.000 N 
ATOM     12  H   UNL     1       3.549   2.432  17.817  0.00  0.00    +0.000 HD
BRANCH  11  13
ATOM     13  C   UNL     1       4.619   2.801  19.585  0.00  0.00    +0.000 C 
BRANCH  13  14
ATOM     14  C   UNL     1       3.347   2.599  20.409  0.00  0.00    +0.000 C 
BRANCH  14  15
ATOM     15  O   UNL     1       2.416   3.647  20.137  0.00  0.00    +0.000 OA
BRANCH  15  16
ATOM     16  C   UNL     1       1.079   3.152  20.111  0.00  0.00    +0.000 C 
BRANCH  16  17
ATOM     17  C   UNL     1       0.758   2.621  18.722  0.00  0.00    +0.000 C 
BRANCH  17  18
ATOM     18  O   UNL     1       1.221   3.539  17.740  0.00  0.00    +0.000 OA
ATOM     19  H   UNL     1       0.436   3.996  17.392  0.00  0.00    +0.000 HD
ENDBRANCH  17  18
ENDBRANCH  16  17
ENDBRANCH  15  16
ENDBRANCH  14  15
ENDBRANCH  13  14
ENDBRANCH  11  13
ENDBRANCH   1  11
TORSDOF 7
ENDMDL
MODEL 7
REMARK VINA RESULT:      -5.8      0.844      2.215
REMARK  Name = 
REMARK  7 active torsions:
REMARK  status: ('A' for Active; 'I' for Inactive)
REMARK    1  A    between atoms: O_1  and  C_2
REMARK    2  A    between atoms: C_2  and  C_3
REMARK    3  A    between atoms: C_3  and  O_4
REMARK    4  A    between atoms: O_4  and  C_5
REMARK    5  A    between atoms: C_5  and  C_6
REMARK    6  A    between atoms: C_6  and  N_7
REMARK    7  A    between atoms: N_7  and  C_8
REMARK                            x       y       z     vdW  Elec       q    Type
REMARK                         _______ _______ _______ _____ _____    ______ ____
ROOT
ATOM      1  C   UNL     1       5.977   4.223  17.791  0.00  0.00    +0.000 A 
ATOM      2  N   UNL     1       5.566   3.747  16.560  0.00  0.00    +0.000 N 
ATOM      3  C   UNL     1       5.833   4.423  15.397  0.00  0.00    +0.000 A 
ATOM      4  N   UNL     1       6.501   5.523  15.292  0.00  0.00    +0.000 NA
ATOM      5  C   UNL     1       6.963   6.012  16.481  0.00  0.00    +0.000 A 
ATOM      6  N   UNL     1       7.651   7.092  16.674  0.00  0.00    +0.000 NA
ATOM      7  C   UNL     1       7.815   7.102  18.052  0.00  0.00    +0.000 A 
ATOM      8  N   UNL     1       7.282   6.128  18.737  0.00  0.00    +0.000 NA
ATOM      9  C   UNL     1       6.702   5.356  17.765  0.00  0.00    +0.000 A 
ATOM     10  H   UNL     1       5.017   2.900  16.555  0.00  0.00    +0.000 HD
ENDROOT
BRANCH   1  11
ATOM     11  N   UNL     1       5.621   3.558  18.941  0.00  0.00    +0.000 N 
ATOM     12  H   UNL     1       6.240   2.815  19.240  0.00  0.00    +0.000 HD
BRANCH  11  13
ATOM     13  C   UNL     1       4.232   3.410  19.388  0.00  0.00    +0.000 C 
BRANCH  13  14
ATOM     14  C   UNL     1       3.557   4.775  19.522  0.00  0.00    +0.000 C 
BRANCH  14  15
ATOM     15  O   UNL     1       2.258   4.625  20.096  0.00  0.00    +0.000 OA
BRANCH  15  16
ATOM     16  C   UNL     1       1.808   3.275  20.001  0.00  0.00    +0.000 C 
BRANCH  16  17
ATOM     17  C   UNL     1       1.319   2.802  21.362  0.00  0.00    +0.000 C 
BRANCH  17  18
ATOM     18  O   UNL     1       2.377   2.886  22.307  0.00  0.00    +0.000 OA
ATOM     19  H   UNL     1       2.238   2.167  22.948  0.00  0.00    +0.000 HD
ENDBRANCH  17  18
ENDBRANCH  16  17
ENDBRANCH  15  16
ENDBRANCH  14  15
ENDBRANCH  13  14
ENDBRANCH  11  13
ENDBRANCH   1  11
TORSDOF 7
ENDMDL
MODEL 8
REMARK VINA RESULT:      -5.8      3.104      5.213
REMARK  Name = 
REMARK  7 active torsions:
REMARK  status: ('A' for Active; 'I' for Inactive)
REMARK    1  A    between atoms: O_1  and  C_2
REMARK    2  A    between atoms: C_2  and  C_3
REMARK    3  A    between atoms: C_3  and  O_4
REMARK    4  A    between atoms: O_4  and  C_5
REMARK    5  A    between atoms: C_5  and  C_6
REMARK    6  A    between atoms: C_6  and  N_7
REMARK    7  A    between atoms: N_7  and  C_8
REMARK                            x       y       z     vdW  Elec       q    Type
REMARK                         _______ _______ _______ _____ _____    ______ ____
ROOT
ATOM      1  C   UNL     1       4.694   4.666  18.634  0.00  0.00    +0.000 A 
ATOM      2  N   UNL     1       4.278   5.969  18.836  0.00  0.00    +0.000 N 
ATOM      3  C   UNL     1       2.987   6.362  18.592  0.00  0.00    +0.000 A 
ATOM      4  N   UNL     1       2.021   5.601  18.195  0.00  0.00    +0.000 NA
ATOM      5  C   UNL     1       2.376   4.294  18.020  0.00  0.00    +0.000 A 
ATOM      6  N   UNL     1       1.620   3.319  17.624  0.00  0.00    +0.000 NA
ATOM      7  C   UNL     1       2.500   2.245  17.606  0.00  0.00    +0.000 A 
ATOM      8  N   UNL     1       3.740   2.466  17.945  0.00  0.00    +0.000 NA
ATOM      9  C   UNL     1       3.739   3.803  18.241  0.00  0.00    +0.000 A 
ATOM     10  H   UNL     1       4.978   6.635  19.127  0.00  0.00    +0.000 HD
ENDROOT
BRANCH   1  11
ATOM     11  N   UNL     1       6.015   4.330  18.813  0.00  0.00    +0.000 N 
ATOM     12  H   UNL     1       6.199   3.527  19.403  0.00  0.00    +0.000 HD
BRANCH  11  13
ATOM     13  C   UNL     1       7.109   5.304  18.754  0.00  0.00    +0.000 C 
BRANCH  13  14
ATOM     14  C   UNL     1       7.307   5.811  17.325  0.00  0.00    +0.000 C 
BRANCH  14  15
ATOM     15  O   UNL     1       7.652   4.727  16.463  0.00  0.00    +0.000 OA
BRANCH  15  16
ATOM     16  C   UNL     1       7.087   4.902  15.166  0.00  0.00    +0.000 C 
BRANCH  16  17
ATOM     17  C   UNL     1       5.828   4.057  15.040  0.00  0.00    +0.000 C 
BRANCH  17  18
ATOM     18  O   UNL     1       5.966   2.873  15.814  0.00  0.00    +0.000 OA
ATOM     19  H   UNL     1       5.846   3.131  16.744  0.00  0.00    +0.000 HD
ENDBRANCH  17  18
ENDBRANCH  16  17
ENDBRANCH  15  16
ENDBRANCH  14  15
ENDBRANCH  13  14
ENDBRANCH  11  13
ENDBRANCH   1  11
TORSDOF 7
ENDMDL
MODEL 9
REMARK VINA RESULT:      -5.8      1.543      2.626
REMARK  Name = 
REMARK  7 active torsions:
REMARK  status: ('A' for Active; 'I' for Inactive)
REMARK    1  A    between atoms: O_1  and  C_2
REMARK    2  A    between atoms: C_2  and  C_3
REMARK    3  A    between atoms: C_3  and  O_4
REMARK    4  A    between atoms: O_4  and  C_5
REMARK    5  A    between atoms: C_5  and  C_6
REMARK    6  A    between atoms: C_6  and  N_7
REMARK    7  A    between atoms: N_7  and  C_8
REMARK                            x       y       z     vdW  Elec       q    Type
REMARK                         _______ _______ _______ _____ _____    ______ ____
ROOT
ATOM      1  C   UNL     1       5.825   4.415  17.887  0.00  0.00    +0.000 A 
ATOM      2  N   UNL     1       5.095   4.327  16.716  0.00  0.00    +0.000 N 
ATOM      3  C   UNL     1       5.162   5.297  15.748  0.00  0.00    +0.000 A 
ATOM      4  N   UNL     1       5.904   6.353  15.779  0.00  0.00    +0.000 NA
ATOM      5  C   UNL     1       6.674   6.463  16.902  0.00  0.00    +0.000 A 
ATOM      6  N   UNL     1       7.500   7.415  17.200  0.00  0.00    +0.000 NA
ATOM      7  C   UNL     1       7.974   7.023  18.445  0.00  0.00    +0.000 A 
ATOM      8  N   UNL     1       7.508   5.916  18.954  0.00  0.00    +0.000 NA
ATOM      9  C   UNL     1       6.642   5.478  17.986  0.00  0.00    +0.000 A 
ATOM     10  H   UNL     1       4.471   3.540  16.621  0.00  0.00    +0.000 HD
ENDROOT
BRANCH   1  11
ATOM     11  N   UNL     1       5.670   3.463  18.868  0.00  0.00    +0.000 N 
ATOM     12  H   UNL     1       6.216   2.617  18.763  0.00  0.00    +0.000 HD
BRANCH  11  13
ATOM     13  C   UNL     1       4.436   3.298  19.642  0.00  0.00    +0.000 C 
BRANCH  13  14
ATOM     14  C   UNL     1       3.554   2.209  19.032  0.00  0.00    +0.000 C 
BRANCH  14  15
ATOM     15  O   UNL     1       2.536   2.798  18.221  0.00  0.00    +0.000 OA
BRANCH  15  16
ATOM     16  C   UNL     1       1.239   2.526  18.748  0.00  0.00    +0.000 C 
BRANCH  16  17
ATOM     17  C   UNL     1       0.893   3.559  19.810  0.00  0.00    +0.000 C 
BRANCH  17  18
ATOM     18  O   UNL     1       0.738   2.918  21.069  0.00  0.00    +0.000 OA
ATOM     19  H   UNL     1       1.230   2.080  21.020  0.00  0.00    +0.000 HD
ENDBRANCH  17  18
ENDBRANCH  16  17
ENDBRANCH  15  16
ENDBRANCH  14  15
ENDBRANCH  13  14
ENDBRANCH  11  13
ENDBRANCH   1  11
TORSDOF 7
ENDMDL
