MODEL 1
REMARK VINA RESULT:      -8.1      0.000      0.000
REMARK  Name = 
REMARK  9 active torsions:
REMARK  status: ('A' for Active; 'I' for Inactive)
REMARK    1  A    between atoms: C_1  and  C_2
REMARK    2  A    between atoms: C_5  and  C_6
REMARK    3  A    between atoms: C_7  and  N_8
REMARK    4  A    between atoms: C_9  and  C_11
REMARK    5  A    between atoms: C_11  and  N_12
REMARK    6  A    between atoms: C_15  and  C_16
REMARK    7  A    between atoms: N_18  and  C_19
REMARK    8  A    between atoms: C_19  and  C_20
REMARK    9  A    between atoms: C_27  and  N_28
REMARK                            x       y       z     vdW  Elec       q    Type
REMARK                         _______ _______ _______ _____ _____    ______ ____
ROOT
ATOM      1  N   UNL     1       7.613   7.147  17.935  0.00  0.00    +0.000 N 
ATOM      2  N   UNL     1       8.025   6.616  19.108  0.00  0.00    +0.000 NA
ATOM      3  N   UNL     1       7.239   5.583  19.377  0.00  0.00    +0.000 NA
ATOM      4  C   UNL     1       6.312   5.461  18.362  0.00  0.00    +0.000 A 
ATOM      5  C   UNL     1       6.519   6.480  17.442  0.00  0.00    +0.000 A 
ENDROOT
BRANCH   4   6
ATOM      6  C   UNL     1       5.329   4.376  18.297  0.00  0.00    +0.000 C 
ATOM      7  O   UNL     1       4.433   4.339  17.468  0.00  0.00    +0.000 OA
ATOM      8  N   UNL     1       5.525   3.392  19.248  0.00  0.00    +0.000 N 
ATOM      9  H   UNL     1       6.171   3.596  20.000  0.00  0.00    +0.000 HD
BRANCH   8  10
ATOM     10  C   UNL     1       4.632   2.255  19.380  0.00  0.00    +0.000 C 
BRANCH  10  11
ATOM     11  C   UNL     1       3.240   2.630  19.846  0.00  0.00    +0.000 A 
ATOM     12  C   UNL     1       3.011   3.014  21.182  0.00  0.00    +0.000 A 
ATOM     13  C   UNL     1       1.729   3.338  21.639  0.00  0.00    +0.000 A 
ATOM     14  C   UNL     1       0.641   3.266  20.774  0.00  0.00    +0.000 A 
ATOM     15  C   UNL     1       0.836   2.855  19.457  0.00  0.00    +0.000 A 
ATOM     16  C   UNL     1       2.122   2.528  19.000  0.00  0.00    +0.000 A 
ATOM     17 CL   UNL     1       2.254   1.981  17.366  0.00  0.00    +0.000 Cl
ENDBRANCH  10  11
ENDBRANCH   8  10
ENDBRANCH   4   6
BRANCH   5  18
ATOM     18  N   UNL     1       5.865   6.840  16.312  0.00  0.00    +0.000 N 
ATOM     19  H   UNL     1       5.386   7.747  16.304  0.00  0.00    +0.000 HD
ATOM     20  H   UNL     1       5.386   6.165  15.719  0.00  0.00    +0.000 HD
ENDBRANCH   5  18
BRANCH   1  21
ATOM     21  C   UNL     1       8.338   8.259  17.361  0.00  0.00    +0.000 C 
BRANCH  21  23
ATOM     22  N   UNL     1       9.373   9.592  19.183  0.00  0.00    +0.000 N 
ATOM     23  C   UNL     1       8.402   9.516  18.199  0.00  0.00    +0.000 C 
ATOM     24  O   UNL     1       7.632  10.441  17.927  0.00  0.00    +0.000 OA
ATOM     25  H   UNL     1      10.200   9.015  19.049  0.00  0.00    +0.000 HD
BRANCH  22  32
ATOM     26  C   UNL     1       8.179  11.960  23.378  0.00  0.00    +0.000 C 
ATOM     27  C   UNL     1       8.928  11.909  22.079  0.00  0.00    +0.000 A 
ATOM     28  C   UNL     1       9.753  12.966  21.687  0.00  0.00    +0.000 A 
ATOM     29  C   UNL     1      10.457  12.901  20.484  0.00  0.00    +0.000 A 
ATOM     30  C   UNL     1      10.359  11.777  19.647  0.00  0.00    +0.000 A 
ATOM     31  C   UNL     1      11.080  11.791  18.328  0.00  0.00    +0.000 C 
ATOM     32  C   UNL     1       9.509  10.725  20.022  0.00  0.00    +0.000 A 
ATOM     33  C   UNL     1       8.806  10.796  21.235  0.00  0.00    +0.000 A 
ENDBRANCH  22  32
ENDBRANCH  21  23
ENDBRANCH   1  21
TORSDOF 7
ENDMDL
MODEL 2
REMARK VINA RESULT:      -7.9      7.630      9.500
REMARK  Name = 
REMARK  9 active torsions:
REMARK  status: ('A' for Active; 'I' for Inactive)
REMARK    1  A    between atoms: C_1  and  C_2
REMARK    2  A    between atoms: C_5  and  C_6
REMARK    3  A    between atoms: C_7  and  N_8
REMARK    4  A    between atoms: C_9  and  C_11
REMARK    5  A    between atoms: C_11  and  N_12
REMARK    6  A    between atoms: C_15  and  C_16
REMARK    7  A    between atoms: N_18  and  C_19
REMARK    8  A    between atoms: C_19  and  C_20
REMARK    9  A    between atoms: C_27  and  N_28
REMARK                            x       y       z     vdW  Elec       q    Type
REMARK                         _______ _______ _______ _____ _____    ______ ____
ROOT
ATOM      1  N   UNL     1       0.386  10.921  20.307  0.00  0.00    +0.000 N 
ATOM      2  N   UNL     1       0.110   9.994  21.251  0.00  0.00    +0.000 NA
ATOM      3  N   UNL     1       0.691   8.861  20.880  0.00  0.00    +0.000 NA
ATOM      4  C   UNL     1       1.340   9.073  19.682  0.00  0.00    +0.000 A 
ATOM      5  C   UNL     1       1.128  10.385  19.283  0.00  0.00    +0.000 A 
ENDROOT
BRANCH   4   6
ATOM      6  C   UNL     1       2.153   8.050  19.017  0.00  0.00    +0.000 C 
ATOM      7  O   UNL     1       2.481   8.122  17.842  0.00  0.00    +0.000 OA
ATOM      8  N   UNL     1       2.530   7.013  19.849  0.00  0.00    +0.000 N 
ATOM      9  H   UNL     1       2.064   6.945  20.746  0.00  0.00    +0.000 HD
BRANCH   8  10
ATOM     10  C   UNL     1       3.299   5.877  19.371  0.00  0.00    +0.000 C 
BRANCH  10  11
ATOM     11  C   UNL     1       2.473   4.620  19.193  0.00  0.00    +0.000 A 
ATOM     12  C   UNL     1       1.480   4.277  20.131  0.00  0.00    +0.000 A 
ATOM     13  C   UNL     1       0.725   3.106  20.000  0.00  0.00    +0.000 A 
ATOM     14  C   UNL     1       0.962   2.239  18.937  0.00  0.00    +0.000 A 
ATOM     15  C   UNL     1       1.963   2.538  18.015  0.00  0.00    +0.000 A 
ATOM     16  C   UNL     1       2.721   3.712  18.148  0.00  0.00    +0.000 A 
ATOM     17 CL   UNL     1       3.973   3.969  16.985  0.00  0.00    +0.000 Cl
ENDBRANCH  10  11
ENDBRANCH   8  10
ENDBRANCH   4   6
BRANCH   5  18
ATOM     18  N   UNL     1       1.493  11.076  18.177  0.00  0.00    +0.000 N 
ATOM     19  H   UNL     1       1.223  12.064  18.119  0.00  0.00    +0.000 HD
ATOM     20  H   UNL     1       1.530  10.650  17.253  0.00  0.00    +0.000 HD
ENDBRANCH   5  18
BRANCH   1  21
ATOM     21  C   UNL     1      -0.072  12.281  20.485  0.00  0.00    +0.000 C 
BRANCH  21  23
ATOM     22  N   UNL     1      -2.199  11.586  19.407  0.00  0.00    +0.000 N 
ATOM     23  C   UNL     1      -1.396  12.626  19.839  0.00  0.00    +0.000 C 
ATOM     24  O   UNL     1      -1.730  13.814  19.787  0.00  0.00    +0.000 OA
ATOM     25  H   UNL     1      -2.065  10.688  19.867  0.00  0.00    +0.000 HD
BRANCH  22  32
ATOM     26  C   UNL     1      -6.901  13.140  19.736  0.00  0.00    +0.000 C 
ATOM     27  C   UNL     1      -5.774  12.563  18.931  0.00  0.00    +0.000 A 
ATOM     28  C   UNL     1      -5.948  12.240  17.584  0.00  0.00    +0.000 A 
ATOM     29  C   UNL     1      -4.887  11.719  16.842  0.00  0.00    +0.000 A 
ATOM     30  C   UNL     1      -3.626  11.513  17.426  0.00  0.00    +0.000 A 
ATOM     31  C   UNL     1      -2.539  10.879  16.602  0.00  0.00    +0.000 C 
ATOM     32  C   UNL     1      -3.453  11.808  18.787  0.00  0.00    +0.000 A 
ATOM     33  C   UNL     1      -4.524  12.335  19.527  0.00  0.00    +0.000 A 
ENDBRANCH  22  32
ENDBRANCH  21  23
ENDBRANCH   1  21
TORSDOF 7
ENDMDL
MODEL 3
REMARK VINA RESULT:      -7.9      6.011      7.101
REMARK  Name = 
REMARK  9 active torsions:
REMARK  status: ('A' for Active; 'I' for Inactive)
REMARK    1  A    between atoms: C_1  and  C_2
REMARK    2  A    between atoms: C_5  and  C_6
REMARK    3  A    between atoms: C_7  and  N_8
REMARK    4  A    between atoms: C_9  and  C_11
REMARK    5  A    between atoms: C_11  and  N_12
REMARK    6  A    between atoms: C_15  and  C_16
REMARK    7  A    between atoms: N_18  and  C_19
REMARK    8  A    between atoms: C_19  and  C_20
REMARK    9  A    between atoms: C_27  and  N_28
REMARK                            x       y       z     vdW  Elec       q    Type
REMARK                         _______ _______ _______ _____ _____    ______ ____
ROOT
ATOM      1  N   UNL     1       1.125   9.660  19.736  0.00  0.00    +0.000 N 
ATOM      2  N   UNL     1       1.295   9.624  18.396  0.00  0.00    +0.000 NA
ATOM      3  N   UNL     1       1.820   8.445  18.092  0.00  0.00    +0.000 NA
ATOM      4  C   UNL     1       1.988   7.726  19.256  0.00  0.00    +0.000 A 
ATOM      5  C   UNL     1       1.575   8.505  20.328  0.00  0.00    +0.000 A 
ENDROOT
BRANCH   4   6
ATOM      6  C   UNL     1       2.478   6.345  19.284  0.00  0.00    +0.000 C 
ATOM      7  O   UNL     1       2.465   5.655  20.292  0.00  0.00    +0.000 OA
ATOM      8  N   UNL     1       2.935   5.893  18.060  0.00  0.00    +0.000 N 
ATOM      9  H   UNL     1       3.077   6.585  17.334  0.00  0.00    +0.000 HD
BRANCH   8  10
ATOM     10  C   UNL     1       3.503   4.568  17.887  0.00  0.00    +0.000 C 
BRANCH  10  11
ATOM     11  C   UNL     1       4.807   4.565  17.115  0.00  0.00    +0.000 A 
ATOM     12  C   UNL     1       4.837   4.178  15.761  0.00  0.00    +0.000 A 
ATOM     13  C   UNL     1       6.034   4.141  15.038  0.00  0.00    +0.000 A 
ATOM     14  C   UNL     1       7.234   4.473  15.659  0.00  0.00    +0.000 A 
ATOM     15  C   UNL     1       7.236   4.826  17.008  0.00  0.00    +0.000 A 
ATOM     16  C   UNL     1       6.035   4.860  17.733  0.00  0.00    +0.000 A 
ATOM     17 CL   UNL     1       6.147   5.260  19.410  0.00  0.00    +0.000 Cl
ENDBRANCH  10  11
ENDBRANCH   8  10
ENDBRANCH   4   6
BRANCH   5  18
ATOM     18  N   UNL     1       1.581   8.299  21.666  0.00  0.00    +0.000 N 
ATOM     19  H   UNL     1       0.801   8.680  22.213  0.00  0.00    +0.000 HD
ATOM     20  H   UNL     1       2.439   8.279  22.213  0.00  0.00    +0.000 HD
ENDBRANCH   5  18
BRANCH   1  21
ATOM     21  C   UNL     1       0.504  10.814  20.347  0.00  0.00    +0.000 C 
BRANCH  21  23
ATOM     22  N   UNL     1       1.269  12.708  18.934  0.00  0.00    +0.000 N 
ATOM     23  C   UNL     1       1.240  12.126  20.190  0.00  0.00    +0.000 C 
ATOM     24  O   UNL     1       1.723  12.652  21.197  0.00  0.00    +0.000 OA
ATOM     25  H   UNL     1       0.513  12.458  18.301  0.00  0.00    +0.000 HD
BRANCH  22  32
ATOM     26  C   UNL     1       5.456  15.137  17.839  0.00  0.00    +0.000 C 
ATOM     27  C   UNL     1       3.989  15.147  18.154  0.00  0.00    +0.000 A 
ATOM     28  C   UNL     1       3.277  16.347  18.209  0.00  0.00    +0.000 A 
ATOM     29  C   UNL     1       1.910  16.343  18.487  0.00  0.00    +0.000 A 
ATOM     30  C   UNL     1       1.220  15.140  18.711  0.00  0.00    +0.000 A 
ATOM     31  C   UNL     1      -0.237  15.197  19.080  0.00  0.00    +0.000 C 
ATOM     32  C   UNL     1       1.936  13.933  18.686  0.00  0.00    +0.000 A 
ATOM     33  C   UNL     1       3.311  13.945  18.402  0.00  0.00    +0.000 A 
ENDBRANCH  22  32
ENDBRANCH  21  23
ENDBRANCH   1  21
TORSDOF 7
ENDMDL
MODEL 4
REMARK VINA RESULT:      -7.9      6.506      8.995
REMARK  Name = 
REMARK  9 active torsions:
REMARK  status: ('A' for Active; 'I' for Inactive)
REMARK    1  A    between atoms: C_1  and  C_2
REMARK    2  A    between atoms: C_5  and  C_6
REMARK    3  A    between atoms: C_7  and  N_8
REMARK    4  A    between atoms: C_9  and  C_11
REMARK    5  A    between atoms: C_11  and  N_12
REMARK    6  A    between atoms: C_15  and  C_16
REMARK    7  A    between atoms: N_18  and  C_19
REMARK    8  A    between atoms: C_19  and  C_20
REMARK    9  A    between atoms: C_27  and  N_28
REMARK                            x       y       z     vdW  Elec       q    Type
REMARK                         _______ _______ _______ _____ _____    ______ ____
ROOT
ATOM      1  N   UNL     1       1.307   9.428  19.976  0.00  0.00    +0.000 N 
ATOM      2  N   UNL     1       0.923   8.785  21.101  0.00  0.00    +0.000 NA
ATOM      3  N   UNL     1       1.302   7.520  20.986  0.00  0.00    +0.000 NA
ATOM      4  C   UNL     1       1.930   7.358  19.769  0.00  0.00    +0.000 A 
ATOM      5  C   UNL     1       1.914   8.570  19.092  0.00  0.00    +0.000 A 
ENDROOT
BRANCH   4   6
ATOM      6  C   UNL     1       2.544   6.097  19.342  0.00  0.00    +0.000 C 
ATOM      7  O   UNL     1       1.950   5.259  18.680  0.00  0.00    +0.000 OA
ATOM      8  N   UNL     1       3.860   5.958  19.741  0.00  0.00    +0.000 N 
ATOM      9  H   UNL     1       4.206   6.610  20.434  0.00  0.00    +0.000 HD
BRANCH   8  10
ATOM     10  C   UNL     1       4.631   4.760  19.458  0.00  0.00    +0.000 C 
BRANCH  10  11
ATOM     11  C   UNL     1       5.349   4.804  18.124  0.00  0.00    +0.000 A 
ATOM     12  C   UNL     1       6.382   5.735  17.898  0.00  0.00    +0.000 A 
ATOM     13  C   UNL     1       7.038   5.811  16.664  0.00  0.00    +0.000 A 
ATOM     14  C   UNL     1       6.661   4.971  15.621  0.00  0.00    +0.000 A 
ATOM     15  C   UNL     1       5.618   4.065  15.809  0.00  0.00    +0.000 A 
ATOM     16  C   UNL     1       4.960   3.991  17.046  0.00  0.00    +0.000 A 
ATOM     17 CL   UNL     1       3.646   2.874  17.165  0.00  0.00    +0.000 Cl
ENDBRANCH  10  11
ENDBRANCH   8  10
ENDBRANCH   4   6
BRANCH   5  18
ATOM     18  N   UNL     1       2.341   8.936  17.861  0.00  0.00    +0.000 N 
ATOM     19  H   UNL     1       2.751   9.871  17.754  0.00  0.00    +0.000 HD
ATOM     20  H   UNL     1       1.870   8.642  17.008  0.00  0.00    +0.000 HD
ENDBRANCH   5  18
BRANCH   1  21
ATOM     21  C   UNL     1       1.078  10.851  19.852  0.00  0.00    +0.000 C 
BRANCH  21  23
ATOM     22  N   UNL     1      -1.137  10.427  18.811  0.00  0.00    +0.000 N 
ATOM     23  C   UNL     1      -0.042  11.266  18.925  0.00  0.00    +0.000 C 
ATOM     24  O   UNL     1       0.038  12.362  18.363  0.00  0.00    +0.000 OA
ATOM     25  H   UNL     1      -1.318   9.809  19.598  0.00  0.00    +0.000 HD
BRANCH  22  32
ATOM     26  C   UNL     1      -3.357   9.992  14.393  0.00  0.00    +0.000 C 
ATOM     27  C   UNL     1      -3.338  10.530  15.794  0.00  0.00    +0.000 A 
ATOM     28  C   UNL     1      -4.384  11.324  16.270  0.00  0.00    +0.000 A 
ATOM     29  C   UNL     1      -4.363  11.805  17.580  0.00  0.00    +0.000 A 
ATOM     30  C   UNL     1      -3.300  11.500  18.447  0.00  0.00    +0.000 A 
ATOM     31  C   UNL     1      -3.291  12.106  19.823  0.00  0.00    +0.000 C 
ATOM     32  C   UNL     1      -2.232  10.727  17.965  0.00  0.00    +0.000 A 
ATOM     33  C   UNL     1      -2.262  10.243  16.647  0.00  0.00    +0.000 A 
ENDBRANCH  22  32
ENDBRANCH  21  23
ENDBRANCH   1  21
TORSDOF 7
ENDMDL
MODEL 5
REMARK VINA RESULT:      -7.8      7.047      9.460
REMARK  Name = 
REMARK  9 active torsions:
REMARK  status: ('A' for Active; 'I' for Inactive)
REMARK    1  A    between atoms: C_1  and  C_2
REMARK    2  A    between atoms: C_5  and  C_6
REMARK    3  A    between atoms: C_7  and  N_8
REMARK    4  A    between atoms: C_9  and  C_11
REMARK    5  A    between atoms: C_11  and  N_12
REMARK    6  A    between atoms: C_15  and  C_16
REMARK    7  A    between atoms: N_18  and  C_19
REMARK    8  A    between atoms: C_19  and  C_20
REMARK    9  A    between atoms: C_27  and  N_28
REMARK                            x       y       z     vdW  Elec       q    Type
REMARK                         _______ _______ _______ _____ _____    ______ ____
ROOT
ATOM      1  N   UNL     1       1.187  10.013  19.321  0.00  0.00    +0.000 N 
ATOM      2  N   UNL     1       1.549   9.949  18.021  0.00  0.00    +0.000 NA
ATOM      3  N   UNL     1       2.059   8.743  17.807  0.00  0.00    +0.000 NA
ATOM      4  C   UNL     1       2.022   8.036  18.990  0.00  0.00    +0.000 A 
ATOM      5  C   UNL     1       1.493   8.849  19.983  0.00  0.00    +0.000 A 
ENDROOT
BRANCH   4   6
ATOM      6  C   UNL     1       2.439   6.635  19.102  0.00  0.00    +0.000 C 
ATOM      7  O   UNL     1       2.315   5.983  20.128  0.00  0.00    +0.000 OA
ATOM      8  N   UNL     1       2.964   6.117  17.933  0.00  0.00    +0.000 N 
ATOM      9  H   UNL     1       3.195   6.774  17.198  0.00  0.00    +0.000 HD
BRANCH   8  10
ATOM     10  C   UNL     1       3.477   4.761  17.849  0.00  0.00    +0.000 C 
BRANCH  10  11
ATOM     11  C   UNL     1       4.799   4.659  17.116  0.00  0.00    +0.000 A 
ATOM     12  C   UNL     1       4.841   4.249  15.769  0.00  0.00    +0.000 A 
ATOM     13  C   UNL     1       6.053   4.121  15.081  0.00  0.00    +0.000 A 
ATOM     14  C   UNL     1       7.255   4.381  15.733  0.00  0.00    +0.000 A 
ATOM     15  C   UNL     1       7.242   4.755  17.076  0.00  0.00    +0.000 A 
ATOM     16  C   UNL     1       6.026   4.881  17.765  0.00  0.00    +0.000 A 
ATOM     17 CL   UNL     1       6.117   5.298  19.439  0.00  0.00    +0.000 Cl
ENDBRANCH  10  11
ENDBRANCH   8  10
ENDBRANCH   4   6
BRANCH   5  18
ATOM     18  N   UNL     1       1.294   8.663  21.309  0.00  0.00    +0.000 N 
ATOM     19  H   UNL     1       0.800   7.814  21.605  0.00  0.00    +0.000 HD
ATOM     20  H   UNL     1       1.115   9.435  21.949  0.00  0.00    +0.000 HD
ENDBRANCH   5  18
BRANCH   1  21
ATOM     21  C   UNL     1       0.537  11.203  19.825  0.00  0.00    +0.000 C 
BRANCH  21  23
ATOM     22  N   UNL     1      -1.828  10.900  19.133  0.00  0.00    +0.000 N 
ATOM     23  C   UNL     1      -0.681  11.669  19.059  0.00  0.00    +0.000 C 
ATOM     24  O   UNL     1      -0.618  12.746  18.458  0.00  0.00    +0.000 OA
ATOM     25  H   UNL     1      -1.928  10.313  19.957  0.00  0.00    +0.000 HD
BRANCH  22  32
ATOM     26  C   UNL     1      -6.209  13.233  19.119  0.00  0.00    +0.000 C 
ATOM     27  C   UNL     1      -5.181  12.389  18.425  0.00  0.00    +0.000 A 
ATOM     28  C   UNL     1      -5.385  11.945  17.117  0.00  0.00    +0.000 A 
ATOM     29  C   UNL     1      -4.415  11.174  16.476  0.00  0.00    +0.000 A 
ATOM     30  C   UNL     1      -3.216  10.833  17.123  0.00  0.00    +0.000 A 
ATOM     31  C   UNL     1      -2.237   9.938  16.415  0.00  0.00    +0.000 C 
ATOM     32  C   UNL     1      -3.017  11.252  18.448  0.00  0.00    +0.000 A 
ATOM     33  C   UNL     1      -3.997  12.031  19.086  0.00  0.00    +0.000 A 
ENDBRANCH  22  32
ENDBRANCH  21  23
ENDBRANCH   1  21
TORSDOF 7
ENDMDL
MODEL 6
REMARK VINA RESULT:      -7.8      6.849      9.086
REMARK  Name = 
REMARK  9 active torsions:
REMARK  status: ('A' for Active; 'I' for Inactive)
REMARK    1  A    between atoms: C_1  and  C_2
REMARK    2  A    between atoms: C_5  and  C_6
REMARK    3  A    between atoms: C_7  and  N_8
REMARK    4  A    between atoms: C_9  and  C_11
REMARK    5  A    between atoms: C_11  and  N_12
REMARK    6  A    between atoms: C_15  and  C_16
REMARK    7  A    between atoms: N_18  and  C_19
REMARK    8  A    between atoms: C_19  and  C_20
REMARK    9  A    between atoms: C_27  and  N_28
REMARK                            x       y       z     vdW  Elec       q    Type
REMARK                         _______ _______ _______ _____ _____    ______ ____
ROOT
ATOM      1  N   UNL     1       1.243   9.973  19.529  0.00  0.00    +0.000 N 
ATOM      2  N   UNL     1       0.887   9.865  20.828  0.00  0.00    +0.000 NA
ATOM      3  N   UNL     1       1.119   8.615  21.204  0.00  0.00    +0.000 NA
ATOM      4  C   UNL     1       1.626   7.920  20.126  0.00  0.00    +0.000 A 
ATOM      5  C   UNL     1       1.683   8.771  19.030  0.00  0.00    +0.000 A 
ENDROOT
BRANCH   4   6
ATOM      6  C   UNL     1       2.066   6.524  20.204  0.00  0.00    +0.000 C 
ATOM      7  O   UNL     1       1.362   5.628  20.645  0.00  0.00    +0.000 OA
ATOM      8  N   UNL     1       3.342   6.316  19.712  0.00  0.00    +0.000 N 
ATOM      9  H   UNL     1       3.911   7.135  19.541  0.00  0.00    +0.000 HD
BRANCH   8  10
ATOM     10  C   UNL     1       3.979   5.012  19.743  0.00  0.00    +0.000 C 
BRANCH  10  11
ATOM     11  C   UNL     1       5.108   4.867  18.742  0.00  0.00    +0.000 A 
ATOM     12  C   UNL     1       6.385   5.390  19.023  0.00  0.00    +0.000 A 
ATOM     13  C   UNL     1       7.433   5.292  18.102  0.00  0.00    +0.000 A 
ATOM     14  C   UNL     1       7.222   4.685  16.867  0.00  0.00    +0.000 A 
ATOM     15  C   UNL     1       5.957   4.191  16.551  0.00  0.00    +0.000 A 
ATOM     16  C   UNL     1       4.906   4.292  17.476  0.00  0.00    +0.000 A 
ATOM     17 CL   UNL     1       3.364   3.697  16.971  0.00  0.00    +0.000 Cl
ENDBRANCH  10  11
ENDBRANCH   8  10
ENDBRANCH   4   6
BRANCH   5  18
ATOM     18  N   UNL     1       2.045   8.580  17.740  0.00  0.00    +0.000 N 
ATOM     19  H   UNL     1       2.218   7.618  17.429  0.00  0.00    +0.000 HD
ATOM     20  H   UNL     1       2.627   9.243  17.231  0.00  0.00    +0.000 HD
ENDBRANCH   5  18
BRANCH   1  21
ATOM     21  C   UNL     1       1.156  11.257  18.868  0.00  0.00    +0.000 C 
BRANCH  21  23
ATOM     22  N   UNL     1      -1.290  10.860  18.702  0.00  0.00    +0.000 N 
ATOM     23  C   UNL     1      -0.238  11.746  18.547  0.00  0.00    +0.000 C 
ATOM     24  O   UNL     1      -0.384  12.929  18.224  0.00  0.00    +0.000 OA
ATOM     25  H   UNL     1      -1.146  10.098  19.361  0.00  0.00    +0.000 HD
BRANCH  22  32
ATOM     26  C   UNL     1      -5.494  13.075  20.134  0.00  0.00    +0.000 C 
ATOM     27  C   UNL     1      -4.711  12.303  19.113  0.00  0.00    +0.000 A 
ATOM     28  C   UNL     1      -5.289  11.936  17.895  0.00  0.00    +0.000 A 
ATOM     29  C   UNL     1      -4.546  11.232  16.947  0.00  0.00    +0.000 A 
ATOM     30  C   UNL     1      -3.207  10.882  17.189  0.00  0.00    +0.000 A 
ATOM     31  C   UNL     1      -2.475  10.059  16.166  0.00  0.00    +0.000 C 
ATOM     32  C   UNL     1      -2.630  11.223  18.423  0.00  0.00    +0.000 A 
ATOM     33  C   UNL     1      -3.383  11.935  19.371  0.00  0.00    +0.000 A 
ENDBRANCH  22  32
ENDBRANCH  21  23
ENDBRANCH   1  21
TORSDOF 7
ENDMDL
MODEL 7
REMARK VINA RESULT:      -7.7      2.149      2.791
REMARK  Name = 
REMARK  9 active torsions:
REMARK  status: ('A' for Active; 'I' for Inactive)
REMARK    1  A    between atoms: C_1  and  C_2
REMARK    2  A    between atoms: C_5  and  C_6
REMARK    3  A    between atoms: C_7  and  N_8
REMARK    4  A    between atoms: C_9  and  C_11
REMARK    5  A    between atoms: C_11  and  N_12
REMARK    6  A    between atoms: C_15  and  C_16
REMARK    7  A    between atoms: N_18  and  C_19
REMARK    8  A    between atoms: C_19  and  C_20
REMARK    9  A    between atoms: C_27  and  N_28
REMARK                            x       y       z     vdW  Elec       q    Type
REMARK                         _______ _______ _______ _____ _____    ______ ____
ROOT
ATOM      1  N   UNL     1       8.191   7.810  18.371  0.00  0.00    +0.000 N 
ATOM      2  N   UNL     1       7.607   8.459  17.340  0.00  0.00    +0.000 NA
ATOM      3  N   UNL     1       6.732   7.629  16.789  0.00  0.00    +0.000 NA
ATOM      4  C   UNL     1       6.765   6.436  17.480  0.00  0.00    +0.000 A 
ATOM      5  C   UNL     1       7.721   6.524  18.482  0.00  0.00    +0.000 A 
ENDROOT
BRANCH   4   6
ATOM      6  C   UNL     1       5.869   5.313  17.187  0.00  0.00    +0.000 C 
ATOM      7  O   UNL     1       6.242   4.291  16.633  0.00  0.00    +0.000 OA
ATOM      8  N   UNL     1       4.570   5.513  17.617  0.00  0.00    +0.000 N 
ATOM      9  H   UNL     1       4.314   6.452  17.897  0.00  0.00    +0.000 HD
BRANCH   8  10
ATOM     10  C   UNL     1       3.519   4.539  17.382  0.00  0.00    +0.000 C 
BRANCH  10  11
ATOM     11  C   UNL     1       2.750   4.166  18.633  0.00  0.00    +0.000 A 
ATOM     12  C   UNL     1       2.145   5.161  19.426  0.00  0.00    +0.000 A 
ATOM     13  C   UNL     1       1.455   4.840  20.599  0.00  0.00    +0.000 A 
ATOM     14  C   UNL     1       1.370   3.516  21.019  0.00  0.00    +0.000 A 
ATOM     15  C   UNL     1       1.989   2.516  20.270  0.00  0.00    +0.000 A 
ATOM     16  C   UNL     1       2.684   2.840  19.094  0.00  0.00    +0.000 A 
ATOM     17 CL   UNL     1       3.461   1.538  18.264  0.00  0.00    +0.000 Cl
ENDBRANCH  10  11
ENDBRANCH   8  10
ENDBRANCH   4   6
BRANCH   5  18
ATOM     18  N   UNL     1       8.179   5.632  19.392  0.00  0.00    +0.000 N 
ATOM     19  H   UNL     1       9.194   5.519  19.483  0.00  0.00    +0.000 HD
ATOM     20  H   UNL     1       7.691   4.763  19.598  0.00  0.00    +0.000 HD
ENDBRANCH   5  18
BRANCH   1  21
ATOM     21  C   UNL     1       9.151   8.504  19.201  0.00  0.00    +0.000 C 
BRANCH  21  23
ATOM     22  N   UNL     1       9.257  10.679  18.008  0.00  0.00    +0.000 N 
ATOM     23  C   UNL     1       9.059  10.013  19.204  0.00  0.00    +0.000 C 
ATOM     24  O   UNL     1       8.748  10.579  20.257  0.00  0.00    +0.000 OA
ATOM     25  H   UNL     1       9.071  10.151  17.159  0.00  0.00    +0.000 HD
BRANCH  22  32
ATOM     26  C   UNL     1       6.532  14.815  17.688  0.00  0.00    +0.000 C 
ATOM     27  C   UNL     1       7.870  14.139  17.746  0.00  0.00    +0.000 A 
ATOM     28  C   UNL     1       9.051  14.883  17.702  0.00  0.00    +0.000 A 
ATOM     29  C   UNL     1      10.290  14.243  17.773  0.00  0.00    +0.000 A 
ATOM     30  C   UNL     1      10.378  12.847  17.895  0.00  0.00    +0.000 A 
ATOM     31  C   UNL     1      11.736  12.203  17.892  0.00  0.00    +0.000 C 
ATOM     32  C   UNL     1       9.195  12.091  17.911  0.00  0.00    +0.000 A 
ATOM     33  C   UNL     1       7.952  12.742  17.843  0.00  0.00    +0.000 A 
ENDBRANCH  22  32
ENDBRANCH  21  23
ENDBRANCH   1  21
TORSDOF 7
ENDMDL
MODEL 8
REMARK VINA RESULT:      -7.7      6.460      8.853
REMARK  Name = 
REMARK  9 active torsions:
REMARK  status: ('A' for Active; 'I' for Inactive)
REMARK    1  A    between atoms: C_1  and  C_2
REMARK    2  A    between atoms: C_5  and  C_6
REMARK    3  A    between atoms: C_7  and  N_8
REMARK    4  A    between atoms: C_9  and  C_11
REMARK    5  A    between atoms: C_11  and  N_12
REMARK    6  A    between atoms: C_15  and  C_16
REMARK    7  A    between atoms: N_18  and  C_19
REMARK    8  A    between atoms: C_19  and  C_20
REMARK    9  A    between atoms: C_27  and  N_28
REMARK                            x       y       z     vdW  Elec       q    Type
REMARK                         _______ _______ _______ _____ _____    ______ ____
ROOT
ATOM      1  N   UNL     1       2.156   7.233  19.611  0.00  0.00    +0.000 N 
ATOM      2  N   UNL     1       2.147   7.476  18.282  0.00  0.00    +0.000 NA
ATOM      3  N   UNL     1       1.626   8.681  18.100  0.00  0.00    +0.000 NA
ATOM      4  C   UNL     1       1.296   9.207  19.331  0.00  0.00    +0.000 A 
ATOM      5  C   UNL     1       1.601   8.275  20.313  0.00  0.00    +0.000 A 
ENDROOT
BRANCH   4   6
ATOM      6  C   UNL     1       0.763  10.561  19.511  0.00  0.00    +0.000 C 
ATOM      7  O   UNL     1       0.897  11.197  20.545  0.00  0.00    +0.000 OA
ATOM      8  N   UNL     1       0.114  11.055  18.394  0.00  0.00    +0.000 N 
ATOM      9  H   UNL     1      -0.107  10.396  17.657  0.00  0.00    +0.000 HD
BRANCH   8  10
ATOM     10  C   UNL     1      -0.524  12.359  18.383  0.00  0.00    +0.000 C 
BRANCH  10  11
ATOM     11  C   UNL     1      -1.983  12.322  18.791  0.00  0.00    +0.000 A 
ATOM     12  C   UNL     1      -2.387  12.807  20.050  0.00  0.00    +0.000 A 
ATOM     13  C   UNL     1      -3.725  12.756  20.457  0.00  0.00    +0.000 A 
ATOM     14  C   UNL     1      -4.687  12.198  19.621  0.00  0.00    +0.000 A 
ATOM     15  C   UNL     1      -4.307  11.679  18.384  0.00  0.00    +0.000 A 
ATOM     16  C   UNL     1      -2.964  11.729  17.978  0.00  0.00    +0.000 A 
ATOM     17 CL   UNL     1      -2.584  11.014  16.451  0.00  0.00    +0.000 Cl
ENDBRANCH  10  11
ENDBRANCH   8  10
ENDBRANCH   4   6
BRANCH   5  18
ATOM     18  N   UNL     1       1.428   8.269  21.656  0.00  0.00    +0.000 N 
ATOM     19  H   UNL     1       0.595   7.801  22.030  0.00  0.00    +0.000 HD
ATOM     20  H   UNL     1       1.708   9.050  22.247  0.00  0.00    +0.000 HD
ENDBRANCH   5  18
BRANCH   1  21
ATOM     21  C   UNL     1       2.734   6.004  20.109  0.00  0.00    +0.000 C 
BRANCH  21  23
ATOM     22  N   UNL     1       4.548   6.046  18.413  0.00  0.00    +0.000 N 
ATOM     23  C   UNL     1       3.676   5.284  19.170  0.00  0.00    +0.000 C 
ATOM     24  O   UNL     1       3.670   4.050  19.167  0.00  0.00    +0.000 OA
ATOM     25  H   UNL     1       4.786   6.964  18.783  0.00  0.00    +0.000 HD
BRANCH  22  32
ATOM     26  C   UNL     1       5.464   4.122  13.931  0.00  0.00    +0.000 C 
ATOM     27  C   UNL     1       5.932   4.507  15.303  0.00  0.00    +0.000 A 
ATOM     28  C   UNL     1       7.256   4.295  15.693  0.00  0.00    +0.000 A 
ATOM     29  C   UNL     1       7.685   4.672  16.967  0.00  0.00    +0.000 A 
ATOM     30  C   UNL     1       6.803   5.274  17.879  0.00  0.00    +0.000 A 
ATOM     31  C   UNL     1       7.297   5.592  19.263  0.00  0.00    +0.000 C 
ATOM     32  C   UNL     1       5.464   5.464  17.503  0.00  0.00    +0.000 A 
ATOM     33  C   UNL     1       5.041   5.086  16.219  0.00  0.00    +0.000 A 
ENDBRANCH  22  32
ENDBRANCH  21  23
ENDBRANCH   1  21
TORSDOF 7
ENDMDL
MODEL 9
REMARK VINA RESULT:      -7.7      6.879      7.209
REMARK  Name = 
REMARK  9 active torsions:
REMARK  status: ('A' for Active; 'I' for Inactive)
REMARK    1  A    between atoms: C_1  and  C_2
REMARK    2  A    between atoms: C_5  and  C_6
REMARK    3  A    between atoms: C_7  and  N_8
REMARK    4  A    between atoms: C_9  and  C_11
REMARK    5  A    between atoms: C_11  and  N_12
REMARK    6  A    between atoms: C_15  and  C_16
REMARK    7  A    between atoms: N_18  and  C_19
REMARK    8  A    between atoms: C_19  and  C_20
REMARK    9  A    between atoms: C_27  and  N_28
REMARK                            x       y       z     vdW  Elec       q    Type
REMARK                         _______ _______ _______ _____ _____    ______ ____
ROOT
ATOM      1  N   UNL     1       0.057  10.732  20.129  0.00  0.00    +0.000 N 
ATOM      2  N   UNL     1       0.446  10.209  21.313  0.00  0.00    +0.000 NA
ATOM      3  N   UNL     1       1.196   9.147  21.054  0.00  0.00    +0.000 NA
ATOM      4  C   UNL     1       1.279   8.992  19.686  0.00  0.00    +0.000 A 
ATOM      5  C   UNL     1       0.526   9.986  19.076  0.00  0.00    +0.000 A 
ENDROOT
BRANCH   4   6
ATOM      6  C   UNL     1       2.095   7.958  19.043  0.00  0.00    +0.000 C 
ATOM      7  O   UNL     1       2.354   7.962  17.849  0.00  0.00    +0.000 OA
ATOM      8  N   UNL     1       2.558   6.992  19.917  0.00  0.00    +0.000 N 
ATOM      9  H   UNL     1       2.145   6.968  20.841  0.00  0.00    +0.000 HD
BRANCH   8  10
ATOM     10  C   UNL     1       3.344   5.856  19.470  0.00  0.00    +0.000 C 
BRANCH  10  11
ATOM     11  C   UNL     1       2.520   4.607  19.234  0.00  0.00    +0.000 A 
ATOM     12  C   UNL     1       1.510   4.232  20.142  0.00  0.00    +0.000 A 
ATOM     13  C   UNL     1       0.757   3.068  19.957  0.00  0.00    +0.000 A 
ATOM     14  C   UNL     1       1.012   2.238  18.869  0.00  0.00    +0.000 A 
ATOM     15  C   UNL     1       2.030   2.568  17.976  0.00  0.00    +0.000 A 
ATOM     16  C   UNL     1       2.785   3.736  18.163  0.00  0.00    +0.000 A 
ATOM     17 CL   UNL     1       4.057   4.031  17.031  0.00  0.00    +0.000 Cl
ENDBRANCH  10  11
ENDBRANCH   8  10
ENDBRANCH   4   6
BRANCH   5  18
ATOM     18  N   UNL     1       0.237  10.249  17.779  0.00  0.00    +0.000 N 
ATOM     19  H   UNL     1      -0.696  10.615  17.562  0.00  0.00    +0.000 HD
ATOM     20  H   UNL     1       0.599   9.685  17.013  0.00  0.00    +0.000 HD
ENDBRANCH   5  18
BRANCH   1  21
ATOM     21  C   UNL     1      -0.726  11.948  20.107  0.00  0.00    +0.000 C 
BRANCH  21  23
ATOM     22  N   UNL     1       0.824  13.861  19.786  0.00  0.00    +0.000 N 
ATOM     23  C   UNL     1      -0.183  13.074  19.256  0.00  0.00    +0.000 C 
ATOM     24  O   UNL     1      -0.613  13.199  18.105  0.00  0.00    +0.000 OA
ATOM     25  H   UNL     1       1.396  13.437  20.512  0.00  0.00    +0.000 HD
BRANCH  22  32
ATOM     26  C   UNL     1       0.661  18.629  18.416  0.00  0.00    +0.000 C 
ATOM     27  C   UNL     1       1.327  17.285  18.377  0.00  0.00    +0.000 A 
ATOM     28  C   UNL     1       2.496  17.086  17.640  0.00  0.00    +0.000 A 
ATOM     29  C   UNL     1       3.116  15.836  17.625  0.00  0.00    +0.000 A 
ATOM     30  C   UNL     1       2.585  14.755  18.349  0.00  0.00    +0.000 A 
ATOM     31  C   UNL     1       3.249  13.411  18.238  0.00  0.00    +0.000 C 
ATOM     32  C   UNL     1       1.394  14.941  19.068  0.00  0.00    +0.000 A 
ATOM     33  C   UNL     1       0.778  16.203  19.082  0.00  0.00    +0.000 A 
ENDBRANCH  22  32
ENDBRANCH  21  23
ENDBRANCH   1  21
TORSDOF 7
ENDMDL
