MODEL 1
REMARK VINA RESULT:      -8.1      0.000      0.000
REMARK  Name = 
REMARK  7 active torsions:
REMARK  status: ('A' for Active; 'I' for Inactive)
REMARK    1  A    between atoms: C_1  and  C_2
REMARK    2  A    between atoms: C_2  and  C_3
REMARK    3  A    between atoms: C_3  and  C_4
REMARK    4  A    between atoms: C_9  and  C_10
REMARK    5  A    between atoms: C_9  and  C_11
REMARK    6  A    between atoms: N_13  and  S_14
REMARK    7  A    between atoms: S_14  and  C_17
REMARK                            x       y       z     vdW  Elec       q    Type
REMARK                         _______ _______ _______ _____ _____    ______ ____
ROOT
ATOM      1  C   UNL     1       5.182   4.211  18.200  0.00  0.00    +0.000 C 
ATOM      2  O   UNL     1       5.868   4.585  19.147  0.00  0.00    +0.000 OA
ATOM      3  N   UNL     1       5.573   4.455  16.871  0.00  0.00    +0.000 N 
ATOM      4  H   UNL     1       5.020   4.121  16.086  0.00  0.00    +0.000 HD
ENDROOT
BRANCH   1  10
ATOM      5  C   UNL     1       2.423   5.462  19.444  0.00  0.00    +0.000 C 
ATOM      6  O   UNL     1       1.998   5.786  20.552  0.00  0.00    +0.000 OA
ATOM      7  N   UNL     1       2.699   4.158  19.139  0.00  0.00    +0.000 N 
ATOM      8  C   UNL     1       2.431   2.989  19.964  0.00  0.00    +0.000 C 
ATOM      9  C   UNL     1       3.730   2.396  19.429  0.00  0.00    +0.000 C 
ATOM     10  C   UNL     1       3.759   3.509  18.340  0.00  0.00    +0.000 C 
ATOM     11  C   UNL     1       3.202   3.042  16.993  0.00  0.00    +0.000 C 
BRANCH   5  12
ATOM     12  C   UNL     1       2.572   6.477  18.336  0.00  0.00    +0.000 C 
BRANCH  12  14
ATOM     13  C   UNL     1       1.845   8.818  17.758  0.00  0.00    +0.000 C 
ATOM     14  C   UNL     1       2.249   7.870  18.874  0.00  0.00    +0.000 C 
ENDBRANCH  12  14
ENDBRANCH   5  12
ENDBRANCH   1  10
BRANCH   3  15
ATOM     15  S   UNL     1       7.041   5.088  16.410  0.00  0.00    +0.000 S 
ATOM     16  O   UNL     1       7.070   6.517  16.615  0.00  0.00    +0.000 OA
ATOM     17  O   UNL     1       8.035   4.230  17.032  0.00  0.00    +0.000 OA
BRANCH  15  18
ATOM     18  C   UNL     1       7.090   4.764  14.661  0.00  0.00    +0.000 A 
ATOM     19  C   UNL     1       7.947   5.522  13.851  0.00  0.00    +0.000 A 
ATOM     20  C   UNL     1       7.932   5.351  12.466  0.00  0.00    +0.000 A 
ATOM     21  C   UNL     1       7.052   4.431  11.891  0.00  0.00    +0.000 A 
ATOM     22  C   UNL     1       6.192   3.686  12.706  0.00  0.00    +0.000 A 
ATOM     23 CL   UNL     1       5.100   2.573  11.979  0.00  0.00    +0.000 Cl
ATOM     24  C   UNL     1       6.202   3.846  14.091  0.00  0.00    +0.000 A 
ENDBRANCH  15  18
ENDBRANCH   3  15
TORSDOF 5
ENDMDL
MODEL 2
REMARK VINA RESULT:      -7.7      1.279      1.656
REMARK  Name = 
REMARK  7 active torsions:
REMARK  status: ('A' for Active; 'I' for Inactive)
REMARK    1  A    between atoms: C_1  and  C_2
REMARK    2  A    between atoms: C_2  and  C_3
REMARK    3  A    between atoms: C_3  and  C_4
REMARK    4  A    between atoms: C_9  and  C_10
REMARK    5  A    between atoms: C_9  and  C_11
REMARK    6  A    between atoms: N_13  and  S_14
REMARK    7  A    between atoms: S_14  and  C_17
REMARK                            x       y       z     vdW  Elec       q    Type
REMARK                         _______ _______ _______ _____ _____    ______ ____
ROOT
ATOM      1  C   UNL     1       5.279   4.059  18.697  0.00  0.00    +0.000 C 
ATOM      2  O   UNL     1       5.807   4.797  19.524  0.00  0.00    +0.000 OA
ATOM      3  N   UNL     1       5.670   4.075  17.346  0.00  0.00    +0.000 N 
ATOM      4  H   UNL     1       5.253   3.444  16.665  0.00  0.00    +0.000 HD
ENDROOT
BRANCH   1  10
ATOM      5  C   UNL     1       2.229   4.863  19.582  0.00  0.00    +0.000 C 
ATOM      6  O   UNL     1       1.672   5.334  20.571  0.00  0.00    +0.000 OA
ATOM      7  N   UNL     1       2.825   3.632  19.615  0.00  0.00    +0.000 N 
ATOM      8  C   UNL     1       2.789   2.672  20.709  0.00  0.00    +0.000 C 
ATOM      9  C   UNL     1       4.221   2.301  20.342  0.00  0.00    +0.000 C 
ATOM     10  C   UNL     1       4.056   3.087  19.008  0.00  0.00    +0.000 C 
ATOM     11  C   UNL     1       3.710   2.183  17.822  0.00  0.00    +0.000 C 
BRANCH   5  12
ATOM     12  C   UNL     1       2.204   5.581  18.253  0.00  0.00    +0.000 C 
BRANCH  12  14
ATOM     13  C   UNL     1       3.724   7.459  17.544  0.00  0.00    +0.000 C 
ATOM     14  C   UNL     1       2.583   7.046  18.458  0.00  0.00    +0.000 C 
ENDBRANCH  12  14
ENDBRANCH   5  12
ENDBRANCH   1  10
BRANCH   3  15
ATOM     15  S   UNL     1       6.970   4.918  16.739  0.00  0.00    +0.000 S 
ATOM     16  O   UNL     1       6.853   6.326  17.040  0.00  0.00    +0.000 OA
ATOM     17  O   UNL     1       8.138   4.165  17.161  0.00  0.00    +0.000 OA
BRANCH  15  18
ATOM     18  C   UNL     1       6.810   4.697  14.981  0.00  0.00    +0.000 A 
ATOM     19  C   UNL     1       6.049   3.624  14.495  0.00  0.00    +0.000 A 
ATOM     20  C   UNL     1       5.989   3.376  13.123  0.00  0.00    +0.000 A 
ATOM     21  C   UNL     1       6.697   4.192  12.239  0.00  0.00    +0.000 A 
ATOM     22  C   UNL     1       7.463   5.255  12.733  0.00  0.00    +0.000 A 
ATOM     23 CL   UNL     1       8.346   6.238  11.631  0.00  0.00    +0.000 Cl
ATOM     24  C   UNL     1       7.526   5.514  14.101  0.00  0.00    +0.000 A 
ENDBRANCH  15  18
ENDBRANCH   3  15
TORSDOF 5
ENDMDL
MODEL 3
REMARK VINA RESULT:      -7.7      0.925      1.014
REMARK  Name = 
REMARK  7 active torsions:
REMARK  status: ('A' for Active; 'I' for Inactive)
REMARK    1  A    between atoms: C_1  and  C_2
REMARK    2  A    between atoms: C_2  and  C_3
REMARK    3  A    between atoms: C_3  and  C_4
REMARK    4  A    between atoms: C_9  and  C_10
REMARK    5  A    between atoms: C_9  and  C_11
REMARK    6  A    between atoms: N_13  and  S_14
REMARK    7  A    between atoms: S_14  and  C_17
REMARK                            x       y       z     vdW  Elec       q    Type
REMARK                         _______ _______ _______ _____ _____    ______ ____
ROOT
ATOM      1  C   UNL     1       4.954   3.987  18.132  0.00  0.00    +0.000 C 
ATOM      2  O   UNL     1       5.663   4.202  19.110  0.00  0.00    +0.000 OA
ATOM      3  N   UNL     1       5.311   4.449  16.852  0.00  0.00    +0.000 N 
ATOM      4  H   UNL     1       4.739   4.248  16.036  0.00  0.00    +0.000 HD
ENDROOT
BRANCH   1  10
ATOM      5  C   UNL     1       2.545   4.431  20.306  0.00  0.00    +0.000 C 
ATOM      6  O   UNL     1       2.345   4.182  21.494  0.00  0.00    +0.000 OA
ATOM      7  N   UNL     1       2.677   3.434  19.380  0.00  0.00    +0.000 N 
ATOM      8  C   UNL     1       2.481   2.007  19.595  0.00  0.00    +0.000 C 
ATOM      9  C   UNL     1       3.623   1.771  18.613  0.00  0.00    +0.000 C 
ATOM     10  C   UNL     1       3.534   3.266  18.189  0.00  0.00    +0.000 C 
ATOM     11  C   UNL     1       2.719   3.477  16.911  0.00  0.00    +0.000 C 
BRANCH   5  12
ATOM     12  C   UNL     1       2.563   5.853  19.798  0.00  0.00    +0.000 C 
BRANCH  12  14
ATOM     13  C   UNL     1       1.720   8.176  20.281  0.00  0.00    +0.000 C 
ATOM     14  C   UNL     1       1.589   6.699  20.614  0.00  0.00    +0.000 C 
ENDBRANCH  12  14
ENDBRANCH   5  12
ENDBRANCH   1  10
BRANCH   3  15
ATOM     15  S   UNL     1       6.767   5.156  16.466  0.00  0.00    +0.000 S 
ATOM     16  O   UNL     1       6.701   6.589  16.631  0.00  0.00    +0.000 OA
ATOM     17  O   UNL     1       7.766   4.374  17.174  0.00  0.00    +0.000 OA
BRANCH  15  18
ATOM     18  C   UNL     1       6.947   4.791  14.734  0.00  0.00    +0.000 A 
ATOM     19  C   UNL     1       7.879   5.516  13.978  0.00  0.00    +0.000 A 
ATOM     20  C   UNL     1       7.969   5.313  12.600  0.00  0.00    +0.000 A 
ATOM     21  C   UNL     1       7.120   4.396  11.976  0.00  0.00    +0.000 A 
ATOM     22  C   UNL     1       6.184   3.684  12.738  0.00  0.00    +0.000 A 
ATOM     23 CL   UNL     1       5.132   2.574  11.950  0.00  0.00    +0.000 Cl
ATOM     24  C   UNL     1       6.089   3.876  14.115  0.00  0.00    +0.000 A 
ENDBRANCH  15  18
ENDBRANCH   3  15
TORSDOF 5
ENDMDL
MODEL 4
REMARK VINA RESULT:      -7.4      3.325      6.291
REMARK  Name = 
REMARK  7 active torsions:
REMARK  status: ('A' for Active; 'I' for Inactive)
REMARK    1  A    between atoms: C_1  and  C_2
REMARK    2  A    between atoms: C_2  and  C_3
REMARK    3  A    between atoms: C_3  and  C_4
REMARK    4  A    between atoms: C_9  and  C_10
REMARK    5  A    between atoms: C_9  and  C_11
REMARK    6  A    between atoms: N_13  and  S_14
REMARK    7  A    between atoms: S_14  and  C_17
REMARK                            x       y       z     vdW  Elec       q    Type
REMARK                         _______ _______ _______ _____ _____    ______ ____
ROOT
ATOM      1  C   UNL     1       5.228   3.719  17.690  0.00  0.00    +0.000 C 
ATOM      2  O   UNL     1       4.192   3.513  17.065  0.00  0.00    +0.000 OA
ATOM      3  N   UNL     1       5.418   3.202  18.984  0.00  0.00    +0.000 N 
ATOM      4  H   UNL     1       6.287   3.348  19.491  0.00  0.00    +0.000 HD
ENDROOT
BRANCH   1  10
ATOM      5  C   UNL     1       5.035   6.697  16.340  0.00  0.00    +0.000 C 
ATOM      6  O   UNL     1       4.648   7.183  15.278  0.00  0.00    +0.000 OA
ATOM      7  N   UNL     1       6.114   5.858  16.390  0.00  0.00    +0.000 N 
ATOM      8  C   UNL     1       7.014   5.523  15.296  0.00  0.00    +0.000 C 
ATOM      9  C   UNL     1       7.096   4.118  15.882  0.00  0.00    +0.000 C 
ATOM     10  C   UNL     1       6.418   4.648  17.180  0.00  0.00    +0.000 C 
ATOM     11  C   UNL     1       7.423   4.973  18.288  0.00  0.00    +0.000 C 
BRANCH   5  12
ATOM     12  C   UNL     1       4.394   7.077  17.654  0.00  0.00    +0.000 C 
BRANCH  12  14
ATOM     13  C   UNL     1       2.339   8.529  17.739  0.00  0.00    +0.000 C 
ATOM     14  C   UNL     1       2.877   7.132  17.484  0.00  0.00    +0.000 C 
ENDBRANCH  12  14
ENDBRANCH   5  12
ENDBRANCH   1  10
BRANCH   3  15
ATOM     15  S   UNL     1       4.395   2.131  19.743  0.00  0.00    +0.000 S 
ATOM     16  O   UNL     1       4.040   1.047  18.857  0.00  0.00    +0.000 OA
ATOM     17  O   UNL     1       5.015   1.864  21.029  0.00  0.00    +0.000 OA
BRANCH  15  18
ATOM     18  C   UNL     1       2.943   3.111  20.053  0.00  0.00    +0.000 A 
ATOM     19  C   UNL     1       1.679   2.535  19.861  0.00  0.00    +0.000 A 
ATOM     20  C   UNL     1       0.529   3.312  20.006  0.00  0.00    +0.000 A 
ATOM     21  C   UNL     1       0.642   4.666  20.330  0.00  0.00    +0.000 A 
ATOM     22  C   UNL     1       1.909   5.235  20.510  0.00  0.00    +0.000 A 
ATOM     23 CL   UNL     1       2.031   6.909  20.889  0.00  0.00    +0.000 Cl
ATOM     24  C   UNL     1       3.064   4.467  20.372  0.00  0.00    +0.000 A 
ENDBRANCH  15  18
ENDBRANCH   3  15
TORSDOF 5
ENDMDL
MODEL 5
REMARK VINA RESULT:      -7.2      3.177      6.264
REMARK  Name = 
REMARK  7 active torsions:
REMARK  status: ('A' for Active; 'I' for Inactive)
REMARK    1  A    between atoms: C_1  and  C_2
REMARK    2  A    between atoms: C_2  and  C_3
REMARK    3  A    between atoms: C_3  and  C_4
REMARK    4  A    between atoms: C_9  and  C_10
REMARK    5  A    between atoms: C_9  and  C_11
REMARK    6  A    between atoms: N_13  and  S_14
REMARK    7  A    between atoms: S_14  and  C_17
REMARK                            x       y       z     vdW  Elec       q    Type
REMARK                         _______ _______ _______ _____ _____    ______ ____
ROOT
ATOM      1  C   UNL     1       5.282   4.142  17.964  0.00  0.00    +0.000 C 
ATOM      2  O   UNL     1       5.551   4.160  19.162  0.00  0.00    +0.000 OA
ATOM      3  N   UNL     1       3.985   3.847  17.509  0.00  0.00    +0.000 N 
ATOM      4  H   UNL     1       3.754   3.859  16.519  0.00  0.00    +0.000 HD
ENDROOT
BRANCH   1  10
ATOM      5  C   UNL     1       5.664   6.734  16.000  0.00  0.00    +0.000 C 
ATOM      6  O   UNL     1       5.051   7.263  15.074  0.00  0.00    +0.000 OA
ATOM      7  N   UNL     1       6.213   5.488  15.874  0.00  0.00    +0.000 N 
ATOM      8  C   UNL     1       6.282   4.680  14.665  0.00  0.00    +0.000 C 
ATOM      9  C   UNL     1       6.071   3.457  15.551  0.00  0.00    +0.000 C 
ATOM     10  C   UNL     1       6.349   4.345  16.799  0.00  0.00    +0.000 C 
ATOM     11  C   UNL     1       7.792   4.234  17.301  0.00  0.00    +0.000 C 
BRANCH   5  12
ATOM     12  C   UNL     1       5.921   7.475  17.291  0.00  0.00    +0.000 C 
BRANCH  12  14
ATOM     13  C   UNL     1       7.838   9.015  17.832  0.00  0.00    +0.000 C 
ATOM     14  C   UNL     1       7.426   7.586  17.525  0.00  0.00    +0.000 C 
ENDBRANCH  12  14
ENDBRANCH   5  12
ENDBRANCH   1  10
BRANCH   3  15
ATOM     15  S   UNL     1       2.648   3.676  18.485  0.00  0.00    +0.000 S 
ATOM     16  O   UNL     1       1.492   3.291  17.708  0.00  0.00    +0.000 OA
ATOM     17  O   UNL     1       3.096   2.858  19.599  0.00  0.00    +0.000 OA
BRANCH  15  18
ATOM     18  C   UNL     1       2.390   5.321  19.111  0.00  0.00    +0.000 A 
ATOM     19  C   UNL     1       1.910   5.484  20.419  0.00  0.00    +0.000 A 
ATOM     20  C   UNL     1       1.611   6.761  20.897  0.00  0.00    +0.000 A 
ATOM     21  C   UNL     1       1.778   7.871  20.066  0.00  0.00    +0.000 A 
ATOM     22  C   UNL     1       2.247   7.697  18.758  0.00  0.00    +0.000 A 
ATOM     23 CL   UNL     1       2.428   9.073  17.741  0.00  0.00    +0.000 Cl
ATOM     24  C   UNL     1       2.554   6.427  18.272  0.00  0.00    +0.000 A 
ENDBRANCH  15  18
ENDBRANCH   3  15
TORSDOF 5
ENDMDL
MODEL 6
REMARK VINA RESULT:      -7.2      3.210      3.883
REMARK  Name = 
REMARK  7 active torsions:
REMARK  status: ('A' for Active; 'I' for Inactive)
REMARK    1  A    between atoms: C_1  and  C_2
REMARK    2  A    between atoms: C_2  and  C_3
REMARK    3  A    between atoms: C_3  and  C_4
REMARK    4  A    between atoms: C_9  and  C_10
REMARK    5  A    between atoms: C_9  and  C_11
REMARK    6  A    between atoms: N_13  and  S_14
REMARK    7  A    between atoms: S_14  and  C_17
REMARK                            x       y       z     vdW  Elec       q    Type
REMARK                         _______ _______ _______ _____ _____    ______ ____
ROOT
ATOM      1  C   UNL     1       3.482   3.440  17.489  0.00  0.00    +0.000 C 
ATOM      2  O   UNL     1       4.186   2.458  17.708  0.00  0.00    +0.000 OA
ATOM      3  N   UNL     1       3.959   4.530  16.739  0.00  0.00    +0.000 N 
ATOM      4  H   UNL     1       3.369   5.332  16.534  0.00  0.00    +0.000 HD
ENDROOT
BRANCH   1  10
ATOM      5  C   UNL     1       2.641   4.759  20.366  0.00  0.00    +0.000 C 
ATOM      6  O   UNL     1       2.718   4.455  21.555  0.00  0.00    +0.000 OA
ATOM      7  N   UNL     1       1.857   4.052  19.497  0.00  0.00    +0.000 N 
ATOM      8  C   UNL     1       0.935   2.976  19.827  0.00  0.00    +0.000 C 
ATOM      9  C   UNL     1       1.333   2.320  18.509  0.00  0.00    +0.000 C 
ATOM     10  C   UNL     1       2.020   3.651  18.085  0.00  0.00    +0.000 C 
ATOM     11  C   UNL     1       1.139   4.516  17.180  0.00  0.00    +0.000 C 
BRANCH   5  12
ATOM     12  C   UNL     1       3.337   5.987  19.827  0.00  0.00    +0.000 C 
BRANCH  12  14
ATOM     13  C   UNL     1       2.568   7.773  18.228  0.00  0.00    +0.000 C 
ATOM     14  C   UNL     1       2.306   7.080  19.553  0.00  0.00    +0.000 C 
ENDBRANCH  12  14
ENDBRANCH   5  12
ENDBRANCH   1  10
BRANCH   3  15
ATOM     15  S   UNL     1       5.407   4.563  15.920  0.00  0.00    +0.000 S 
ATOM     16  O   UNL     1       5.889   3.224  15.675  0.00  0.00    +0.000 OA
ATOM     17  O   UNL     1       5.197   5.487  14.818  0.00  0.00    +0.000 OA
BRANCH  15  18
ATOM     18  C   UNL     1       6.505   5.361  17.071  0.00  0.00    +0.000 A 
ATOM     19  C   UNL     1       6.943   4.651  18.198  0.00  0.00    +0.000 A 
ATOM     20  C   UNL     1       7.727   5.287  19.162  0.00  0.00    +0.000 A 
ATOM     21  C   UNL     1       8.061   6.634  19.006  0.00  0.00    +0.000 A 
ATOM     22  C   UNL     1       7.610   7.338  17.883  0.00  0.00    +0.000 A 
ATOM     23 CL   UNL     1       8.014   9.002  17.718  0.00  0.00    +0.000 Cl
ATOM     24  C   UNL     1       6.831   6.711  16.912  0.00  0.00    +0.000 A 
ENDBRANCH  15  18
ENDBRANCH   3  15
TORSDOF 5
ENDMDL
MODEL 7
REMARK VINA RESULT:      -7.1      3.450      4.271
REMARK  Name = 
REMARK  7 active torsions:
REMARK  status: ('A' for Active; 'I' for Inactive)
REMARK    1  A    between atoms: C_1  and  C_2
REMARK    2  A    between atoms: C_2  and  C_3
REMARK    3  A    between atoms: C_3  and  C_4
REMARK    4  A    between atoms: C_9  and  C_10
REMARK    5  A    between atoms: C_9  and  C_11
REMARK    6  A    between atoms: N_13  and  S_14
REMARK    7  A    between atoms: S_14  and  C_17
REMARK                            x       y       z     vdW  Elec       q    Type
REMARK                         _______ _______ _______ _____ _____    ______ ____
ROOT
ATOM      1  C   UNL     1       3.793   4.809  17.051  0.00  0.00    +0.000 C 
ATOM      2  O   UNL     1       3.710   5.990  17.376  0.00  0.00    +0.000 OA
ATOM      3  N   UNL     1       4.729   4.376  16.095  0.00  0.00    +0.000 N 
ATOM      4  H   UNL     1       4.818   3.394  15.846  0.00  0.00    +0.000 HD
ENDROOT
BRANCH   1  10
ATOM      5  C   UNL     1       3.910   3.207  19.906  0.00  0.00    +0.000 C 
ATOM      6  O   UNL     1       4.637   2.375  20.444  0.00  0.00    +0.000 OA
ATOM      7  N   UNL     1       3.177   2.902  18.793  0.00  0.00    +0.000 N 
ATOM      8  C   UNL     1       3.031   1.594  18.172  0.00  0.00    +0.000 C 
ATOM      9  C   UNL     1       3.009   2.309  16.826  0.00  0.00    +0.000 C 
ATOM     10  C   UNL     1       2.822   3.661  17.576  0.00  0.00    +0.000 C 
ATOM     11  C   UNL     1       1.360   4.113  17.637  0.00  0.00    +0.000 C 
BRANCH   5  12
ATOM     12  C   UNL     1       3.720   4.582  20.503  0.00  0.00    +0.000 C 
BRANCH  12  14
ATOM     13  C   UNL     1       1.663   6.027  20.659  0.00  0.00    +0.000 C 
ATOM     14  C   UNL     1       2.301   4.707  21.055  0.00  0.00    +0.000 C 
ENDBRANCH  12  14
ENDBRANCH   5  12
ENDBRANCH   1  10
BRANCH   3  15
ATOM     15  S   UNL     1       5.928   5.324  15.437  0.00  0.00    +0.000 S 
ATOM     16  O   UNL     1       6.766   4.548  14.551  0.00  0.00    +0.000 OA
ATOM     17  O   UNL     1       5.248   6.515  14.959  0.00  0.00    +0.000 OA
BRANCH  15  18
ATOM     18  C   UNL     1       6.890   5.802  16.855  0.00  0.00    +0.000 A 
ATOM     19  C   UNL     1       7.116   4.864  17.873  0.00  0.00    +0.000 A 
ATOM     20  C   UNL     1       7.786   5.245  19.037  0.00  0.00    +0.000 A 
ATOM     21  C   UNL     1       8.218   6.564  19.188  0.00  0.00    +0.000 A 
ATOM     22  C   UNL     1       7.978   7.497  18.171  0.00  0.00    +0.000 A 
ATOM     23 CL   UNL     1       8.499   9.123  18.384  0.00  0.00    +0.000 Cl
ATOM     24  C   UNL     1       7.315   7.126  17.003  0.00  0.00    +0.000 A 
ENDBRANCH  15  18
ENDBRANCH   3  15
TORSDOF 5
ENDMDL
MODEL 8
REMARK VINA RESULT:      -6.8      3.580      6.443
REMARK  Name = 
REMARK  7 active torsions:
REMARK  status: ('A' for Active; 'I' for Inactive)
REMARK    1  A    between atoms: C_1  and  C_2
REMARK    2  A    between atoms: C_2  and  C_3
REMARK    3  A    between atoms: C_3  and  C_4
REMARK    4  A    between atoms: C_9  and  C_10
REMARK    5  A    between atoms: C_9  and  C_11
REMARK    6  A    between atoms: N_13  and  S_14
REMARK    7  A    between atoms: S_14  and  C_17
REMARK                            x       y       z     vdW  Elec       q    Type
REMARK                         _______ _______ _______ _____ _____    ______ ____
ROOT
ATOM      1  C   UNL     1       5.306   4.500  18.491  0.00  0.00    +0.000 C 
ATOM      2  O   UNL     1       5.625   4.768  19.646  0.00  0.00    +0.000 OA
ATOM      3  N   UNL     1       3.990   4.130  18.162  0.00  0.00    +0.000 N 
ATOM      4  H   UNL     1       3.718   3.936  17.201  0.00  0.00    +0.000 HD
ENDROOT
BRANCH   1  10
ATOM      5  C   UNL     1       5.758   6.724  16.129  0.00  0.00    +0.000 C 
ATOM      6  O   UNL     1       5.135   7.147  15.157  0.00  0.00    +0.000 OA
ATOM      7  N   UNL     1       6.216   5.437  16.179  0.00  0.00    +0.000 N 
ATOM      8  C   UNL     1       6.170   4.448  15.111  0.00  0.00    +0.000 C 
ATOM      9  C   UNL     1       5.923   3.396  16.186  0.00  0.00    +0.000 C 
ATOM     10  C   UNL     1       6.323   4.443  17.267  0.00  0.00    +0.000 C 
ATOM     11  C   UNL     1       7.779   4.305  17.721  0.00  0.00    +0.000 C 
BRANCH   5  12
ATOM     12  C   UNL     1       6.129   7.634  17.277  0.00  0.00    +0.000 C 
BRANCH  12  14
ATOM     13  C   UNL     1       8.054   9.094  17.983  0.00  0.00    +0.000 C 
ATOM     14  C   UNL     1       7.648   7.778  17.344  0.00  0.00    +0.000 C 
ENDBRANCH  12  14
ENDBRANCH   5  12
ENDBRANCH   1  10
BRANCH   3  15
ATOM     15  S   UNL     1       2.694   4.182  19.205  0.00  0.00    +0.000 S 
ATOM     16  O   UNL     1       1.574   3.445  18.668  0.00  0.00    +0.000 OA
ATOM     17  O   UNL     1       3.245   3.847  20.507  0.00  0.00    +0.000 OA
BRANCH  15  18
ATOM     18  C   UNL     1       2.273   5.910  19.242  0.00  0.00    +0.000 A 
ATOM     19  C   UNL     1       2.466   6.683  18.089  0.00  0.00    +0.000 A 
ATOM     20  C   UNL     1       2.233   8.059  18.124  0.00  0.00    +0.000 A 
ATOM     21  C   UNL     1       1.820   8.663  19.313  0.00  0.00    +0.000 A 
ATOM     22  C   UNL     1       1.641   7.884  20.464  0.00  0.00    +0.000 A 
ATOM     23 CL   UNL     1       1.152   8.648  21.926  0.00  0.00    +0.000 Cl
ATOM     24  C   UNL     1       1.866   6.509  20.438  0.00  0.00    +0.000 A 
ENDBRANCH  15  18
ENDBRANCH   3  15
TORSDOF 5
ENDMDL
MODEL 9
REMARK VINA RESULT:      -6.8      3.243      3.802
REMARK  Name = 
REMARK  7 active torsions:
REMARK  status: ('A' for Active; 'I' for Inactive)
REMARK    1  A    between atoms: C_1  and  C_2
REMARK    2  A    between atoms: C_2  and  C_3
REMARK    3  A    between atoms: C_3  and  C_4
REMARK    4  A    between atoms: C_9  and  C_10
REMARK    5  A    between atoms: C_9  and  C_11
REMARK    6  A    between atoms: N_13  and  S_14
REMARK    7  A    between atoms: S_14  and  C_17
REMARK                            x       y       z     vdW  Elec       q    Type
REMARK                         _______ _______ _______ _____ _____    ______ ____
ROOT
ATOM      1  C   UNL     1       3.579   3.532  17.688  0.00  0.00    +0.000 C 
ATOM      2  O   UNL     1       4.377   2.700  18.111  0.00  0.00    +0.000 OA
ATOM      3  N   UNL     1       3.969   4.516  16.761  0.00  0.00    +0.000 N 
ATOM      4  H   UNL     1       3.303   5.188  16.390  0.00  0.00    +0.000 HD
ENDROOT
BRANCH   1  10
ATOM      5  C   UNL     1       2.486   4.777  20.514  0.00  0.00    +0.000 C 
ATOM      6  O   UNL     1       2.497   4.462  21.702  0.00  0.00    +0.000 OA
ATOM      7  N   UNL     1       1.796   4.045  19.587  0.00  0.00    +0.000 N 
ATOM      8  C   UNL     1       0.905   2.923  19.844  0.00  0.00    +0.000 C 
ATOM      9  C   UNL     1       1.422   2.302  18.551  0.00  0.00    +0.000 C 
ATOM     10  C   UNL     1       2.072   3.669  18.186  0.00  0.00    +0.000 C 
ATOM     11  C   UNL     1       1.214   4.503  17.231  0.00  0.00    +0.000 C 
BRANCH   5  12
ATOM     12  C   UNL     1       3.159   6.041  20.033  0.00  0.00    +0.000 C 
BRANCH  12  14
ATOM     13  C   UNL     1       2.360   7.823  18.443  0.00  0.00    +0.000 C 
ATOM     14  C   UNL     1       2.102   7.109  19.759  0.00  0.00    +0.000 C 
ENDBRANCH  12  14
ENDBRANCH   5  12
ENDBRANCH   1  10
BRANCH   3  15
ATOM     15  S   UNL     1       5.446   4.576  15.998  0.00  0.00    +0.000 S 
ATOM     16  O   UNL     1       6.045   3.262  15.937  0.00  0.00    +0.000 OA
ATOM     17  O   UNL     1       5.214   5.340  14.785  0.00  0.00    +0.000 OA
BRANCH  15  18
ATOM     18  C   UNL     1       6.421   5.595  17.082  0.00  0.00    +0.000 A 
ATOM     19  C   UNL     1       6.700   6.917  16.707  0.00  0.00    +0.000 A 
ATOM     20  C   UNL     1       7.541   7.704  17.496  0.00  0.00    +0.000 A 
ATOM     21  C   UNL     1       8.113   7.166  18.650  0.00  0.00    +0.000 A 
ATOM     22  C   UNL     1       7.838   5.841  19.012  0.00  0.00    +0.000 A 
ATOM     23 CL   UNL     1       8.568   5.187  20.426  0.00  0.00    +0.000 Cl
ATOM     24  C   UNL     1       6.996   5.048  18.234  0.00  0.00    +0.000 A 
ENDBRANCH  15  18
ENDBRANCH   3  15
TORSDOF 5
ENDMDL
