MODEL 1
REMARK VINA RESULT:      -7.7      0.000      0.000
REMARK  Name = 
REMARK  10 active torsions:
REMARK  status: ('A' for Active; 'I' for Inactive)
REMARK    1  A    between atoms: C_1  and  C_2
REMARK    2  A    between atoms: C_2  and  C_3
REMARK    3  A    between atoms: C_3  and  O_4
REMARK    4  A    between atoms: O_4  and  C_5
REMARK    5  A    between atoms: C_8  and  C_9
REMARK    6  A    between atoms: C_11  and  O_12
REMARK    7  A    between atoms: C_15  and  O_16
REMARK    8  A    between atoms: O_16  and  C_17
REMARK    9  A    between atoms: C_18  and  O_19
REMARK   10  A    between atoms: O_19  and  C_20
REMARK                            x       y       z     vdW  Elec       q    Type
REMARK                         _______ _______ _______ _____ _____    ______ ____
ROOT
ATOM      1  C   UNL     1       3.451   6.467  17.962  0.00  0.00    +0.000 A 
ATOM      2  C   UNL     1       3.168   5.939  19.215  0.00  0.00    +0.000 A 
ATOM      3  C   UNL     1       2.296   6.592  20.046  0.00  0.00    +0.000 A 
ATOM      4  C   UNL     1       1.848   7.867  19.740  0.00  0.00    +0.000 A 
ATOM      5  C   UNL     1       1.174   8.597  20.716  0.00  0.00    +0.000 A 
ATOM      6  C   UNL     1       0.793   9.913  20.501  0.00  0.00    +0.000 A 
ATOM      7  C   UNL     1       0.992  10.471  19.232  0.00  0.00    +0.000 A 
ATOM      8  C   UNL     1       1.632   9.694  18.233  0.00  0.00    +0.000 A 
ATOM      9  C   UNL     1       2.143   8.389  18.472  0.00  0.00    +0.000 A 
ATOM     10  N   UNL     1       2.909   7.671  17.575  0.00  0.00    +0.000 NA
ENDROOT
BRANCH   1  14
ATOM     11  C   UNL     1       5.874   4.314  15.066  0.00  0.00    +0.000 A 
ATOM     12  C   UNL     1       5.724   5.690  14.990  0.00  0.00    +0.000 A 
ATOM     13  C   UNL     1       5.030   6.371  15.995  0.00  0.00    +0.000 A 
ATOM     14  C   UNL     1       4.406   5.717  17.087  0.00  0.00    +0.000 A 
ATOM     15  C   UNL     1       4.663   4.346  17.203  0.00  0.00    +0.000 A 
ATOM     16  C   UNL     1       5.386   3.658  16.203  0.00  0.00    +0.000 A 
BRANCH  11  17
ATOM     17  O   UNL     1       6.473   3.533  14.109  0.00  0.00    +0.000 OA
BRANCH  17  18
ATOM     18  C   UNL     1       6.305   3.960  12.749  0.00  0.00    +0.000 C 
BRANCH  18  20
ATOM     19  C   UNL     1       4.262   3.247  11.409  0.00  0.00    +0.000 C 
ATOM     20  C   UNL     1       5.648   2.866  11.905  0.00  0.00    +0.000 C 
ENDBRANCH  18  20
ENDBRANCH  17  18
ENDBRANCH  11  17
ENDBRANCH   1  14
BRANCH   3  21
ATOM     21  O   UNL     1       1.909   5.955  21.193  0.00  0.00    +0.000 OA
ATOM     22  H   UNL     1       1.153   6.465  21.540  0.00  0.00    +0.000 HD
ENDBRANCH   3  21
BRANCH   6  23
ATOM     23  O   UNL     1       0.267  10.466  21.635  0.00  0.00    +0.000 OA
ATOM     24  C   UNL     1      -0.189   9.634  22.687  0.00  0.00    +0.000 C 
ENDBRANCH   6  23
BRANCH   7  25
ATOM     25  O   UNL     1       0.599  11.770  19.091  0.00  0.00    +0.000 OA
ATOM     26  C   UNL     1      -0.694  12.108  18.628  0.00  0.00    +0.000 C 
ENDBRANCH   7  25
TORSDOF 7
ENDMDL
MODEL 2
REMARK VINA RESULT:      -7.3      1.049      1.072
REMARK  Name = 
REMARK  10 active torsions:
REMARK  status: ('A' for Active; 'I' for Inactive)
REMARK    1  A    between atoms: C_1  and  C_2
REMARK    2  A    between atoms: C_2  and  C_3
REMARK    3  A    between atoms: C_3  and  O_4
REMARK    4  A    between atoms: O_4  and  C_5
REMARK    5  A    between atoms: C_8  and  C_9
REMARK    6  A    between atoms: C_11  and  O_12
REMARK    7  A    between atoms: C_15  and  O_16
REMARK    8  A    between atoms: O_16  and  C_17
REMARK    9  A    between atoms: C_18  and  O_19
REMARK   10  A    between atoms: O_19  and  C_20
REMARK                            x       y       z     vdW  Elec       q    Type
REMARK                         _______ _______ _______ _____ _____    ______ ____
ROOT
ATOM      1  C   UNL     1       3.095   6.948  18.136  0.00  0.00    +0.000 A 
ATOM      2  C   UNL     1       2.751   6.586  19.432  0.00  0.00    +0.000 A 
ATOM      3  C   UNL     1       1.914   7.388  20.162  0.00  0.00    +0.000 A 
ATOM      4  C   UNL     1       1.566   8.649  19.704  0.00  0.00    +0.000 A 
ATOM      5  C   UNL     1       0.929   9.530  20.574  0.00  0.00    +0.000 A 
ATOM      6  C   UNL     1       0.649  10.837  20.203  0.00  0.00    +0.000 A 
ATOM      7  C   UNL     1       0.912  11.232  18.886  0.00  0.00    +0.000 A 
ATOM      8  C   UNL     1       1.512  10.304  17.997  0.00  0.00    +0.000 A 
ATOM      9  C   UNL     1       1.922   9.002  18.394  0.00  0.00    +0.000 A 
ATOM     10  N   UNL     1       2.650   8.135  17.603  0.00  0.00    +0.000 NA
ENDROOT
BRANCH   1  14
ATOM     11  C   UNL     1       5.465   4.402  15.529  0.00  0.00    +0.000 A 
ATOM     12  C   UNL     1       5.590   5.781  15.486  0.00  0.00    +0.000 A 
ATOM     13  C   UNL     1       4.898   6.572  16.409  0.00  0.00    +0.000 A 
ATOM     14  C   UNL     1       4.009   6.038  17.376  0.00  0.00    +0.000 A 
ATOM     15  C   UNL     1       3.983   4.642  17.474  0.00  0.00    +0.000 A 
ATOM     16  C   UNL     1       4.701   3.839  16.559  0.00  0.00    +0.000 A 
BRANCH  11  17
ATOM     17  O   UNL     1       6.039   3.531  14.636  0.00  0.00    +0.000 OA
BRANCH  17  18
ATOM     18  C   UNL     1       6.588   4.116  13.446  0.00  0.00    +0.000 C 
BRANCH  18  20
ATOM     19  C   UNL     1       4.734   3.359  11.875  0.00  0.00    +0.000 C 
ATOM     20  C   UNL     1       6.216   3.298  12.208  0.00  0.00    +0.000 C 
ENDBRANCH  18  20
ENDBRANCH  17  18
ENDBRANCH  11  17
ENDBRANCH   1  14
BRANCH   3  21
ATOM     21  O   UNL     1       1.459   6.914  21.362  0.00  0.00    +0.000 OA
ATOM     22  H   UNL     1       2.092   6.223  21.633  0.00  0.00    +0.000 HD
ENDBRANCH   3  21
BRANCH   6  23
ATOM     23  O   UNL     1       0.144  11.550  21.254  0.00  0.00    +0.000 OA
ATOM     24  C   UNL     1      -1.256  11.716  21.395  0.00  0.00    +0.000 C 
ENDBRANCH   6  23
BRANCH   7  25
ATOM     25  O   UNL     1       0.618  12.531  18.591  0.00  0.00    +0.000 OA
ATOM     26  C   UNL     1       1.631  13.511  18.462  0.00  0.00    +0.000 C 
ENDBRANCH   7  25
TORSDOF 7
ENDMDL
MODEL 3
REMARK VINA RESULT:      -7.1      0.874      1.338
REMARK  Name = 
REMARK  10 active torsions:
REMARK  status: ('A' for Active; 'I' for Inactive)
REMARK    1  A    between atoms: C_1  and  C_2
REMARK    2  A    between atoms: C_2  and  C_3
REMARK    3  A    between atoms: C_3  and  O_4
REMARK    4  A    between atoms: O_4  and  C_5
REMARK    5  A    between atoms: C_8  and  C_9
REMARK    6  A    between atoms: C_11  and  O_12
REMARK    7  A    between atoms: C_15  and  O_16
REMARK    8  A    between atoms: O_16  and  C_17
REMARK    9  A    between atoms: C_18  and  O_19
REMARK   10  A    between atoms: O_19  and  C_20
REMARK                            x       y       z     vdW  Elec       q    Type
REMARK                         _______ _______ _______ _____ _____    ______ ____
ROOT
ATOM      1  C   UNL     1       3.134   6.631  18.160  0.00  0.00    +0.000 A 
ATOM      2  C   UNL     1       3.026   5.978  19.381  0.00  0.00    +0.000 A 
ATOM      3  C   UNL     1       2.280   6.534  20.386  0.00  0.00    +0.000 A 
ATOM      4  C   UNL     1       1.797   7.829  20.273  0.00  0.00    +0.000 A 
ATOM      5  C   UNL     1       1.267   8.451  21.401  0.00  0.00    +0.000 A 
ATOM      6  C   UNL     1       0.862   9.777  21.372  0.00  0.00    +0.000 A 
ATOM      7  C   UNL     1       0.885  10.460  20.150  0.00  0.00    +0.000 A 
ATOM      8  C   UNL     1       1.378   9.794  19.000  0.00  0.00    +0.000 A 
ATOM      9  C   UNL     1       1.914   8.477  19.035  0.00  0.00    +0.000 A 
ATOM     10  N   UNL     1       2.547   7.861  17.974  0.00  0.00    +0.000 NA
ENDROOT
BRANCH   1  14
ATOM     11  C   UNL     1       5.844   4.623  15.418  0.00  0.00    +0.000 A 
ATOM     12  C   UNL     1       4.994   3.900  16.240  0.00  0.00    +0.000 A 
ATOM     13  C   UNL     1       4.057   4.569  17.032  0.00  0.00    +0.000 A 
ATOM     14  C   UNL     1       3.957   5.982  17.091  0.00  0.00    +0.000 A 
ATOM     15  C   UNL     1       4.746   6.686  16.174  0.00  0.00    +0.000 A 
ATOM     16  C   UNL     1       5.678   6.012  15.353  0.00  0.00    +0.000 A 
BRANCH  11  17
ATOM     17  O   UNL     1       6.846   4.082  14.651  0.00  0.00    +0.000 OA
BRANCH  17  18
ATOM     18  C   UNL     1       7.063   4.695  13.371  0.00  0.00    +0.000 C 
BRANCH  18  20
ATOM     19  C   UNL     1       5.364   3.287  12.103  0.00  0.00    +0.000 C 
ATOM     20  C   UNL     1       6.821   3.699  12.235  0.00  0.00    +0.000 C 
ENDBRANCH  18  20
ENDBRANCH  17  18
ENDBRANCH  11  17
ENDBRANCH   1  14
BRANCH   3  21
ATOM     21  O   UNL     1       2.053   5.783  21.505  0.00  0.00    +0.000 OA
ATOM     22  H   UNL     1       2.896   5.335  21.701  0.00  0.00    +0.000 HD
ENDBRANCH   3  21
BRANCH   6  23
ATOM     23  O   UNL     1       0.500  10.209  22.618  0.00  0.00    +0.000 OA
ATOM     24  C   UNL     1      -0.869  10.366  22.947  0.00  0.00    +0.000 C 
ENDBRANCH   6  23
BRANCH   7  25
ATOM     25  O   UNL     1       0.480  11.762  20.195  0.00  0.00    +0.000 OA
ATOM     26  C   UNL     1       1.402  12.830  20.092  0.00  0.00    +0.000 C 
ENDBRANCH   7  25
TORSDOF 7
ENDMDL
MODEL 4
REMARK VINA RESULT:      -7.0      1.130      1.645
REMARK  Name = 
REMARK  10 active torsions:
REMARK  status: ('A' for Active; 'I' for Inactive)
REMARK    1  A    between atoms: C_1  and  C_2
REMARK    2  A    between atoms: C_2  and  C_3
REMARK    3  A    between atoms: C_3  and  O_4
REMARK    4  A    between atoms: O_4  and  C_5
REMARK    5  A    between atoms: C_8  and  C_9
REMARK    6  A    between atoms: C_11  and  O_12
REMARK    7  A    between atoms: C_15  and  O_16
REMARK    8  A    between atoms: O_16  and  C_17
REMARK    9  A    between atoms: C_18  and  O_19
REMARK   10  A    between atoms: O_19  and  C_20
REMARK                            x       y       z     vdW  Elec       q    Type
REMARK                         _______ _______ _______ _____ _____    ______ ____
ROOT
ATOM      1  C   UNL     1       2.699   7.250  18.311  0.00  0.00    +0.000 A 
ATOM      2  C   UNL     1       2.459   6.823  19.611  0.00  0.00    +0.000 A 
ATOM      3  C   UNL     1       1.719   7.605  20.458  0.00  0.00    +0.000 A 
ATOM      4  C   UNL     1       1.375   8.900  20.104  0.00  0.00    +0.000 A 
ATOM      5  C   UNL     1       0.849   9.748  21.077  0.00  0.00    +0.000 A 
ATOM      6  C   UNL     1       0.582  11.082  20.806  0.00  0.00    +0.000 A 
ATOM      7  C   UNL     1       0.740  11.546  19.494  0.00  0.00    +0.000 A 
ATOM      8  C   UNL     1       1.226  10.654  18.505  0.00  0.00    +0.000 A 
ATOM      9  C   UNL     1       1.625   9.319  18.789  0.00  0.00    +0.000 A 
ATOM     10  N   UNL     1       2.249   8.479  17.888  0.00  0.00    +0.000 NA
ENDROOT
BRANCH   1  14
ATOM     11  C   UNL     1       5.302   4.531  16.139  0.00  0.00    +0.000 A 
ATOM     12  C   UNL     1       4.248   4.054  16.902  0.00  0.00    +0.000 A 
ATOM     13  C   UNL     1       3.361   4.953  17.502  0.00  0.00    +0.000 A 
ATOM     14  C   UNL     1       3.509   6.360  17.422  0.00  0.00    +0.000 A 
ATOM     15  C   UNL     1       4.511   6.818  16.559  0.00  0.00    +0.000 A 
ATOM     16  C   UNL     1       5.395   5.912  15.930  0.00  0.00    +0.000 A 
BRANCH  11  17
ATOM     17  O   UNL     1       6.273   3.750  15.561  0.00  0.00    +0.000 OA
BRANCH  17  18
ATOM     18  C   UNL     1       6.741   4.174  14.272  0.00  0.00    +0.000 C 
BRANCH  18  20
ATOM     19  C   UNL     1       6.640   3.368  11.860  0.00  0.00    +0.000 C 
ATOM     20  C   UNL     1       5.872   3.596  13.153  0.00  0.00    +0.000 C 
ENDBRANCH  18  20
ENDBRANCH  17  18
ENDBRANCH  11  17
ENDBRANCH   1  14
BRANCH   3  21
ATOM     21  O   UNL     1       1.357   7.075  21.666  0.00  0.00    +0.000 OA
ATOM     22  H   UNL     1       0.537   6.574  21.503  0.00  0.00    +0.000 HD
ENDBRANCH   3  21
BRANCH   6  23
ATOM     23  O   UNL     1       0.198  11.747  21.937  0.00  0.00    +0.000 OA
ATOM     24  C   UNL     1      -1.118  11.596  22.438  0.00  0.00    +0.000 C 
ENDBRANCH   6  23
BRANCH   7  25
ATOM     25  O   UNL     1       0.466  12.868  19.300  0.00  0.00    +0.000 OA
ATOM     26  C   UNL     1      -0.823  13.311  18.923  0.00  0.00    +0.000 C 
ENDBRANCH   7  25
TORSDOF 7
ENDMDL
MODEL 5
REMARK VINA RESULT:      -7.0      2.939      9.533
REMARK  Name = 
REMARK  10 active torsions:
REMARK  status: ('A' for Active; 'I' for Inactive)
REMARK    1  A    between atoms: C_1  and  C_2
REMARK    2  A    between atoms: C_2  and  C_3
REMARK    3  A    between atoms: C_3  and  O_4
REMARK    4  A    between atoms: O_4  and  C_5
REMARK    5  A    between atoms: C_8  and  C_9
REMARK    6  A    between atoms: C_11  and  O_12
REMARK    7  A    between atoms: C_15  and  O_16
REMARK    8  A    between atoms: O_16  and  C_17
REMARK    9  A    between atoms: C_18  and  O_19
REMARK   10  A    between atoms: O_19  and  C_20
REMARK                            x       y       z     vdW  Elec       q    Type
REMARK                         _______ _______ _______ _____ _____    ______ ____
ROOT
ATOM      1  C   UNL     1       1.342   8.271  20.063  0.00  0.00    +0.000 A 
ATOM      2  C   UNL     1       1.783   8.789  18.852  0.00  0.00    +0.000 A 
ATOM      3  C   UNL     1       2.555   8.018  18.024  0.00  0.00    +0.000 A 
ATOM      4  C   UNL     1       3.067   6.807  18.461  0.00  0.00    +0.000 A 
ATOM      5  C   UNL     1       4.046   6.174  17.697  0.00  0.00    +0.000 A 
ATOM      6  C   UNL     1       4.666   5.013  18.134  0.00  0.00    +0.000 A 
ATOM      7  C   UNL     1       4.210   4.411  19.314  0.00  0.00    +0.000 A 
ATOM      8  C   UNL     1       3.176   5.041  20.051  0.00  0.00    +0.000 A 
ATOM      9  C   UNL     1       2.615   6.296  19.686  0.00  0.00    +0.000 A 
ATOM     10  N   UNL     1       1.725   7.011  20.463  0.00  0.00    +0.000 NA
ENDROOT
BRANCH   1  14
ATOM     11  C   UNL     1      -0.717  11.131  22.607  0.00  0.00    +0.000 A 
ATOM     12  C   UNL     1      -0.553  11.369  21.252  0.00  0.00    +0.000 A 
ATOM     13  C   UNL     1       0.016  10.386  20.436  0.00  0.00    +0.000 A 
ATOM     14  C   UNL     1       0.498   9.149  20.933  0.00  0.00    +0.000 A 
ATOM     15  C   UNL     1       0.223   8.886  22.280  0.00  0.00    +0.000 A 
ATOM     16  C   UNL     1      -0.374   9.867  23.102  0.00  0.00    +0.000 A 
BRANCH  11  17
ATOM     17  O   UNL     1      -1.198  12.043  23.514  0.00  0.00    +0.000 OA
BRANCH  17  18
ATOM     18  C   UNL     1      -2.161  12.983  23.016  0.00  0.00    +0.000 C 
BRANCH  18  20
ATOM     19  C   UNL     1      -4.176  12.558  24.512  0.00  0.00    +0.000 C 
ATOM     20  C   UNL     1      -3.581  12.424  23.119  0.00  0.00    +0.000 C 
ENDBRANCH  18  20
ENDBRANCH  17  18
ENDBRANCH  11  17
ENDBRANCH   1  14
BRANCH   3  21
ATOM     21  O   UNL     1       2.821   8.495  16.770  0.00  0.00    +0.000 OA
ATOM     22  H   UNL     1       3.605   9.067  16.863  0.00  0.00    +0.000 HD
ENDBRANCH   3  21
BRANCH   6  23
ATOM     23  O   UNL     1       5.677   4.647  17.290  0.00  0.00    +0.000 OA
ATOM     24  C   UNL     1       6.902   5.358  17.296  0.00  0.00    +0.000 C 
ENDBRANCH   6  23
BRANCH   7  25
ATOM     25  O   UNL     1       4.869   3.276  19.689  0.00  0.00    +0.000 OA
ATOM     26  C   UNL     1       4.249   2.006  19.631  0.00  0.00    +0.000 C 
ENDBRANCH   7  25
TORSDOF 7
ENDMDL
MODEL 6
REMARK VINA RESULT:      -6.9      3.028      9.747
REMARK  Name = 
REMARK  10 active torsions:
REMARK  status: ('A' for Active; 'I' for Inactive)
REMARK    1  A    between atoms: C_1  and  C_2
REMARK    2  A    between atoms: C_2  and  C_3
REMARK    3  A    between atoms: C_3  and  O_4
REMARK    4  A    between atoms: O_4  and  C_5
REMARK    5  A    between atoms: C_8  and  C_9
REMARK    6  A    between atoms: C_11  and  O_12
REMARK    7  A    between atoms: C_15  and  O_16
REMARK    8  A    between atoms: O_16  and  C_17
REMARK    9  A    between atoms: C_18  and  O_19
REMARK   10  A    between atoms: O_19  and  C_20
REMARK                            x       y       z     vdW  Elec       q    Type
REMARK                         _______ _______ _______ _____ _____    ______ ____
ROOT
ATOM      1  C   UNL     1       1.125   8.723  20.330  0.00  0.00    +0.000 A 
ATOM      2  C   UNL     1       1.622   9.149  19.105  0.00  0.00    +0.000 A 
ATOM      3  C   UNL     1       2.267   8.260  18.287  0.00  0.00    +0.000 A 
ATOM      4  C   UNL     1       2.606   6.997  18.745  0.00  0.00    +0.000 A 
ATOM      5  C   UNL     1       3.476   6.216  17.987  0.00  0.00    +0.000 A 
ATOM      6  C   UNL     1       3.929   4.987  18.444  0.00  0.00    +0.000 A 
ATOM      7  C   UNL     1       3.406   4.480  19.639  0.00  0.00    +0.000 A 
ATOM      8  C   UNL     1       2.480   5.265  20.371  0.00  0.00    +0.000 A 
ATOM      9  C   UNL     1       2.099   6.580  19.985  0.00  0.00    +0.000 A 
ATOM     10  N   UNL     1       1.329   7.430  20.753  0.00  0.00    +0.000 NA
ENDROOT
BRANCH   1  14
ATOM     11  C   UNL     1      -1.318  11.363  22.771  0.00  0.00    +0.000 A 
ATOM     12  C   UNL     1      -0.833  10.168  23.277  0.00  0.00    +0.000 A 
ATOM     13  C   UNL     1       0.040   9.390  22.510  0.00  0.00    +0.000 A 
ATOM     14  C   UNL     1       0.424   9.730  21.188  0.00  0.00    +0.000 A 
ATOM     15  C   UNL     1       0.012  10.990  20.740  0.00  0.00    +0.000 A 
ATOM     16  C   UNL     1      -0.849  11.791  21.523  0.00  0.00    +0.000 A 
BRANCH  11  17
ATOM     17  O   UNL     1      -2.230  12.173  23.401  0.00  0.00    +0.000 OA
BRANCH  17  18
ATOM     18  C   UNL     1      -3.313  12.656  22.592  0.00  0.00    +0.000 C 
BRANCH  18  20
ATOM     19  C   UNL     1      -4.506  12.353  24.820  0.00  0.00    +0.000 C 
ATOM     20  C   UNL     1      -4.525  13.017  23.452  0.00  0.00    +0.000 C 
ENDBRANCH  18  20
ENDBRANCH  17  18
ENDBRANCH  11  17
ENDBRANCH   1  14
BRANCH   3  21
ATOM     21  O   UNL     1       2.585   8.670  17.022  0.00  0.00    +0.000 OA
ATOM     22  H   UNL     1       2.485   9.639  17.022  0.00  0.00    +0.000 HD
ENDBRANCH   3  21
BRANCH   6  23
ATOM     23  O   UNL     1       4.869   4.464  17.599  0.00  0.00    +0.000 OA
ATOM     24  C   UNL     1       6.244   4.722  17.817  0.00  0.00    +0.000 C 
ENDBRANCH   6  23
BRANCH   7  25
ATOM     25  O   UNL     1       3.900   3.270  20.032  0.00  0.00    +0.000 OA
ATOM     26  C   UNL     1       3.206   2.449  20.952  0.00  0.00    +0.000 C 
ENDBRANCH   7  25
TORSDOF 7
ENDMDL
MODEL 7
REMARK VINA RESULT:      -6.9      2.195      9.118
REMARK  Name = 
REMARK  10 active torsions:
REMARK  status: ('A' for Active; 'I' for Inactive)
REMARK    1  A    between atoms: C_1  and  C_2
REMARK    2  A    between atoms: C_2  and  C_3
REMARK    3  A    between atoms: C_3  and  O_4
REMARK    4  A    between atoms: O_4  and  C_5
REMARK    5  A    between atoms: C_8  and  C_9
REMARK    6  A    between atoms: C_11  and  O_12
REMARK    7  A    between atoms: C_15  and  O_16
REMARK    8  A    between atoms: O_16  and  C_17
REMARK    9  A    between atoms: C_18  and  O_19
REMARK   10  A    between atoms: O_19  and  C_20
REMARK                            x       y       z     vdW  Elec       q    Type
REMARK                         _______ _______ _______ _____ _____    ______ ____
ROOT
ATOM      1  C   UNL     1       1.775   7.557  20.199  0.00  0.00    +0.000 A 
ATOM      2  C   UNL     1       1.468   6.406  20.914  0.00  0.00    +0.000 A 
ATOM      3  C   UNL     1       2.071   5.221  20.586  0.00  0.00    +0.000 A 
ATOM      4  C   UNL     1       2.828   5.109  19.430  0.00  0.00    +0.000 A 
ATOM      5  C   UNL     1       3.212   3.843  18.995  0.00  0.00    +0.000 A 
ATOM      6  C   UNL     1       3.884   3.663  17.795  0.00  0.00    +0.000 A 
ATOM      7  C   UNL     1       4.279   4.794  17.070  0.00  0.00    +0.000 A 
ATOM      8  C   UNL     1       3.926   6.079  17.556  0.00  0.00    +0.000 A 
ATOM      9  C   UNL     1       3.130   6.279  18.717  0.00  0.00    +0.000 A 
ATOM     10  N   UNL     1       2.635   7.501  19.127  0.00  0.00    +0.000 NA
ENDROOT
BRANCH   1  14
ATOM     11  C   UNL     1      -0.610  10.974  21.434  0.00  0.00    +0.000 A 
ATOM     12  C   UNL     1      -0.101  10.083  22.366  0.00  0.00    +0.000 A 
ATOM     13  C   UNL     1       0.752   9.056  21.953  0.00  0.00    +0.000 A 
ATOM     14  C   UNL     1       1.094   8.829  20.597  0.00  0.00    +0.000 A 
ATOM     15  C   UNL     1       0.661   9.802  19.689  0.00  0.00    +0.000 A 
ATOM     16  C   UNL     1      -0.182  10.857  20.106  0.00  0.00    +0.000 A 
BRANCH  11  17
ATOM     17  O   UNL     1      -1.507  11.976  21.710  0.00  0.00    +0.000 OA
BRANCH  17  18
ATOM     18  C   UNL     1      -1.672  12.314  23.095  0.00  0.00    +0.000 C 
BRANCH  18  20
ATOM     19  C   UNL     1      -4.085  12.758  22.420  0.00  0.00    +0.000 C 
ATOM     20  C   UNL     1      -3.144  12.259  23.505  0.00  0.00    +0.000 C 
ENDBRANCH  18  20
ENDBRANCH  17  18
ENDBRANCH  11  17
ENDBRANCH   1  14
BRANCH   3  21
ATOM     21  O   UNL     1       1.878   4.153  21.418  0.00  0.00    +0.000 OA
ATOM     22  H   UNL     1       2.741   3.983  21.839  0.00  0.00    +0.000 HD
ENDBRANCH   3  21
BRANCH   6  23
ATOM     23  O   UNL     1       4.041   2.335  17.513  0.00  0.00    +0.000 OA
ATOM     24  C   UNL     1       3.568   1.354  18.419  0.00  0.00    +0.000 C 
ENDBRANCH   6  23
BRANCH   7  25
ATOM     25  O   UNL     1       4.928   4.545  15.897  0.00  0.00    +0.000 OA
ATOM     26  C   UNL     1       6.336   4.414  15.841  0.00  0.00    +0.000 C 
ENDBRANCH   7  25
TORSDOF 7
ENDMDL
MODEL 8
REMARK VINA RESULT:      -6.8      1.493      2.682
REMARK  Name = 
REMARK  10 active torsions:
REMARK  status: ('A' for Active; 'I' for Inactive)
REMARK    1  A    between atoms: C_1  and  C_2
REMARK    2  A    between atoms: C_2  and  C_3
REMARK    3  A    between atoms: C_3  and  O_4
REMARK    4  A    between atoms: O_4  and  C_5
REMARK    5  A    between atoms: C_8  and  C_9
REMARK    6  A    between atoms: C_11  and  O_12
REMARK    7  A    between atoms: C_15  and  O_16
REMARK    8  A    between atoms: O_16  and  C_17
REMARK    9  A    between atoms: C_18  and  O_19
REMARK   10  A    between atoms: O_19  and  C_20
REMARK                            x       y       z     vdW  Elec       q    Type
REMARK                         _______ _______ _______ _____ _____    ______ ____
ROOT
ATOM      1  C   UNL     1       3.182   7.330  18.219  0.00  0.00    +0.000 A 
ATOM      2  C   UNL     1       2.960   8.457  17.438  0.00  0.00    +0.000 A 
ATOM      3  C   UNL     1       2.216   9.494  17.935  0.00  0.00    +0.000 A 
ATOM      4  C   UNL     1       1.515   9.354  19.123  0.00  0.00    +0.000 A 
ATOM      5  C   UNL     1       0.575  10.322  19.469  0.00  0.00    +0.000 A 
ATOM      6  C   UNL     1      -0.226  10.183  20.592  0.00  0.00    +0.000 A 
ATOM      7  C   UNL     1       0.003   9.101  21.451  0.00  0.00    +0.000 A 
ATOM      8  C   UNL     1       1.002   8.154  21.111  0.00  0.00    +0.000 A 
ATOM      9  C   UNL     1       1.746   8.210  19.901  0.00  0.00    +0.000 A 
ATOM     10  N   UNL     1       2.608   7.223  19.465  0.00  0.00    +0.000 NA
ENDROOT
BRANCH   1  14
ATOM     11  C   UNL     1       5.458   4.312  16.074  0.00  0.00    +0.000 A 
ATOM     12  C   UNL     1       5.952   5.596  16.239  0.00  0.00    +0.000 A 
ATOM     13  C   UNL     1       5.251   6.516  17.025  0.00  0.00    +0.000 A 
ATOM     14  C   UNL     1       4.005   6.225  17.634  0.00  0.00    +0.000 A 
ATOM     15  C   UNL     1       3.580   4.895  17.546  0.00  0.00    +0.000 A 
ATOM     16  C   UNL     1       4.298   3.955  16.773  0.00  0.00    +0.000 A 
BRANCH  11  17
ATOM     17  O   UNL     1       6.020   3.349  15.273  0.00  0.00    +0.000 OA
BRANCH  17  18
ATOM     18  C   UNL     1       6.403   3.767  13.955  0.00  0.00    +0.000 C 
BRANCH  18  20
ATOM     19  C   UNL     1       5.417   2.923  11.766  0.00  0.00    +0.000 C 
ATOM     20  C   UNL     1       5.202   3.774  13.008  0.00  0.00    +0.000 C 
ENDBRANCH  18  20
ENDBRANCH  17  18
ENDBRANCH  11  17
ENDBRANCH   1  14
BRANCH   3  21
ATOM     21  O   UNL     1       2.168  10.652  17.210  0.00  0.00    +0.000 OA
ATOM     22  H   UNL     1       3.091  10.957  17.131  0.00  0.00    +0.000 HD
ENDBRANCH   3  21
BRANCH   6  23
ATOM     23  O   UNL     1      -1.158  11.181  20.660  0.00  0.00    +0.000 OA
ATOM     24  C   UNL     1      -1.799  11.637  19.482  0.00  0.00    +0.000 C 
ENDBRANCH   6  23
BRANCH   7  25
ATOM     25  O   UNL     1      -0.824   9.022  22.533  0.00  0.00    +0.000 OA
ATOM     26  C   UNL     1      -0.840  10.025  23.530  0.00  0.00    +0.000 C 
ENDBRANCH   7  25
TORSDOF 7
ENDMDL
MODEL 9
REMARK VINA RESULT:      -6.7      3.782      6.187
REMARK  Name = 
REMARK  10 active torsions:
REMARK  status: ('A' for Active; 'I' for Inactive)
REMARK    1  A    between atoms: C_1  and  C_2
REMARK    2  A    between atoms: C_2  and  C_3
REMARK    3  A    between atoms: C_3  and  O_4
REMARK    4  A    between atoms: O_4  and  C_5
REMARK    5  A    between atoms: C_8  and  C_9
REMARK    6  A    between atoms: C_11  and  O_12
REMARK    7  A    between atoms: C_15  and  O_16
REMARK    8  A    between atoms: O_16  and  C_17
REMARK    9  A    between atoms: C_18  and  O_19
REMARK   10  A    between atoms: O_19  and  C_20
REMARK                            x       y       z     vdW  Elec       q    Type
REMARK                         _______ _______ _______ _____ _____    ______ ____
ROOT
ATOM      1  C   UNL     1       0.055  10.292  19.715  0.00  0.00    +0.000 A 
ATOM      2  C   UNL     1      -0.693  10.747  18.636  0.00  0.00    +0.000 A 
ATOM      3  C   UNL     1      -1.648  11.710  18.828  0.00  0.00    +0.000 A 
ATOM      4  C   UNL     1      -2.018  12.092  20.107  0.00  0.00    +0.000 A 
ATOM      5  C   UNL     1      -3.157  12.877  20.274  0.00  0.00    +0.000 A 
ATOM      6  C   UNL     1      -3.631  13.206  21.535  0.00  0.00    +0.000 A 
ATOM      7  C   UNL     1      -2.878  12.832  22.654  0.00  0.00    +0.000 A 
ATOM      8  C   UNL     1      -1.692  12.079  22.463  0.00  0.00    +0.000 A 
ATOM      9  C   UNL     1      -1.256  11.625  21.188  0.00  0.00    +0.000 A 
ATOM     10  N   UNL     1      -0.200  10.759  20.984  0.00  0.00    +0.000 NA
ENDROOT
BRANCH   1  14
ATOM     11  C   UNL     1       2.729   7.036  18.651  0.00  0.00    +0.000 A 
ATOM     12  C   UNL     1       2.521   8.100  17.789  0.00  0.00    +0.000 A 
ATOM     13  C   UNL     1       1.743   9.186  18.199  0.00  0.00    +0.000 A 
ATOM     14  C   UNL     1       1.089   9.243  19.456  0.00  0.00    +0.000 A 
ATOM     15  C   UNL     1       1.401   8.212  20.350  0.00  0.00    +0.000 A 
ATOM     16  C   UNL     1       2.208   7.124  19.948  0.00  0.00    +0.000 A 
BRANCH  11  17
ATOM     17  O   UNL     1       3.415   5.888  18.336  0.00  0.00    +0.000 OA
BRANCH  17  18
ATOM     18  C   UNL     1       2.897   4.670  18.890  0.00  0.00    +0.000 C 
BRANCH  18  20
ATOM     19  C   UNL     1       1.084   2.911  18.575  0.00  0.00    +0.000 C 
ATOM     20  C   UNL     1       1.935   3.986  17.917  0.00  0.00    +0.000 C 
ENDBRANCH  18  20
ENDBRANCH  17  18
ENDBRANCH  11  17
ENDBRANCH   1  14
BRANCH   3  21
ATOM     21  O   UNL     1      -2.237  12.255  17.721  0.00  0.00    +0.000 OA
ATOM     22  H   UNL     1      -3.098  11.808  17.629  0.00  0.00    +0.000 HD
ENDBRANCH   3  21
BRANCH   6  23
ATOM     23  O   UNL     1      -4.825  13.867  21.455  0.00  0.00    +0.000 OA
ATOM     24  C   UNL     1      -6.038  13.140  21.382  0.00  0.00    +0.000 C 
ENDBRANCH   6  23
BRANCH   7  25
ATOM     25  O   UNL     1      -3.405  13.181  23.863  0.00  0.00    +0.000 OA
ATOM     26  C   UNL     1      -4.267  12.314  24.575  0.00  0.00    +0.000 C 
ENDBRANCH   7  25
TORSDOF 7
ENDMDL
