MODEL 1
REMARK VINA RESULT:      -5.3      0.000      0.000
REMARK  Name = 
REMARK  28 active torsions:
REMARK  status: ('A' for Active; 'I' for Inactive)
REMARK    1  A    between atoms: C_1  and  C_2
REMARK    2  A    between atoms: C_2  and  C_3
REMARK    3  A    between atoms: C_3  and  C_4
REMARK    4  A    between atoms: C_4  and  C_5
REMARK    5  A    between atoms: C_5  and  C_6
REMARK    6  A    between atoms: C_6  and  C_7
REMARK    7  A    between atoms: C_7  and  C_8
REMARK    8  A    between atoms: C_8  and  C_9
REMARK    9  A    between atoms: C_9  and  C_10
REMARK   10  A    between atoms: C_10  and  C_11
REMARK   11  A    between atoms: C_11  and  C_12
REMARK   12  A    between atoms: C_12  and  C_13
REMARK   13  A    between atoms: C_13  and  C_14
REMARK   14  A    between atoms: C_14  and  C_15
REMARK   15  A    between atoms: C_15  and  C_16
REMARK   16  A    between atoms: C_16  and  O_17
REMARK   17  A    between atoms: O_17  and  C_18
REMARK   18  A    between atoms: C_18  and  C_19
REMARK   19  A    between atoms: C_19  and  C_20
REMARK   20  A    between atoms: C_20  and  O_21
REMARK   21  A    between atoms: O_21  and  P_22
REMARK   22  A    between atoms: P_22  and  O_25
REMARK   23  A    between atoms: O_25  and  C_26
REMARK   24  A    between atoms: C_26  and  C_27
REMARK   25  A    between atoms: C_27  and  N_28
REMARK   26  A    between atoms: N_28  and  C_29
REMARK   27  A    between atoms: N_28  and  C_30
REMARK   28  A    between atoms: N_28  and  C_31
REMARK                            x       y       z     vdW  Elec       q    Type
REMARK                         _______ _______ _______ _____ _____    ______ ____
ROOT
ATOM      1  C   UNL     1       2.772   7.720  18.372  0.00  0.00    +0.000 C 
ENDROOT
BRANCH   1   2
ATOM      2  O   UNL     1       1.812   8.525  17.694  0.00  0.00    +0.000 OA
BRANCH   2   3
ATOM      3  C   UNL     1       1.019   9.228  18.639  0.00  0.00    +0.000 C 
BRANCH   3   4
ATOM      4  C   UNL     1       1.293  10.707  18.531  0.00  0.00    +0.000 C 
BRANCH   4   5
ATOM      5  C   UNL     1       1.152  11.352  19.880  0.00  0.00    +0.000 C 
BRANCH   5   6
ATOM      6  O   UNL     1       0.040  12.246  19.907  0.00  0.00    +0.000 OA
BRANCH   6   7
ATOM      7  P   UNL     1      -0.591  12.383  21.512  0.00  0.00    +0.000 P 
ATOM      8  O   UNL     1      -0.550  10.862  21.694  0.00  0.00    +0.000 OA
ATOM      9  O   UNL     1       0.582  13.309  21.880  0.00  0.00    +0.000 OA
BRANCH   7  10
ATOM     10  O   UNL     1      -1.223  12.521  23.117  0.00  0.00    +0.000 OA
BRANCH  10  11
ATOM     11  C   UNL     1      -2.526  12.023  23.205  0.00  0.00    +0.000 C 
BRANCH  11  12
ATOM     12  C   UNL     1      -3.526  12.911  22.492  0.00  0.00    +0.000 C 
BRANCH  12  13
ATOM     13  N   UNL     1      -4.572  13.341  23.493  0.00  0.00    +0.000 N 
ATOM     14  C   UNL     1      -4.430  14.804  23.924  0.00  0.00    +0.000 C 
ATOM     15  C   UNL     1      -5.996  13.097  22.959  0.00  0.00    +0.000 C 
ATOM     16  C   UNL     1      -4.402  12.470  24.751  0.00  0.00    +0.000 C 
ENDBRANCH  12  13
ENDBRANCH  11  12
ENDBRANCH  10  11
ENDBRANCH   7  10
ENDBRANCH   6   7
ENDBRANCH   5   6
ENDBRANCH   4   5
ENDBRANCH   3   4
ENDBRANCH   2   3
ENDBRANCH   1   2
BRANCH   1  17
ATOM     17  C   UNL     1       2.203   6.334  18.561  0.00  0.00    +0.000 C 
BRANCH  17  18
ATOM     18  C   UNL     1       2.254   5.971  20.035  0.00  0.00    +0.000 C 
BRANCH  18  19
ATOM     19  C   UNL     1       1.254   4.875  20.339  0.00  0.00    +0.000 C 
BRANCH  19  20
ATOM     20  C   UNL     1       1.904   3.804  21.196  0.00  0.00    +0.000 C 
BRANCH  20  21
ATOM     21  C   UNL     1       1.972   2.500  20.424  0.00  0.00    +0.000 C 
BRANCH  21  22
ATOM     22  C   UNL     1       1.257   2.648  19.097  0.00  0.00    +0.000 C 
BRANCH  22  23
ATOM     23  C   UNL     1       2.178   2.231  17.964  0.00  0.00    +0.000 C 
BRANCH  23  24
ATOM     24  C   UNL     1       3.621   2.326  18.412  0.00  0.00    +0.000 C 
BRANCH  24  25
ATOM     25  C   UNL     1       4.287   3.523  17.757  0.00  0.00    +0.000 C 
BRANCH  25  26
ATOM     26  C   UNL     1       5.300   4.134  18.706  0.00  0.00    +0.000 C 
BRANCH  26  27
ATOM     27  C   UNL     1       6.484   4.671  17.922  0.00  0.00    +0.000 C 
BRANCH  27  28
ATOM     28  C   UNL     1       6.003   5.595  16.827  0.00  0.00    +0.000 C 
BRANCH  28  29
ATOM     29  C   UNL     1       6.242   7.046  17.213  0.00  0.00    +0.000 C 
BRANCH  29  31
ATOM     30  C   UNL     1       8.032   8.683  17.806  0.00  0.00    +0.000 C 
ATOM     31  C   UNL     1       7.623   7.226  17.829  0.00  0.00    +0.000 C 
ENDBRANCH  29  31
ENDBRANCH  28  29
ENDBRANCH  27  28
ENDBRANCH  26  27
ENDBRANCH  25  26
ENDBRANCH  24  25
ENDBRANCH  23  24
ENDBRANCH  22  23
ENDBRANCH  21  22
ENDBRANCH  20  21
ENDBRANCH  19  20
ENDBRANCH  18  19
ENDBRANCH  17  18
ENDBRANCH   1  17
TORSDOF 24
ENDMDL
MODEL 2
REMARK VINA RESULT:      -5.2      1.376      2.568
REMARK  Name = 
REMARK  28 active torsions:
REMARK  status: ('A' for Active; 'I' for Inactive)
REMARK    1  A    between atoms: C_1  and  C_2
REMARK    2  A    between atoms: C_2  and  C_3
REMARK    3  A    between atoms: C_3  and  C_4
REMARK    4  A    between atoms: C_4  and  C_5
REMARK    5  A    between atoms: C_5  and  C_6
REMARK    6  A    between atoms: C_6  and  C_7
REMARK    7  A    between atoms: C_7  and  C_8
REMARK    8  A    between atoms: C_8  and  C_9
REMARK    9  A    between atoms: C_9  and  C_10
REMARK   10  A    between atoms: C_10  and  C_11
REMARK   11  A    between atoms: C_11  and  C_12
REMARK   12  A    between atoms: C_12  and  C_13
REMARK   13  A    between atoms: C_13  and  C_14
REMARK   14  A    between atoms: C_14  and  C_15
REMARK   15  A    between atoms: C_15  and  C_16
REMARK   16  A    between atoms: C_16  and  O_17
REMARK   17  A    between atoms: O_17  and  C_18
REMARK   18  A    between atoms: C_18  and  C_19
REMARK   19  A    between atoms: C_19  and  C_20
REMARK   20  A    between atoms: C_20  and  O_21
REMARK   21  A    between atoms: O_21  and  P_22
REMARK   22  A    between atoms: P_22  and  O_25
REMARK   23  A    between atoms: O_25  and  C_26
REMARK   24  A    between atoms: C_26  and  C_27
REMARK   25  A    between atoms: C_27  and  N_28
REMARK   26  A    between atoms: N_28  and  C_29
REMARK   27  A    between atoms: N_28  and  C_30
REMARK   28  A    between atoms: N_28  and  C_31
REMARK                            x       y       z     vdW  Elec       q    Type
REMARK                         _______ _______ _______ _____ _____    ______ ____
ROOT
ATOM      1  C   UNL     1       2.685   8.434  17.871  0.00  0.00    +0.000 C 
ENDROOT
BRANCH   1   2
ATOM      2  O   UNL     1       1.697   9.290  17.304  0.00  0.00    +0.000 OA
BRANCH   2   3
ATOM      3  C   UNL     1       0.805   9.734  18.317  0.00  0.00    +0.000 C 
BRANCH   3   4
ATOM      4  C   UNL     1       1.574  10.476  19.381  0.00  0.00    +0.000 C 
BRANCH   4   5
ATOM      5  C   UNL     1       0.653  11.400  20.125  0.00  0.00    +0.000 C 
BRANCH   5   6
ATOM      6  O   UNL     1       0.813  11.258  21.535  0.00  0.00    +0.000 OA
BRANCH   6   7
ATOM      7  P   UNL     1      -0.711  11.412  22.339  0.00  0.00    +0.000 P 
ATOM      8  O   UNL     1      -0.290  10.391  23.403  0.00  0.00    +0.000 OA
ATOM      9  O   UNL     1      -0.469  12.924  22.481  0.00  0.00    +0.000 OA
BRANCH   7  10
ATOM     10  O   UNL     1      -2.235  11.565  23.144  0.00  0.00    +0.000 OA
BRANCH  10  11
ATOM     11  C   UNL     1      -2.837  12.800  22.883  0.00  0.00    +0.000 C 
BRANCH  11  12
ATOM     12  C   UNL     1      -4.266  12.854  23.381  0.00  0.00    +0.000 C 
BRANCH  12  13
ATOM     13  N   UNL     1      -5.143  13.329  22.246  0.00  0.00    +0.000 N 
ATOM     14  C   UNL     1      -4.546  13.047  20.864  0.00  0.00    +0.000 C 
ATOM     15  C   UNL     1      -6.554  12.718  22.332  0.00  0.00    +0.000 C 
ATOM     16  C   UNL     1      -5.298  14.855  22.380  0.00  0.00    +0.000 C 
ENDBRANCH  12  13
ENDBRANCH  11  12
ENDBRANCH  10  11
ENDBRANCH   7  10
ENDBRANCH   6   7
ENDBRANCH   5   6
ENDBRANCH   4   5
ENDBRANCH   3   4
ENDBRANCH   2   3
ENDBRANCH   1   2
BRANCH   1  17
ATOM     17  C   UNL     1       2.067   7.083  18.140  0.00  0.00    +0.000 C 
BRANCH  17  18
ATOM     18  C   UNL     1       2.446   6.631  19.540  0.00  0.00    +0.000 C 
BRANCH  18  19
ATOM     19  C   UNL     1       2.290   5.130  19.665  0.00  0.00    +0.000 C 
BRANCH  19  20
ATOM     20  C   UNL     1       2.243   4.497  18.287  0.00  0.00    +0.000 C 
BRANCH  20  21
ATOM     21  C   UNL     1       3.248   3.363  18.208  0.00  0.00    +0.000 C 
BRANCH  21  22
ATOM     22  C   UNL     1       4.170   3.572  17.023  0.00  0.00    +0.000 C 
BRANCH  22  23
ATOM     23  C   UNL     1       5.181   4.659  17.341  0.00  0.00    +0.000 C 
BRANCH  23  24
ATOM     24  C   UNL     1       5.026   5.808  16.367  0.00  0.00    +0.000 C 
BRANCH  24  25
ATOM     25  C   UNL     1       6.028   6.901  16.695  0.00  0.00    +0.000 C 
BRANCH  25  26
ATOM     26  C   UNL     1       7.315   6.283  17.207  0.00  0.00    +0.000 C 
BRANCH  26  27
ATOM     27  C   UNL     1       7.921   7.169  18.281  0.00  0.00    +0.000 C 
BRANCH  27  28
ATOM     28  C   UNL     1       8.060   8.584  17.768  0.00  0.00    +0.000 C 
BRANCH  28  29
ATOM     29  C   UNL     1       8.870   9.425  18.742  0.00  0.00    +0.000 C 
BRANCH  29  31
ATOM     30  C   UNL     1      10.365  11.414  18.543  0.00  0.00    +0.000 C 
ATOM     31  C   UNL     1       8.986  10.863  18.255  0.00  0.00    +0.000 C 
ENDBRANCH  29  31
ENDBRANCH  28  29
ENDBRANCH  27  28
ENDBRANCH  26  27
ENDBRANCH  25  26
ENDBRANCH  24  25
ENDBRANCH  23  24
ENDBRANCH  22  23
ENDBRANCH  21  22
ENDBRANCH  20  21
ENDBRANCH  19  20
ENDBRANCH  18  19
ENDBRANCH  17  18
ENDBRANCH   1  17
TORSDOF 24
ENDMDL
MODEL 3
REMARK VINA RESULT:      -4.9      3.325      4.932
REMARK  Name = 
REMARK  28 active torsions:
REMARK  status: ('A' for Active; 'I' for Inactive)
REMARK    1  A    between atoms: C_1  and  C_2
REMARK    2  A    between atoms: C_2  and  C_3
REMARK    3  A    between atoms: C_3  and  C_4
REMARK    4  A    between atoms: C_4  and  C_5
REMARK    5  A    between atoms: C_5  and  C_6
REMARK    6  A    between atoms: C_6  and  C_7
REMARK    7  A    between atoms: C_7  and  C_8
REMARK    8  A    between atoms: C_8  and  C_9
REMARK    9  A    between atoms: C_9  and  C_10
REMARK   10  A    between atoms: C_10  and  C_11
REMARK   11  A    between atoms: C_11  and  C_12
REMARK   12  A    between atoms: C_12  and  C_13
REMARK   13  A    between atoms: C_13  and  C_14
REMARK   14  A    between atoms: C_14  and  C_15
REMARK   15  A    between atoms: C_15  and  C_16
REMARK   16  A    between atoms: C_16  and  O_17
REMARK   17  A    between atoms: O_17  and  C_18
REMARK   18  A    between atoms: C_18  and  C_19
REMARK   19  A    between atoms: C_19  and  C_20
REMARK   20  A    between atoms: C_20  and  O_21
REMARK   21  A    between atoms: O_21  and  P_22
REMARK   22  A    between atoms: P_22  and  O_25
REMARK   23  A    between atoms: O_25  and  C_26
REMARK   24  A    between atoms: C_26  and  C_27
REMARK   25  A    between atoms: C_27  and  N_28
REMARK   26  A    between atoms: N_28  and  C_29
REMARK   27  A    between atoms: N_28  and  C_30
REMARK   28  A    between atoms: N_28  and  C_31
REMARK                            x       y       z     vdW  Elec       q    Type
REMARK                         _______ _______ _______ _____ _____    ______ ____
ROOT
ATOM      1  C   UNL     1       1.797   3.822  21.182  0.00  0.00    +0.000 C 
ENDROOT
BRANCH   1   2
ATOM      2  O   UNL     1       2.397   5.059  20.811  0.00  0.00    +0.000 OA
BRANCH   2   3
ATOM      3  C   UNL     1       1.432   6.100  20.873  0.00  0.00    +0.000 C 
BRANCH   3   4
ATOM      4  C   UNL     1       1.985   7.344  20.225  0.00  0.00    +0.000 C 
BRANCH   4   5
ATOM      5  C   UNL     1       1.641   8.548  21.054  0.00  0.00    +0.000 C 
BRANCH   5   6
ATOM      6  O   UNL     1       0.251   8.856  20.958  0.00  0.00    +0.000 OA
BRANCH   6   7
ATOM      7  P   UNL     1      -0.145  10.204  21.968  0.00  0.00    +0.000 P 
ATOM      8  O   UNL     1      -0.780   9.278  23.011  0.00  0.00    +0.000 OA
ATOM      9  O   UNL     1       1.340  10.606  21.992  0.00  0.00    +0.000 OA
BRANCH   7  10
ATOM     10  O   UNL     1      -0.540  11.552  22.977  0.00  0.00    +0.000 OA
BRANCH  10  11
ATOM     11  C   UNL     1      -1.103  12.601  22.244  0.00  0.00    +0.000 C 
BRANCH  11  12
ATOM     12  C   UNL     1      -1.193  12.280  20.766  0.00  0.00    +0.000 C 
BRANCH  12  13
ATOM     13  N   UNL     1      -0.666  13.466  19.994  0.00  0.00    +0.000 N 
ATOM     14  C   UNL     1      -1.525  14.724  20.159  0.00  0.00    +0.000 C 
ATOM     15  C   UNL     1       0.791  13.784  20.376  0.00  0.00    +0.000 C 
ATOM     16  C   UNL     1      -0.675  13.093  18.500  0.00  0.00    +0.000 C 
ENDBRANCH  12  13
ENDBRANCH  11  12
ENDBRANCH  10  11
ENDBRANCH   7  10
ENDBRANCH   6   7
ENDBRANCH   5   6
ENDBRANCH   4   5
ENDBRANCH   3   4
ENDBRANCH   2   3
ENDBRANCH   1   2
BRANCH   1  17
ATOM     17  C   UNL     1       1.826   2.888  19.996  0.00  0.00    +0.000 C 
BRANCH  17  18
ATOM     18  C   UNL     1       0.966   3.466  18.885  0.00  0.00    +0.000 C 
BRANCH  18  19
ATOM     19  C   UNL     1       1.841   4.083  17.814  0.00  0.00    +0.000 C 
BRANCH  19  20
ATOM     20  C   UNL     1       2.805   3.045  17.270  0.00  0.00    +0.000 C 
BRANCH  20  21
ATOM     21  C   UNL     1       4.223   3.580  17.330  0.00  0.00    +0.000 C 
BRANCH  21  22
ATOM     22  C   UNL     1       4.211   5.089  17.201  0.00  0.00    +0.000 C 
BRANCH  22  23
ATOM     23  C   UNL     1       5.092   5.516  16.040  0.00  0.00    +0.000 C 
BRANCH  23  24
ATOM     24  C   UNL     1       6.021   4.383  15.655  0.00  0.00    +0.000 C 
BRANCH  24  25
ATOM     25  C   UNL     1       7.114   4.902  14.738  0.00  0.00    +0.000 C 
BRANCH  25  26
ATOM     26  C   UNL     1       6.727   4.669  13.290  0.00  0.00    +0.000 C 
BRANCH  26  27
ATOM     27  C   UNL     1       5.607   3.648  13.213  0.00  0.00    +0.000 C 
BRANCH  27  28
ATOM     28  C   UNL     1       5.914   2.621  12.148  0.00  0.00    +0.000 C 
BRANCH  28  29
ATOM     29  C   UNL     1       5.178   2.953  10.860  0.00  0.00    +0.000 C 
BRANCH  29  31
ATOM     30  C   UNL     1       3.114   3.999   9.922  0.00  0.00    +0.000 C 
ATOM     31  C   UNL     1       3.740   3.368  11.146  0.00  0.00    +0.000 C 
ENDBRANCH  29  31
ENDBRANCH  28  29
ENDBRANCH  27  28
ENDBRANCH  26  27
ENDBRANCH  25  26
ENDBRANCH  24  25
ENDBRANCH  23  24
ENDBRANCH  22  23
ENDBRANCH  21  22
ENDBRANCH  20  21
ENDBRANCH  19  20
ENDBRANCH  18  19
ENDBRANCH  17  18
ENDBRANCH   1  17
TORSDOF 24
ENDMDL
MODEL 4
REMARK VINA RESULT:      -4.9      1.454      1.915
REMARK  Name = 
REMARK  28 active torsions:
REMARK  status: ('A' for Active; 'I' for Inactive)
REMARK    1  A    between atoms: C_1  and  C_2
REMARK    2  A    between atoms: C_2  and  C_3
REMARK    3  A    between atoms: C_3  and  C_4
REMARK    4  A    between atoms: C_4  and  C_5
REMARK    5  A    between atoms: C_5  and  C_6
REMARK    6  A    between atoms: C_6  and  C_7
REMARK    7  A    between atoms: C_7  and  C_8
REMARK    8  A    between atoms: C_8  and  C_9
REMARK    9  A    between atoms: C_9  and  C_10
REMARK   10  A    between atoms: C_10  and  C_11
REMARK   11  A    between atoms: C_11  and  C_12
REMARK   12  A    between atoms: C_12  and  C_13
REMARK   13  A    between atoms: C_13  and  C_14
REMARK   14  A    between atoms: C_14  and  C_15
REMARK   15  A    between atoms: C_15  and  C_16
REMARK   16  A    between atoms: C_16  and  O_17
REMARK   17  A    between atoms: O_17  and  C_18
REMARK   18  A    between atoms: C_18  and  C_19
REMARK   19  A    between atoms: C_19  and  C_20
REMARK   20  A    between atoms: C_20  and  O_21
REMARK   21  A    between atoms: O_21  and  P_22
REMARK   22  A    between atoms: P_22  and  O_25
REMARK   23  A    between atoms: O_25  and  C_26
REMARK   24  A    between atoms: C_26  and  C_27
REMARK   25  A    between atoms: C_27  and  N_28
REMARK   26  A    between atoms: N_28  and  C_29
REMARK   27  A    between atoms: N_28  and  C_30
REMARK   28  A    between atoms: N_28  and  C_31
REMARK                            x       y       z     vdW  Elec       q    Type
REMARK                         _______ _______ _______ _____ _____    ______ ____
ROOT
ATOM      1  C   UNL     1       1.835   7.447  17.879  0.00  0.00    +0.000 C 
ENDROOT
BRANCH   1   2
ATOM      2  O   UNL     1       1.574   8.750  17.365  0.00  0.00    +0.000 OA
BRANCH   2   3
ATOM      3  C   UNL     1       2.120   9.730  18.236  0.00  0.00    +0.000 C 
BRANCH   3   4
ATOM      4  C   UNL     1       1.117  10.071  19.308  0.00  0.00    +0.000 C 
BRANCH   4   5
ATOM      5  C   UNL     1      -0.106  10.685  18.688  0.00  0.00    +0.000 C 
BRANCH   5   6
ATOM      6  O   UNL     1      -1.181  10.742  19.622  0.00  0.00    +0.000 OA
BRANCH   6   7
ATOM      7  P   UNL     1      -1.595  12.385  19.975  0.00  0.00    +0.000 P 
ATOM      8  O   UNL     1      -0.638  12.403  21.172  0.00  0.00    +0.000 OA
ATOM      9  O   UNL     1      -1.170  12.784  18.551  0.00  0.00    +0.000 OA
BRANCH   7  10
ATOM     10  O   UNL     1      -2.008  14.027  20.328  0.00  0.00    +0.000 OA
BRANCH  10  11
ATOM     11  C   UNL     1      -3.190  14.117  21.068  0.00  0.00    +0.000 C 
BRANCH  11  12
ATOM     12  C   UNL     1      -4.059  12.886  20.906  0.00  0.00    +0.000 C 
BRANCH  12  13
ATOM     13  N   UNL     1      -5.439  13.211  21.428  0.00  0.00    +0.000 N 
ATOM     14  C   UNL     1      -5.923  14.607  21.023  0.00  0.00    +0.000 C 
ATOM     15  C   UNL     1      -6.471  12.159  20.981  0.00  0.00    +0.000 C 
ATOM     16  C   UNL     1      -5.380  13.169  22.965  0.00  0.00    +0.000 C 
ENDBRANCH  12  13
ENDBRANCH  11  12
ENDBRANCH  10  11
ENDBRANCH   7  10
ENDBRANCH   6   7
ENDBRANCH   5   6
ENDBRANCH   4   5
ENDBRANCH   3   4
ENDBRANCH   2   3
ENDBRANCH   1   2
BRANCH   1  17
ATOM     17  C   UNL     1       3.299   7.345  18.237  0.00  0.00    +0.000 C 
BRANCH  17  18
ATOM     18  C   UNL     1       3.457   6.420  19.431  0.00  0.00    +0.000 C 
BRANCH  18  19
ATOM     19  C   UNL     1       2.114   6.182  20.090  0.00  0.00    +0.000 C 
BRANCH  19  20
ATOM     20  C   UNL     1       2.137   4.869  20.852  0.00  0.00    +0.000 C 
BRANCH  20  21
ATOM     21  C   UNL     1       1.018   3.970  20.359  0.00  0.00    +0.000 C 
BRANCH  21  22
ATOM     22  C   UNL     1       1.562   2.971  19.359  0.00  0.00    +0.000 C 
BRANCH  22  23
ATOM     23  C   UNL     1       1.284   3.451  17.946  0.00  0.00    +0.000 C 
BRANCH  23  24
ATOM     24  C   UNL     1       2.585   3.790  17.250  0.00  0.00    +0.000 C 
BRANCH  24  25
ATOM     25  C   UNL     1       3.738   3.082  17.938  0.00  0.00    +0.000 C 
BRANCH  25  26
ATOM     26  C   UNL     1       5.056   3.550  17.351  0.00  0.00    +0.000 C 
BRANCH  26  27
ATOM     27  C   UNL     1       4.817   4.722  16.416  0.00  0.00    +0.000 C 
BRANCH  27  28
ATOM     28  C   UNL     1       6.100   5.496  16.217  0.00  0.00    +0.000 C 
BRANCH  28  29
ATOM     29  C   UNL     1       7.114   5.127  17.288  0.00  0.00    +0.000 C 
BRANCH  29  31
ATOM     30  C   UNL     1       7.588   7.569  17.499  0.00  0.00    +0.000 C 
ATOM     31  C   UNL     1       7.332   6.284  18.254  0.00  0.00    +0.000 C 
ENDBRANCH  29  31
ENDBRANCH  28  29
ENDBRANCH  27  28
ENDBRANCH  26  27
ENDBRANCH  25  26
ENDBRANCH  24  25
ENDBRANCH  23  24
ENDBRANCH  22  23
ENDBRANCH  21  22
ENDBRANCH  20  21
ENDBRANCH  19  20
ENDBRANCH  18  19
ENDBRANCH  17  18
ENDBRANCH   1  17
TORSDOF 24
ENDMDL
MODEL 5
REMARK VINA RESULT:      -4.9      1.520      2.270
REMARK  Name = 
REMARK  28 active torsions:
REMARK  status: ('A' for Active; 'I' for Inactive)
REMARK    1  A    between atoms: C_1  and  C_2
REMARK    2  A    between atoms: C_2  and  C_3
REMARK    3  A    between atoms: C_3  and  C_4
REMARK    4  A    between atoms: C_4  and  C_5
REMARK    5  A    between atoms: C_5  and  C_6
REMARK    6  A    between atoms: C_6  and  C_7
REMARK    7  A    between atoms: C_7  and  C_8
REMARK    8  A    between atoms: C_8  and  C_9
REMARK    9  A    between atoms: C_9  and  C_10
REMARK   10  A    between atoms: C_10  and  C_11
REMARK   11  A    between atoms: C_11  and  C_12
REMARK   12  A    between atoms: C_12  and  C_13
REMARK   13  A    between atoms: C_13  and  C_14
REMARK   14  A    between atoms: C_14  and  C_15
REMARK   15  A    between atoms: C_15  and  C_16
REMARK   16  A    between atoms: C_16  and  O_17
REMARK   17  A    between atoms: O_17  and  C_18
REMARK   18  A    between atoms: C_18  and  C_19
REMARK   19  A    between atoms: C_19  and  C_20
REMARK   20  A    between atoms: C_20  and  O_21
REMARK   21  A    between atoms: O_21  and  P_22
REMARK   22  A    between atoms: P_22  and  O_25
REMARK   23  A    between atoms: O_25  and  C_26
REMARK   24  A    between atoms: C_26  and  C_27
REMARK   25  A    between atoms: C_27  and  N_28
REMARK   26  A    between atoms: N_28  and  C_29
REMARK   27  A    between atoms: N_28  and  C_30
REMARK   28  A    between atoms: N_28  and  C_31
REMARK                            x       y       z     vdW  Elec       q    Type
REMARK                         _______ _______ _______ _____ _____    ______ ____
ROOT
ATOM      1  C   UNL     1       1.796   9.338  18.148  0.00  0.00    +0.000 C 
ENDROOT
BRANCH   1   2
ATOM      2  O   UNL     1       0.528   9.981  18.238  0.00  0.00    +0.000 OA
BRANCH   2   3
ATOM      3  C   UNL     1       0.572  10.995  19.232  0.00  0.00    +0.000 C 
BRANCH   3   4
ATOM      4  C   UNL     1      -0.824  11.280  19.728  0.00  0.00    +0.000 C 
BRANCH   4   5
ATOM      5  C   UNL     1      -1.107  12.752  19.636  0.00  0.00    +0.000 C 
BRANCH   5   6
ATOM      6  O   UNL     1      -0.458  13.465  20.687  0.00  0.00    +0.000 OA
BRANCH   6   7
ATOM      7  P   UNL     1      -1.392  13.391  22.141  0.00  0.00    +0.000 P 
ATOM      8  O   UNL     1      -0.133  13.133  22.976  0.00  0.00    +0.000 OA
ATOM      9  O   UNL     1      -1.935  14.801  21.849  0.00  0.00    +0.000 OA
BRANCH   7  10
ATOM     10  O   UNL     1      -2.326  13.317  23.595  0.00  0.00    +0.000 OA
BRANCH  10  11
ATOM     11  C   UNL     1      -3.323  12.340  23.522  0.00  0.00    +0.000 C 
BRANCH  11  12
ATOM     12  C   UNL     1      -4.509  12.668  24.406  0.00  0.00    +0.000 C 
BRANCH  12  13
ATOM     13  N   UNL     1      -5.603  13.238  23.534  0.00  0.00    +0.000 N 
ATOM     14  C   UNL     1      -5.472  12.836  22.061  0.00  0.00    +0.000 C 
ATOM     15  C   UNL     1      -6.998  12.846  24.053  0.00  0.00    +0.000 C 
ATOM     16  C   UNL     1      -5.505  14.773  23.605  0.00  0.00    +0.000 C 
ENDBRANCH  12  13
ENDBRANCH  11  12
ENDBRANCH  10  11
ENDBRANCH   7  10
ENDBRANCH   6   7
ENDBRANCH   5   6
ENDBRANCH   4   5
ENDBRANCH   3   4
ENDBRANCH   2   3
ENDBRANCH   1   2
BRANCH   1  17
ATOM     17  C   UNL     1       1.850   8.216  19.157  0.00  0.00    +0.000 C 
BRANCH  17  18
ATOM     18  C   UNL     1       2.569   7.028  18.543  0.00  0.00    +0.000 C 
BRANCH  18  19
ATOM     19  C   UNL     1       3.104   6.120  19.632  0.00  0.00    +0.000 C 
BRANCH  19  20
ATOM     20  C   UNL     1       1.953   5.465  20.372  0.00  0.00    +0.000 C 
BRANCH  20  21
ATOM     21  C   UNL     1       1.133   4.628  19.408  0.00  0.00    +0.000 C 
BRANCH  21  22
ATOM     22  C   UNL     1       0.929   3.239  19.976  0.00  0.00    +0.000 C 
BRANCH  22  23
ATOM     23  C   UNL     1       0.863   2.224  18.849  0.00  0.00    +0.000 C 
BRANCH  23  24
ATOM     24  C   UNL     1       2.148   2.258  18.049  0.00  0.00    +0.000 C 
BRANCH  24  25
ATOM     25  C   UNL     1       3.310   1.817  18.921  0.00  0.00    +0.000 C 
BRANCH  25  26
ATOM     26  C   UNL     1       4.455   2.804  18.792  0.00  0.00    +0.000 C 
BRANCH  26  27
ATOM     27  C   UNL     1       4.306   3.604  17.510  0.00  0.00    +0.000 C 
BRANCH  27  28
ATOM     28  C   UNL     1       5.603   4.307  17.184  0.00  0.00    +0.000 C 
BRANCH  28  29
ATOM     29  C   UNL     1       5.953   4.123  15.716  0.00  0.00    +0.000 C 
BRANCH  29  31
ATOM     30  C   UNL     1       5.218   6.507  15.828  0.00  0.00    +0.000 C 
ATOM     31  C   UNL     1       5.592   5.364  14.910  0.00  0.00    +0.000 C 
ENDBRANCH  29  31
ENDBRANCH  28  29
ENDBRANCH  27  28
ENDBRANCH  26  27
ENDBRANCH  25  26
ENDBRANCH  24  25
ENDBRANCH  23  24
ENDBRANCH  22  23
ENDBRANCH  21  22
ENDBRANCH  20  21
ENDBRANCH  19  20
ENDBRANCH  18  19
ENDBRANCH  17  18
ENDBRANCH   1  17
TORSDOF 24
ENDMDL
MODEL 6
REMARK VINA RESULT:      -4.9      3.224      4.791
REMARK  Name = 
REMARK  28 active torsions:
REMARK  status: ('A' for Active; 'I' for Inactive)
REMARK    1  A    between atoms: C_1  and  C_2
REMARK    2  A    between atoms: C_2  and  C_3
REMARK    3  A    between atoms: C_3  and  C_4
REMARK    4  A    between atoms: C_4  and  C_5
REMARK    5  A    between atoms: C_5  and  C_6
REMARK    6  A    between atoms: C_6  and  C_7
REMARK    7  A    between atoms: C_7  and  C_8
REMARK    8  A    between atoms: C_8  and  C_9
REMARK    9  A    between atoms: C_9  and  C_10
REMARK   10  A    between atoms: C_10  and  C_11
REMARK   11  A    between atoms: C_11  and  C_12
REMARK   12  A    between atoms: C_12  and  C_13
REMARK   13  A    between atoms: C_13  and  C_14
REMARK   14  A    between atoms: C_14  and  C_15
REMARK   15  A    between atoms: C_15  and  C_16
REMARK   16  A    between atoms: C_16  and  O_17
REMARK   17  A    between atoms: O_17  and  C_18
REMARK   18  A    between atoms: C_18  and  C_19
REMARK   19  A    between atoms: C_19  and  C_20
REMARK   20  A    between atoms: C_20  and  O_21
REMARK   21  A    between atoms: O_21  and  P_22
REMARK   22  A    between atoms: P_22  and  O_25
REMARK   23  A    between atoms: O_25  and  C_26
REMARK   24  A    between atoms: C_26  and  C_27
REMARK   25  A    between atoms: C_27  and  N_28
REMARK   26  A    between atoms: N_28  and  C_29
REMARK   27  A    between atoms: N_28  and  C_30
REMARK   28  A    between atoms: N_28  and  C_31
REMARK                            x       y       z     vdW  Elec       q    Type
REMARK                         _______ _______ _______ _____ _____    ______ ____
ROOT
ATOM      1  C   UNL     1       1.179   6.478  20.872  0.00  0.00    +0.000 C 
ENDROOT
BRANCH   1   2
ATOM      2  O   UNL     1       1.854   7.724  20.736  0.00  0.00    +0.000 OA
BRANCH   2   3
ATOM      3  C   UNL     1       1.290   8.678  21.624  0.00  0.00    +0.000 C 
BRANCH   3   4
ATOM      4  C   UNL     1       0.108   9.346  20.967  0.00  0.00    +0.000 C 
BRANCH   4   5
ATOM      5  C   UNL     1      -0.073  10.728  21.527  0.00  0.00    +0.000 C 
BRANCH   5   6
ATOM      6  O   UNL     1      -0.423  11.655  20.501  0.00  0.00    +0.000 OA
BRANCH   6   7
ATOM      7  P   UNL     1       0.997  12.276  19.732  0.00  0.00    +0.000 P 
ATOM      8  O   UNL     1       0.183  13.380  19.048  0.00  0.00    +0.000 OA
ATOM      9  O   UNL     1       1.655  12.447  21.112  0.00  0.00    +0.000 OA
BRANCH   7  10
ATOM     10  O   UNL     1       2.417  12.898  18.962  0.00  0.00    +0.000 OA
BRANCH  10  11
ATOM     11  C   UNL     1       2.785  14.142  19.482  0.00  0.00    +0.000 C 
BRANCH  11  12
ATOM     12  C   UNL     1       4.080  14.650  18.883  0.00  0.00    +0.000 C 
BRANCH  12  13
ATOM     13  N   UNL     1       3.990  16.153  18.768  0.00  0.00    +0.000 N 
ATOM     14  C   UNL     1       5.357  16.844  18.791  0.00  0.00    +0.000 C 
ATOM     15  C   UNL     1       3.220  16.576  17.503  0.00  0.00    +0.000 C 
ATOM     16  C   UNL     1       3.192  16.667  19.981  0.00  0.00    +0.000 C 
ENDBRANCH  12  13
ENDBRANCH  11  12
ENDBRANCH  10  11
ENDBRANCH   7  10
ENDBRANCH   6   7
ENDBRANCH   5   6
ENDBRANCH   4   5
ENDBRANCH   3   4
ENDBRANCH   2   3
ENDBRANCH   1   2
BRANCH   1  17
ATOM     17  C   UNL     1       2.071   5.377  20.350  0.00  0.00    +0.000 C 
BRANCH  17  18
ATOM     18  C   UNL     1       2.232   4.314  21.423  0.00  0.00    +0.000 C 
BRANCH  18  19
ATOM     19  C   UNL     1       1.481   3.058  21.032  0.00  0.00    +0.000 C 
BRANCH  19  20
ATOM     20  C   UNL     1       0.732   3.286  19.732  0.00  0.00    +0.000 C 
BRANCH  20  21
ATOM     21  C   UNL     1       1.005   2.141  18.775  0.00  0.00    +0.000 C 
BRANCH  21  22
ATOM     22  C   UNL     1       2.031   2.565  17.744  0.00  0.00    +0.000 C 
BRANCH  22  23
ATOM     23  C   UNL     1       3.393   2.004  18.111  0.00  0.00    +0.000 C 
BRANCH  23  24
ATOM     24  C   UNL     1       4.329   3.132  18.493  0.00  0.00    +0.000 C 
BRANCH  24  25
ATOM     25  C   UNL     1       4.112   4.318  17.572  0.00  0.00    +0.000 C 
BRANCH  25  26
ATOM     26  C   UNL     1       4.950   4.158  16.318  0.00  0.00    +0.000 C 
BRANCH  26  27
ATOM     27  C   UNL     1       5.567   5.492  15.936  0.00  0.00    +0.000 C 
BRANCH  27  28
ATOM     28  C   UNL     1       6.759   5.783  16.818  0.00  0.00    +0.000 C 
BRANCH  28  29
ATOM     29  C   UNL     1       6.688   7.202  17.357  0.00  0.00    +0.000 C 
BRANCH  29  31
ATOM     30  C   UNL     1       8.028   9.179  18.087  0.00  0.00    +0.000 C 
ATOM     31  C   UNL     1       8.063   7.859  17.348  0.00  0.00    +0.000 C 
ENDBRANCH  29  31
ENDBRANCH  28  29
ENDBRANCH  27  28
ENDBRANCH  26  27
ENDBRANCH  25  26
ENDBRANCH  24  25
ENDBRANCH  23  24
ENDBRANCH  22  23
ENDBRANCH  21  22
ENDBRANCH  20  21
ENDBRANCH  19  20
ENDBRANCH  18  19
ENDBRANCH  17  18
ENDBRANCH   1  17
TORSDOF 24
ENDMDL
MODEL 7
REMARK VINA RESULT:      -4.8      4.663     10.921
REMARK  Name = 
REMARK  28 active torsions:
REMARK  status: ('A' for Active; 'I' for Inactive)
REMARK    1  A    between atoms: C_1  and  C_2
REMARK    2  A    between atoms: C_2  and  C_3
REMARK    3  A    between atoms: C_3  and  C_4
REMARK    4  A    between atoms: C_4  and  C_5
REMARK    5  A    between atoms: C_5  and  C_6
REMARK    6  A    between atoms: C_6  and  C_7
REMARK    7  A    between atoms: C_7  and  C_8
REMARK    8  A    between atoms: C_8  and  C_9
REMARK    9  A    between atoms: C_9  and  C_10
REMARK   10  A    between atoms: C_10  and  C_11
REMARK   11  A    between atoms: C_11  and  C_12
REMARK   12  A    between atoms: C_12  and  C_13
REMARK   13  A    between atoms: C_13  and  C_14
REMARK   14  A    between atoms: C_14  and  C_15
REMARK   15  A    between atoms: C_15  and  C_16
REMARK   16  A    between atoms: C_16  and  O_17
REMARK   17  A    between atoms: O_17  and  C_18
REMARK   18  A    between atoms: C_18  and  C_19
REMARK   19  A    between atoms: C_19  and  C_20
REMARK   20  A    between atoms: C_20  and  O_21
REMARK   21  A    between atoms: O_21  and  P_22
REMARK   22  A    between atoms: P_22  and  O_25
REMARK   23  A    between atoms: O_25  and  C_26
REMARK   24  A    between atoms: C_26  and  C_27
REMARK   25  A    between atoms: C_27  and  N_28
REMARK   26  A    between atoms: N_28  and  C_29
REMARK   27  A    between atoms: N_28  and  C_30
REMARK   28  A    between atoms: N_28  and  C_31
REMARK                            x       y       z     vdW  Elec       q    Type
REMARK                         _______ _______ _______ _____ _____    ______ ____
ROOT
ATOM      1  C   UNL     1       2.147   6.950  18.639  0.00  0.00    +0.000 C 
ENDROOT
BRANCH   1   2
ATOM      2  O   UNL     1       2.033   6.986  20.058  0.00  0.00    +0.000 OA
BRANCH   2   3
ATOM      3  C   UNL     1       1.633   5.712  20.542  0.00  0.00    +0.000 C 
BRANCH   3   4
ATOM      4  C   UNL     1       1.614   4.721  19.406  0.00  0.00    +0.000 C 
BRANCH   4   5
ATOM      5  C   UNL     1       0.838   3.499  19.808  0.00  0.00    +0.000 C 
BRANCH   5   6
ATOM      6  O   UNL     1       1.672   2.561  20.485  0.00  0.00    +0.000 OA
BRANCH   6   7
ATOM      7  P   UNL     1       3.327   2.781  20.031  0.00  0.00    +0.000 P 
ATOM      8  O   UNL     1       3.803   2.295  21.405  0.00  0.00    +0.000 OA
ATOM      9  O   UNL     1       3.111   1.840  18.833  0.00  0.00    +0.000 OA
BRANCH   7  10
ATOM     10  O   UNL     1       4.982   3.001  19.578  0.00  0.00    +0.000 OA
BRANCH  10  11
ATOM     11  C   UNL     1       5.131   4.027  18.641  0.00  0.00    +0.000 C 
BRANCH  11  12
ATOM     12  C   UNL     1       5.951   5.180  19.183  0.00  0.00    +0.000 C 
BRANCH  12  13
ATOM     13  N   UNL     1       6.778   5.743  18.051  0.00  0.00    +0.000 N 
ATOM     14  C   UNL     1       7.396   4.662  17.159  0.00  0.00    +0.000 C 
ATOM     15  C   UNL     1       5.957   6.717  17.185  0.00  0.00    +0.000 C 
ATOM     16  C   UNL     1       7.934   6.548  18.671  0.00  0.00    +0.000 C 
ENDBRANCH  12  13
ENDBRANCH  11  12
ENDBRANCH  10  11
ENDBRANCH   7  10
ENDBRANCH   6   7
ENDBRANCH   5   6
ENDBRANCH   4   5
ENDBRANCH   3   4
ENDBRANCH   2   3
ENDBRANCH   1   2
BRANCH   1  17
ATOM     17  C   UNL     1       2.389   8.352  18.131  0.00  0.00    +0.000 C 
BRANCH  17  18
ATOM     18  C   UNL     1       1.374   9.291  18.757  0.00  0.00    +0.000 C 
BRANCH  18  19
ATOM     19  C   UNL     1       1.579  10.702  18.244  0.00  0.00    +0.000 C 
BRANCH  19  20
ATOM     20  C   UNL     1       1.272  11.703  19.342  0.00  0.00    +0.000 C 
BRANCH  20  21
ATOM     21  C   UNL     1      -0.100  12.309  19.116  0.00  0.00    +0.000 C 
BRANCH  21  22
ATOM     22  C   UNL     1      -0.880  12.320  20.415  0.00  0.00    +0.000 C 
BRANCH  22  23
ATOM     23  C   UNL     1      -2.341  12.623  20.137  0.00  0.00    +0.000 C 
BRANCH  23  24
ATOM     24  C   UNL     1      -3.077  12.851  21.441  0.00  0.00    +0.000 C 
BRANCH  24  25
ATOM     25  C   UNL     1      -4.572  12.703  21.222  0.00  0.00    +0.000 C 
BRANCH  25  26
ATOM     26  C   UNL     1      -4.880  12.712  19.737  0.00  0.00    +0.000 C 
BRANCH  26  27
ATOM     27  C   UNL     1      -5.983  11.715  19.432  0.00  0.00    +0.000 C 
BRANCH  27  28
ATOM     28  C   UNL     1      -5.662  10.960  18.163  0.00  0.00    +0.000 C 
BRANCH  28  29
ATOM     29  C   UNL     1      -4.423  11.540  17.498  0.00  0.00    +0.000 C 
BRANCH  29  31
ATOM     30  C   UNL     1      -2.590   9.861  17.731  0.00  0.00    +0.000 C 
ATOM     31  C   UNL     1      -3.621  10.452  16.796  0.00  0.00    +0.000 C 
ENDBRANCH  29  31
ENDBRANCH  28  29
ENDBRANCH  27  28
ENDBRANCH  26  27
ENDBRANCH  25  26
ENDBRANCH  24  25
ENDBRANCH  23  24
ENDBRANCH  22  23
ENDBRANCH  21  22
ENDBRANCH  20  21
ENDBRANCH  19  20
ENDBRANCH  18  19
ENDBRANCH  17  18
ENDBRANCH   1  17
TORSDOF 24
ENDMDL
MODEL 8
REMARK VINA RESULT:      -4.8      1.893      3.092
REMARK  Name = 
REMARK  28 active torsions:
REMARK  status: ('A' for Active; 'I' for Inactive)
REMARK    1  A    between atoms: C_1  and  C_2
REMARK    2  A    between atoms: C_2  and  C_3
REMARK    3  A    between atoms: C_3  and  C_4
REMARK    4  A    between atoms: C_4  and  C_5
REMARK    5  A    between atoms: C_5  and  C_6
REMARK    6  A    between atoms: C_6  and  C_7
REMARK    7  A    between atoms: C_7  and  C_8
REMARK    8  A    between atoms: C_8  and  C_9
REMARK    9  A    between atoms: C_9  and  C_10
REMARK   10  A    between atoms: C_10  and  C_11
REMARK   11  A    between atoms: C_11  and  C_12
REMARK   12  A    between atoms: C_12  and  C_13
REMARK   13  A    between atoms: C_13  and  C_14
REMARK   14  A    between atoms: C_14  and  C_15
REMARK   15  A    between atoms: C_15  and  C_16
REMARK   16  A    between atoms: C_16  and  O_17
REMARK   17  A    between atoms: O_17  and  C_18
REMARK   18  A    between atoms: C_18  and  C_19
REMARK   19  A    between atoms: C_19  and  C_20
REMARK   20  A    between atoms: C_20  and  O_21
REMARK   21  A    between atoms: O_21  and  P_22
REMARK   22  A    between atoms: P_22  and  O_25
REMARK   23  A    between atoms: O_25  and  C_26
REMARK   24  A    between atoms: C_26  and  C_27
REMARK   25  A    between atoms: C_27  and  N_28
REMARK   26  A    between atoms: N_28  and  C_29
REMARK   27  A    between atoms: N_28  and  C_30
REMARK   28  A    between atoms: N_28  and  C_31
REMARK                            x       y       z     vdW  Elec       q    Type
REMARK                         _______ _______ _______ _____ _____    ______ ____
ROOT
ATOM      1  C   UNL     1       1.887   5.942  20.758  0.00  0.00    +0.000 C 
ENDROOT
BRANCH   1   2
ATOM      2  O   UNL     1       2.292   7.099  20.033  0.00  0.00    +0.000 OA
BRANCH   2   3
ATOM      3  C   UNL     1       2.284   6.823  18.640  0.00  0.00    +0.000 C 
BRANCH   3   4
ATOM      4  C   UNL     1       2.850   7.999  17.885  0.00  0.00    +0.000 C 
BRANCH   4   5
ATOM      5  C   UNL     1       2.172   9.264  18.328  0.00  0.00    +0.000 C 
BRANCH   5   6
ATOM      6  O   UNL     1       0.856   9.357  17.786  0.00  0.00    +0.000 OA
BRANCH   6   7
ATOM      7  P   UNL     1      -0.117  10.430  18.732  0.00  0.00    +0.000 P 
ATOM      8  O   UNL     1      -1.355  10.103  17.889  0.00  0.00    +0.000 OA
ATOM      9  O   UNL     1       0.271   9.646  19.998  0.00  0.00    +0.000 OA
BRANCH   7  10
ATOM     10  O   UNL     1      -1.091  11.503  19.677  0.00  0.00    +0.000 OA
BRANCH  10  11
ATOM     11  C   UNL     1      -0.406  12.680  19.995  0.00  0.00    +0.000 C 
BRANCH  11  12
ATOM     12  C   UNL     1      -0.332  12.910  21.491  0.00  0.00    +0.000 C 
BRANCH  12  13
ATOM     13  N   UNL     1      -1.442  13.858  21.877  0.00  0.00    +0.000 N 
ATOM     14  C   UNL     1      -1.869  14.784  20.734  0.00  0.00    +0.000 C 
ATOM     15  C   UNL     1      -2.670  13.099  22.411  0.00  0.00    +0.000 C 
ATOM     16  C   UNL     1      -0.921  14.747  23.021  0.00  0.00    +0.000 C 
ENDBRANCH  12  13
ENDBRANCH  11  12
ENDBRANCH  10  11
ENDBRANCH   7  10
ENDBRANCH   6   7
ENDBRANCH   5   6
ENDBRANCH   4   5
ENDBRANCH   3   4
ENDBRANCH   2   3
ENDBRANCH   1   2
BRANCH   1  17
ATOM     17  C   UNL     1       1.370   4.910  19.784  0.00  0.00    +0.000 C 
BRANCH  17  18
ATOM     18  C   UNL     1       0.876   3.699  20.557  0.00  0.00    +0.000 C 
BRANCH  18  19
ATOM     19  C   UNL     1       1.193   2.428  19.797  0.00  0.00    +0.000 C 
BRANCH  19  20
ATOM     20  C   UNL     1       1.971   2.759  18.536  0.00  0.00    +0.000 C 
BRANCH  20  21
ATOM     21  C   UNL     1       3.370   2.181  18.629  0.00  0.00    +0.000 C 
BRANCH  21  22
ATOM     22  C   UNL     1       4.242   2.763  17.535  0.00  0.00    +0.000 C 
BRANCH  22  23
ATOM     23  C   UNL     1       3.668   4.088  17.067  0.00  0.00    +0.000 C 
BRANCH  23  24
ATOM     24  C   UNL     1       4.644   4.771  16.132  0.00  0.00    +0.000 C 
BRANCH  24  25
ATOM     25  C   UNL     1       5.383   3.732  15.308  0.00  0.00    +0.000 C 
BRANCH  25  26
ATOM     26  C   UNL     1       6.852   4.097  15.214  0.00  0.00    +0.000 C 
BRANCH  26  27
ATOM     27  C   UNL     1       7.139   5.311  16.080  0.00  0.00    +0.000 C 
BRANCH  27  28
ATOM     28  C   UNL     1       7.461   4.876  17.491  0.00  0.00    +0.000 C 
BRANCH  28  29
ATOM     29  C   UNL     1       7.591   6.084  18.404  0.00  0.00    +0.000 C 
BRANCH  29  31
ATOM     30  C   UNL     1       7.935   8.454  17.696  0.00  0.00    +0.000 C 
ATOM     31  C   UNL     1       6.945   7.313  17.777  0.00  0.00    +0.000 C 
ENDBRANCH  29  31
ENDBRANCH  28  29
ENDBRANCH  27  28
ENDBRANCH  26  27
ENDBRANCH  25  26
ENDBRANCH  24  25
ENDBRANCH  23  24
ENDBRANCH  22  23
ENDBRANCH  21  22
ENDBRANCH  20  21
ENDBRANCH  19  20
ENDBRANCH  18  19
ENDBRANCH  17  18
ENDBRANCH   1  17
TORSDOF 24
ENDMDL
MODEL 9
REMARK VINA RESULT:      -4.8      4.246      6.340
REMARK  Name = 
REMARK  28 active torsions:
REMARK  status: ('A' for Active; 'I' for Inactive)
REMARK    1  A    between atoms: C_1  and  C_2
REMARK    2  A    between atoms: C_2  and  C_3
REMARK    3  A    between atoms: C_3  and  C_4
REMARK    4  A    between atoms: C_4  and  C_5
REMARK    5  A    between atoms: C_5  and  C_6
REMARK    6  A    between atoms: C_6  and  C_7
REMARK    7  A    between atoms: C_7  and  C_8
REMARK    8  A    between atoms: C_8  and  C_9
REMARK    9  A    between atoms: C_9  and  C_10
REMARK   10  A    between atoms: C_10  and  C_11
REMARK   11  A    between atoms: C_11  and  C_12
REMARK   12  A    between atoms: C_12  and  C_13
REMARK   13  A    between atoms: C_13  and  C_14
REMARK   14  A    between atoms: C_14  and  C_15
REMARK   15  A    between atoms: C_15  and  C_16
REMARK   16  A    between atoms: C_16  and  O_17
REMARK   17  A    between atoms: O_17  and  C_18
REMARK   18  A    between atoms: C_18  and  C_19
REMARK   19  A    between atoms: C_19  and  C_20
REMARK   20  A    between atoms: C_20  and  O_21
REMARK   21  A    between atoms: O_21  and  P_22
REMARK   22  A    between atoms: P_22  and  O_25
REMARK   23  A    between atoms: O_25  and  C_26
REMARK   24  A    between atoms: C_26  and  C_27
REMARK   25  A    between atoms: C_27  and  N_28
REMARK   26  A    between atoms: N_28  and  C_29
REMARK   27  A    between atoms: N_28  and  C_30
REMARK   28  A    between atoms: N_28  and  C_31
REMARK                            x       y       z     vdW  Elec       q    Type
REMARK                         _______ _______ _______ _____ _____    ______ ____
ROOT
ATOM      1  C   UNL     1       1.122  10.426  18.310  0.00  0.00    +0.000 C 
ENDROOT
BRANCH   1   2
ATOM      2  O   UNL     1       2.267  10.884  17.597  0.00  0.00    +0.000 OA
BRANCH   2   3
ATOM      3  C   UNL     1       2.615  12.190  18.032  0.00  0.00    +0.000 C 
BRANCH   3   4
ATOM      4  C   UNL     1       1.585  12.689  19.014  0.00  0.00    +0.000 C 
BRANCH   4   5
ATOM      5  C   UNL     1       1.335  14.154  18.792  0.00  0.00    +0.000 C 
BRANCH   5   6
ATOM      6  O   UNL     1       1.806  14.928  19.893  0.00  0.00    +0.000 OA
BRANCH   6   7
ATOM      7  P   UNL     1       2.991  16.074  19.369  0.00  0.00    +0.000 P 
ATOM      8  O   UNL     1       2.155  16.422  18.132  0.00  0.00    +0.000 OA
ATOM      9  O   UNL     1       2.855  16.811  20.712  0.00  0.00    +0.000 OA
BRANCH   7  10
ATOM     10  O   UNL     1       4.176  17.220  18.844  0.00  0.00    +0.000 OA
BRANCH  10  11
ATOM     11  C   UNL     1       5.447  16.646  18.751  0.00  0.00    +0.000 C 
BRANCH  11  12
ATOM     12  C   UNL     1       6.302  16.954  19.964  0.00  0.00    +0.000 C 
BRANCH  12  13
ATOM     13  N   UNL     1       6.976  15.675  20.401  0.00  0.00    +0.000 N 
ATOM     14  C   UNL     1       6.161  14.883  21.429  0.00  0.00    +0.000 C 
ATOM     15  C   UNL     1       7.304  14.771  19.198  0.00  0.00    +0.000 C 
ATOM     16  C   UNL     1       8.313  16.053  21.064  0.00  0.00    +0.000 C 
ENDBRANCH  12  13
ENDBRANCH  11  12
ENDBRANCH  10  11
ENDBRANCH   7  10
ENDBRANCH   6   7
ENDBRANCH   5   6
ENDBRANCH   4   5
ENDBRANCH   3   4
ENDBRANCH   2   3
ENDBRANCH   1   2
BRANCH   1  17
ATOM     17  C   UNL     1       1.380   9.021  18.800  0.00  0.00    +0.000 C 
BRANCH  17  18
ATOM     18  C   UNL     1       2.383   8.348  17.879  0.00  0.00    +0.000 C 
BRANCH  18  19
ATOM     19  C   UNL     1       2.435   6.860  18.160  0.00  0.00    +0.000 C 
BRANCH  19  20
ATOM     20  C   UNL     1       2.306   6.610  19.652  0.00  0.00    +0.000 C 
BRANCH  20  21
ATOM     21  C   UNL     1       3.180   5.437  20.054  0.00  0.00    +0.000 C 
BRANCH  21  22
ATOM     22  C   UNL     1       2.442   4.559  21.043  0.00  0.00    +0.000 C 
BRANCH  22  23
ATOM     23  C   UNL     1       1.049   4.253  20.524  0.00  0.00    +0.000 C 
BRANCH  23  24
ATOM     24  C   UNL     1       1.009   2.852  19.950  0.00  0.00    +0.000 C 
BRANCH  24  25
ATOM     25  C   UNL     1       1.134   2.909  18.439  0.00  0.00    +0.000 C 
BRANCH  25  26
ATOM     26  C   UNL     1       2.510   2.431  18.016  0.00  0.00    +0.000 C 
BRANCH  26  27
ATOM     27  C   UNL     1       3.069   3.350  16.945  0.00  0.00    +0.000 C 
BRANCH  27  28
ATOM     28  C   UNL     1       4.466   3.791  17.318  0.00  0.00    +0.000 C 
BRANCH  28  29
ATOM     29  C   UNL     1       5.204   4.310  16.095  0.00  0.00    +0.000 C 
BRANCH  29  31
ATOM     30  C   UNL     1       6.022   6.411  17.167  0.00  0.00    +0.000 C 
ATOM     31  C   UNL     1       5.182   5.833  16.050  0.00  0.00    +0.000 C 
ENDBRANCH  29  31
ENDBRANCH  28  29
ENDBRANCH  27  28
ENDBRANCH  26  27
ENDBRANCH  25  26
ENDBRANCH  24  25
ENDBRANCH  23  24
ENDBRANCH  22  23
ENDBRANCH  21  22
ENDBRANCH  20  21
ENDBRANCH  19  20
ENDBRANCH  18  19
ENDBRANCH  17  18
ENDBRANCH   1  17
TORSDOF 24
ENDMDL
