MODEL 1
REMARK VINA RESULT:      -9.7      0.000      0.000
REMARK  Name = 
REMARK  8 active torsions:
REMARK  status: ('A' for Active; 'I' for Inactive)
REMARK    1  A    between atoms: C_1  and  C_2
REMARK    2  A    between atoms: C_2  and  C_3
REMARK    3  A    between atoms: C_6  and  C_7
REMARK    4  A    between atoms: C_9  and  C_10
REMARK    5  A    between atoms: C_14  and  C_15
REMARK    6  A    between atoms: C_20  and  C_21
REMARK    7  A    between atoms: C_26  and  O_27
REMARK    8  A    between atoms: O_27  and  C_28
REMARK                            x       y       z     vdW  Elec       q    Type
REMARK                         _______ _______ _______ _____ _____    ______ ____
ROOT
ATOM      1  C   UNL     1       2.683   6.517  19.368  0.00  0.00    +0.000 A 
ATOM      2  N   UNL     1       3.710   6.528  18.538  0.00  0.00    +0.000 NA
ATOM      3  C   UNL     1       4.272   5.278  18.573  0.00  0.00    +0.000 A 
ATOM      4  C   UNL     1       3.591   4.462  19.463  0.00  0.00    +0.000 A 
ATOM      5  N   UNL     1       2.527   5.246  19.891  0.00  0.00    +0.000 N 
ATOM      6  C   UNL     1       1.399   4.782  20.684  0.00  0.00    +0.000 C 
ATOM      7  C   UNL     1       0.925   3.358  20.372  0.00  0.00    +0.000 C 
ATOM      8  C   UNL     1       0.649   3.129  18.885  0.00  0.00    +0.000 C 
ATOM      9  O   UNL     1       1.735   2.311  20.915  0.00  0.00    +0.000 OA
ATOM     10  C   UNL     1       3.117   2.599  21.133  0.00  0.00    +0.000 C 
ATOM     11  C   UNL     1       3.834   3.042  19.867  0.00  0.00    +0.000 C 
ENDROOT
BRANCH   3  12
ATOM     12  C   UNL     1       5.447   4.946  17.785  0.00  0.00    +0.000 A 
ATOM     13  C   UNL     1       6.732   4.896  18.327  0.00  0.00    +0.000 A 
ATOM     14  C   UNL     1       7.794   4.605  17.490  0.00  0.00    +0.000 A 
ATOM     15  N   UNL     1       7.663   4.341  16.173  0.00  0.00    +0.000 NA
ATOM     16  C   UNL     1       6.411   4.354  15.664  0.00  0.00    +0.000 A 
ATOM     17  C   UNL     1       6.259   4.048  14.204  0.00  0.00    +0.000 C 
ATOM     18  C   UNL     1       5.288   4.644  16.432  0.00  0.00    +0.000 A 
ENDBRANCH   3  12
BRANCH   1  22
ATOM     19  C   UNL     1       0.211   9.981  20.053  0.00  0.00    +0.000 A 
ATOM     20  C   UNL     1       0.949   9.808  18.863  0.00  0.00    +0.000 A 
ATOM     21  C   UNL     1       1.740   8.680  18.649  0.00  0.00    +0.000 A 
ATOM     22  C   UNL     1       1.836   7.689  19.625  0.00  0.00    +0.000 A 
ATOM     23  C   UNL     1       1.133   7.873  20.821  0.00  0.00    +0.000 A 
ATOM     24  C   UNL     1       0.306   8.988  21.040  0.00  0.00    +0.000 A 
BRANCH  19  26
ATOM     25  C   UNL     1      -1.578  11.228  18.842  0.00  0.00    +0.000 C 
ATOM     26  C   UNL     1      -0.707  11.177  20.087  0.00  0.00    +0.000 C 
ENDBRANCH  19  26
BRANCH  24  27
ATOM     27  O   UNL     1      -0.414   8.868  22.197  0.00  0.00    +0.000 OA
ATOM     28  C   UNL     1       0.045   9.545  23.354  0.00  0.00    +0.000 C 
ENDBRANCH  24  27
ENDBRANCH   1  22
TORSDOF 4
ENDMDL
MODEL 2
REMARK VINA RESULT:      -9.4      1.077      1.828
REMARK  Name = 
REMARK  8 active torsions:
REMARK  status: ('A' for Active; 'I' for Inactive)
REMARK    1  A    between atoms: C_1  and  C_2
REMARK    2  A    between atoms: C_2  and  C_3
REMARK    3  A    between atoms: C_6  and  C_7
REMARK    4  A    between atoms: C_9  and  C_10
REMARK    5  A    between atoms: C_14  and  C_15
REMARK    6  A    between atoms: C_20  and  C_21
REMARK    7  A    between atoms: C_26  and  O_27
REMARK    8  A    between atoms: O_27  and  C_28
REMARK                            x       y       z     vdW  Elec       q    Type
REMARK                         _______ _______ _______ _____ _____    ______ ____
ROOT
ATOM      1  C   UNL     1       2.728   6.467  19.512  0.00  0.00    +0.000 A 
ATOM      2  N   UNL     1       3.726   6.505  18.648  0.00  0.00    +0.000 NA
ATOM      3  C   UNL     1       4.267   5.246  18.597  0.00  0.00    +0.000 A 
ATOM      4  C   UNL     1       3.603   4.395  19.466  0.00  0.00    +0.000 A 
ATOM      5  N   UNL     1       2.568   5.171  19.972  0.00  0.00    +0.000 N 
ATOM      6  C   UNL     1       1.461   4.684  20.779  0.00  0.00    +0.000 C 
ATOM      7  C   UNL     1       0.952   3.286  20.411  0.00  0.00    +0.000 C 
ATOM      8  C   UNL     1       0.620   3.141  18.924  0.00  0.00    +0.000 C 
ATOM      9  O   UNL     1       1.761   2.199  20.868  0.00  0.00    +0.000 OA
ATOM     10  C   UNL     1       3.155   2.454  21.052  0.00  0.00    +0.000 C 
ATOM     11  C   UNL     1       3.835   2.952  19.787  0.00  0.00    +0.000 C 
ENDROOT
BRANCH   3  12
ATOM     12  C   UNL     1       5.408   4.938  17.751  0.00  0.00    +0.000 A 
ATOM     13  C   UNL     1       6.717   4.893  18.234  0.00  0.00    +0.000 A 
ATOM     14  C   UNL     1       7.743   4.625  17.346  0.00  0.00    +0.000 A 
ATOM     15  N   UNL     1       7.555   4.380  16.032  0.00  0.00    +0.000 NA
ATOM     16  C   UNL     1       6.281   4.389  15.580  0.00  0.00    +0.000 A 
ATOM     17  C   UNL     1       6.065   4.105  14.123  0.00  0.00    +0.000 C 
ATOM     18  C   UNL     1       5.191   4.656  16.403  0.00  0.00    +0.000 A 
ENDBRANCH   3  12
BRANCH   1  22
ATOM     19  C   UNL     1       0.322   9.872  20.602  0.00  0.00    +0.000 A 
ATOM     20  C   UNL     1       0.540   8.793  21.484  0.00  0.00    +0.000 A 
ATOM     21  C   UNL     1       1.327   7.699  21.124  0.00  0.00    +0.000 A 
ATOM     22  C   UNL     1       1.912   7.636  19.860  0.00  0.00    +0.000 A 
ATOM     23  C   UNL     1       1.669   8.687  18.969  0.00  0.00    +0.000 A 
ATOM     24  C   UNL     1       0.906   9.812  19.328  0.00  0.00    +0.000 A 
BRANCH  19  26
ATOM     25  C   UNL     1      -0.740  10.826  22.649  0.00  0.00    +0.000 C 
ATOM     26  C   UNL     1      -0.431  11.046  21.176  0.00  0.00    +0.000 C 
ENDBRANCH  19  26
BRANCH  24  27
ATOM     27  O   UNL     1       0.952  10.785  18.368  0.00  0.00    +0.000 OA
ATOM     28  C   UNL     1       1.921  11.811  18.488  0.00  0.00    +0.000 C 
ENDBRANCH  24  27
ENDBRANCH   1  22
TORSDOF 4
ENDMDL
MODEL 3
REMARK VINA RESULT:      -8.3      0.978      1.020
REMARK  Name = 
REMARK  8 active torsions:
REMARK  status: ('A' for Active; 'I' for Inactive)
REMARK    1  A    between atoms: C_1  and  C_2
REMARK    2  A    between atoms: C_2  and  C_3
REMARK    3  A    between atoms: C_6  and  C_7
REMARK    4  A    between atoms: C_9  and  C_10
REMARK    5  A    between atoms: C_14  and  C_15
REMARK    6  A    between atoms: C_20  and  C_21
REMARK    7  A    between atoms: C_26  and  O_27
REMARK    8  A    between atoms: O_27  and  C_28
REMARK                            x       y       z     vdW  Elec       q    Type
REMARK                         _______ _______ _______ _____ _____    ______ ____
ROOT
ATOM      1  C   UNL     1       2.518   7.246  18.807  0.00  0.00    +0.000 A 
ATOM      2  N   UNL     1       3.486   7.300  17.910  0.00  0.00    +0.000 NA
ATOM      3  C   UNL     1       4.168   6.112  17.977  0.00  0.00    +0.000 A 
ATOM      4  C   UNL     1       3.627   5.294  18.957  0.00  0.00    +0.000 A 
ATOM      5  N   UNL     1       2.520   6.000  19.410  0.00  0.00    +0.000 N 
ATOM      6  C   UNL     1       1.494   5.484  20.303  0.00  0.00    +0.000 C 
ATOM      7  C   UNL     1       1.143   4.005  20.106  0.00  0.00    +0.000 C 
ATOM      8  C   UNL     1       0.799   3.658  18.657  0.00  0.00    +0.000 C 
ATOM      9  O   UNL     1       2.083   3.075  20.651  0.00  0.00    +0.000 OA
ATOM     10  C   UNL     1       3.442   3.504  20.759  0.00  0.00    +0.000 C 
ATOM     11  C   UNL     1       4.032   3.932  19.424  0.00  0.00    +0.000 C 
ENDROOT
BRANCH   3  12
ATOM     12  C   UNL     1       5.319   5.843  17.132  0.00  0.00    +0.000 A 
ATOM     13  C   UNL     1       6.595   6.334  17.411  0.00  0.00    +0.000 A 
ATOM     14  C   UNL     1       7.622   6.054  16.528  0.00  0.00    +0.000 A 
ATOM     15  N   UNL     1       7.473   5.308  15.414  0.00  0.00    +0.000 NA
ATOM     16  C   UNL     1       6.242   4.805  15.170  0.00  0.00    +0.000 A 
ATOM     17  C   UNL     1       6.074   3.964  13.939  0.00  0.00    +0.000 C 
ATOM     18  C   UNL     1       5.152   5.043  16.001  0.00  0.00    +0.000 A 
ENDBRANCH   3  12
BRANCH   1  22
ATOM     19  C   UNL     1      -0.253  10.482  19.456  0.00  0.00    +0.000 A 
ATOM     20  C   UNL     1       0.094  10.039  18.163  0.00  0.00    +0.000 A 
ATOM     21  C   UNL     1       0.987   8.986  17.964  0.00  0.00    +0.000 A 
ATOM     22  C   UNL     1       1.579   8.346  19.053  0.00  0.00    +0.000 A 
ATOM     23  C   UNL     1       1.263   8.805  20.336  0.00  0.00    +0.000 A 
ATOM     24  C   UNL     1       0.341   9.843  20.555  0.00  0.00    +0.000 A 
BRANCH  19  26
ATOM     25  C   UNL     1      -2.316  11.372  18.371  0.00  0.00    +0.000 C 
ATOM     26  C   UNL     1      -1.334  11.532  19.521  0.00  0.00    +0.000 C 
ENDBRANCH  19  26
BRANCH  24  27
ATOM     27  O   UNL     1       0.058  10.001  21.884  0.00  0.00    +0.000 OA
ATOM     28  C   UNL     1       0.754   9.202  22.825  0.00  0.00    +0.000 C 
ENDBRANCH  24  27
ENDBRANCH   1  22
TORSDOF 4
ENDMDL
MODEL 4
REMARK VINA RESULT:      -7.6      2.369      7.498
REMARK  Name = 
REMARK  8 active torsions:
REMARK  status: ('A' for Active; 'I' for Inactive)
REMARK    1  A    between atoms: C_1  and  C_2
REMARK    2  A    between atoms: C_2  and  C_3
REMARK    3  A    between atoms: C_6  and  C_7
REMARK    4  A    between atoms: C_9  and  C_10
REMARK    5  A    between atoms: C_14  and  C_15
REMARK    6  A    between atoms: C_20  and  C_21
REMARK    7  A    between atoms: C_26  and  O_27
REMARK    8  A    between atoms: O_27  and  C_28
REMARK                            x       y       z     vdW  Elec       q    Type
REMARK                         _______ _______ _______ _____ _____    ______ ____
ROOT
ATOM      1  C   UNL     1       4.000   5.337  17.201  0.00  0.00    +0.000 A 
ATOM      2  N   UNL     1       3.661   6.492  17.744  0.00  0.00    +0.000 NA
ATOM      3  C   UNL     1       2.664   6.237  18.651  0.00  0.00    +0.000 A 
ATOM      4  C   UNL     1       2.355   4.886  18.667  0.00  0.00    +0.000 A 
ATOM      5  N   UNL     1       3.281   4.318  17.801  0.00  0.00    +0.000 N 
ATOM      6  C   UNL     1       3.509   2.893  17.620  0.00  0.00    +0.000 C 
ATOM      7  C   UNL     1       3.373   2.046  18.890  0.00  0.00    +0.000 C 
ATOM      8  C   UNL     1       4.218   2.568  20.053  0.00  0.00    +0.000 C 
ATOM      9  O   UNL     1       2.031   1.777  19.306  0.00  0.00    +0.000 OA
ATOM     10  C   UNL     1       1.029   2.729  18.942  0.00  0.00    +0.000 C 
ATOM     11  C   UNL     1       1.333   4.128  19.455  0.00  0.00    +0.000 C 
ENDROOT
BRANCH   3  12
ATOM     12  C   UNL     1       2.041   7.300  19.421  0.00  0.00    +0.000 A 
ATOM     13  C   UNL     1       1.750   7.178  20.781  0.00  0.00    +0.000 A 
ATOM     14  C   UNL     1       1.123   8.231  21.422  0.00  0.00    +0.000 A 
ATOM     15  N   UNL     1       0.792   9.391  20.816  0.00  0.00    +0.000 NA
ATOM     16  C   UNL     1       1.111   9.514  19.508  0.00  0.00    +0.000 A 
ATOM     17  C   UNL     1       0.756  10.806  18.833  0.00  0.00    +0.000 C 
ATOM     18  C   UNL     1       1.735   8.503  18.785  0.00  0.00    +0.000 A 
ENDBRANCH   3  12
BRANCH   1  22
ATOM     19  C   UNL     1       7.055   4.984  14.182  0.00  0.00    +0.000 A 
ATOM     20  C   UNL     1       7.187   5.852  15.285  0.00  0.00    +0.000 A 
ATOM     21  C   UNL     1       6.195   5.953  16.261  0.00  0.00    +0.000 A 
ATOM     22  C   UNL     1       5.025   5.201  16.160  0.00  0.00    +0.000 A 
ATOM     23  C   UNL     1       4.875   4.365  15.048  0.00  0.00    +0.000 A 
ATOM     24  C   UNL     1       5.879   4.227  14.073  0.00  0.00    +0.000 A 
BRANCH  19  26
ATOM     25  C   UNL     1       8.184   5.876  12.144  0.00  0.00    +0.000 C 
ATOM     26  C   UNL     1       8.263   4.875  13.285  0.00  0.00    +0.000 C 
ENDBRANCH  19  26
BRANCH  24  27
ATOM     27  O   UNL     1       5.589   3.230  13.183  0.00  0.00    +0.000 OA
ATOM     28  C   UNL     1       4.894   3.563  11.994  0.00  0.00    +0.000 C 
ENDBRANCH  24  27
ENDBRANCH   1  22
TORSDOF 4
ENDMDL
MODEL 5
REMARK VINA RESULT:      -7.5      2.287      7.115
REMARK  Name = 
REMARK  8 active torsions:
REMARK  status: ('A' for Active; 'I' for Inactive)
REMARK    1  A    between atoms: C_1  and  C_2
REMARK    2  A    between atoms: C_2  and  C_3
REMARK    3  A    between atoms: C_6  and  C_7
REMARK    4  A    between atoms: C_9  and  C_10
REMARK    5  A    between atoms: C_14  and  C_15
REMARK    6  A    between atoms: C_20  and  C_21
REMARK    7  A    between atoms: C_26  and  O_27
REMARK    8  A    between atoms: O_27  and  C_28
REMARK                            x       y       z     vdW  Elec       q    Type
REMARK                         _______ _______ _______ _____ _____    ______ ____
ROOT
ATOM      1  C   UNL     1       3.598   5.651  18.105  0.00  0.00    +0.000 A 
ATOM      2  N   UNL     1       3.297   6.841  18.592  0.00  0.00    +0.000 NA
ATOM      3  C   UNL     1       2.272   6.666  19.485  0.00  0.00    +0.000 A 
ATOM      4  C   UNL     1       1.904   5.331  19.550  0.00  0.00    +0.000 A 
ATOM      5  N   UNL     1       2.822   4.689  18.729  0.00  0.00    +0.000 N 
ATOM      6  C   UNL     1       2.992   3.250  18.612  0.00  0.00    +0.000 C 
ATOM      7  C   UNL     1       2.793   2.463  19.912  0.00  0.00    +0.000 C 
ATOM      8  C   UNL     1       3.635   2.997  21.072  0.00  0.00    +0.000 C 
ATOM      9  O   UNL     1       1.431   2.269  20.308  0.00  0.00    +0.000 OA
ATOM     10  C   UNL     1       0.480   3.246  19.882  0.00  0.00    +0.000 C 
ATOM     11  C   UNL     1       0.834   4.652  20.344  0.00  0.00    +0.000 C 
ENDROOT
BRANCH   3  12
ATOM     12  C   UNL     1       1.679   7.786  20.197  0.00  0.00    +0.000 A 
ATOM     13  C   UNL     1       1.544   7.814  21.586  0.00  0.00    +0.000 A 
ATOM     14  C   UNL     1       0.934   8.908  22.171  0.00  0.00    +0.000 A 
ATOM     15  N   UNL     1       0.477   9.974  21.480  0.00  0.00    +0.000 NA
ATOM     16  C   UNL     1       0.646   9.956  20.139  0.00  0.00    +0.000 A 
ATOM     17  C   UNL     1       0.151  11.143  19.367  0.00  0.00    +0.000 C 
ATOM     18  C   UNL     1       1.242   8.892  19.468  0.00  0.00    +0.000 A 
ENDBRANCH   3  12
BRANCH   1  22
ATOM     19  C   UNL     1       6.605   4.951  15.099  0.00  0.00    +0.000 A 
ATOM     20  C   UNL     1       5.362   4.287  15.085  0.00  0.00    +0.000 A 
ATOM     21  C   UNL     1       4.392   4.526  16.059  0.00  0.00    +0.000 A 
ATOM     22  C   UNL     1       4.638   5.428  17.094  0.00  0.00    +0.000 A 
ATOM     23  C   UNL     1       5.884   6.063  17.130  0.00  0.00    +0.000 A 
ATOM     24  C   UNL     1       6.859   5.857  16.139  0.00  0.00    +0.000 A 
BRANCH  19  26
ATOM     25  C   UNL     1       6.737   3.981  12.804  0.00  0.00    +0.000 C 
ATOM     26  C   UNL     1       7.497   4.699  13.908  0.00  0.00    +0.000 C 
ENDBRANCH  19  26
BRANCH  24  27
ATOM     27  O   UNL     1       7.919   6.711  16.283  0.00  0.00    +0.000 OA
ATOM     28  C   UNL     1       7.884   7.664  17.331  0.00  0.00    +0.000 C 
ENDBRANCH  24  27
ENDBRANCH   1  22
TORSDOF 4
ENDMDL
MODEL 6
REMARK VINA RESULT:      -7.5      0.404      1.308
REMARK  Name = 
REMARK  8 active torsions:
REMARK  status: ('A' for Active; 'I' for Inactive)
REMARK    1  A    between atoms: C_1  and  C_2
REMARK    2  A    between atoms: C_2  and  C_3
REMARK    3  A    between atoms: C_6  and  C_7
REMARK    4  A    between atoms: C_9  and  C_10
REMARK    5  A    between atoms: C_14  and  C_15
REMARK    6  A    between atoms: C_20  and  C_21
REMARK    7  A    between atoms: C_26  and  O_27
REMARK    8  A    between atoms: O_27  and  C_28
REMARK                            x       y       z     vdW  Elec       q    Type
REMARK                         _______ _______ _______ _____ _____    ______ ____
ROOT
ATOM      1  C   UNL     1       2.521   6.655  19.384  0.00  0.00    +0.000 A 
ATOM      2  N   UNL     1       3.552   6.701  18.560  0.00  0.00    +0.000 NA
ATOM      3  C   UNL     1       4.133   5.458  18.568  0.00  0.00    +0.000 A 
ATOM      4  C   UNL     1       3.459   4.612  19.435  0.00  0.00    +0.000 A 
ATOM      5  N   UNL     1       2.381   5.369  19.875  0.00  0.00    +0.000 N 
ATOM      6  C   UNL     1       1.257   4.871  20.651  0.00  0.00    +0.000 C 
ATOM      7  C   UNL     1       0.806   3.448  20.303  0.00  0.00    +0.000 C 
ATOM      8  C   UNL     1       0.540   3.251  18.810  0.00  0.00    +0.000 C 
ATOM      9  O   UNL     1       1.628   2.400  20.825  0.00  0.00    +0.000 OA
ATOM     10  C   UNL     1       3.004   2.703  21.058  0.00  0.00    +0.000 C 
ATOM     11  C   UNL     1       3.721   3.186  19.806  0.00  0.00    +0.000 C 
ENDROOT
BRANCH   3  12
ATOM     12  C   UNL     1       5.316   5.162  17.779  0.00  0.00    +0.000 A 
ATOM     13  C   UNL     1       5.308   5.140  16.383  0.00  0.00    +0.000 A 
ATOM     14  C   UNL     1       6.476   4.814  15.718  0.00  0.00    +0.000 A 
ATOM     15  N   UNL     1       7.642   4.534  16.338  0.00  0.00    +0.000 NA
ATOM     16  C   UNL     1       7.650   4.595  17.689  0.00  0.00    +0.000 A 
ATOM     17  C   UNL     1       8.946   4.297  18.383  0.00  0.00    +0.000 C 
ATOM     18  C   UNL     1       6.519   4.908  18.437  0.00  0.00    +0.000 A 
ENDBRANCH   3  12
BRANCH   1  22
ATOM     19  C   UNL     1      -0.007  10.063  20.136  0.00  0.00    +0.000 A 
ATOM     20  C   UNL     1       0.691   9.900  18.922  0.00  0.00    +0.000 A 
ATOM     21  C   UNL     1       1.501   8.789  18.686  0.00  0.00    +0.000 A 
ATOM     22  C   UNL     1       1.656   7.808  19.664  0.00  0.00    +0.000 A 
ATOM     23  C   UNL     1       0.993   7.983  20.883  0.00  0.00    +0.000 A 
ATOM     24  C   UNL     1       0.147   9.080  21.125  0.00  0.00    +0.000 A 
BRANCH  19  26
ATOM     25  C   UNL     1      -1.738  11.368  18.901  0.00  0.00    +0.000 C 
ATOM     26  C   UNL     1      -0.953  11.238  20.196  0.00  0.00    +0.000 C 
ENDBRANCH  19  26
BRANCH  24  27
ATOM     27  O   UNL     1      -0.528   8.951  22.308  0.00  0.00    +0.000 OA
ATOM     28  C   UNL     1      -0.010   9.597  23.458  0.00  0.00    +0.000 C 
ENDBRANCH  24  27
ENDBRANCH   1  22
TORSDOF 4
ENDMDL
MODEL 7
REMARK VINA RESULT:      -7.3      1.177      2.252
REMARK  Name = 
REMARK  8 active torsions:
REMARK  status: ('A' for Active; 'I' for Inactive)
REMARK    1  A    between atoms: C_1  and  C_2
REMARK    2  A    between atoms: C_2  and  C_3
REMARK    3  A    between atoms: C_6  and  C_7
REMARK    4  A    between atoms: C_9  and  C_10
REMARK    5  A    between atoms: C_14  and  C_15
REMARK    6  A    between atoms: C_20  and  C_21
REMARK    7  A    between atoms: C_26  and  O_27
REMARK    8  A    between atoms: O_27  and  C_28
REMARK                            x       y       z     vdW  Elec       q    Type
REMARK                         _______ _______ _______ _____ _____    ______ ____
ROOT
ATOM      1  C   UNL     1       2.489   6.705  19.615  0.00  0.00    +0.000 A 
ATOM      2  N   UNL     1       3.473   6.814  18.742  0.00  0.00    +0.000 NA
ATOM      3  C   UNL     1       4.050   5.576  18.624  0.00  0.00    +0.000 A 
ATOM      4  C   UNL     1       3.423   4.665  19.459  0.00  0.00    +0.000 A 
ATOM      5  N   UNL     1       2.373   5.385  20.014  0.00  0.00    +0.000 N 
ATOM      6  C   UNL     1       1.291   4.827  20.810  0.00  0.00    +0.000 C 
ATOM      7  C   UNL     1       0.818   3.434  20.381  0.00  0.00    +0.000 C 
ATOM      8  C   UNL     1       0.470   3.350  18.893  0.00  0.00    +0.000 C 
ATOM      9  O   UNL     1       1.665   2.350  20.775  0.00  0.00    +0.000 OA
ATOM     10  C   UNL     1       3.053   2.637  20.955  0.00  0.00    +0.000 C 
ATOM     11  C   UNL     1       3.701   3.216  19.706  0.00  0.00    +0.000 C 
ENDROOT
BRANCH   3  12
ATOM     12  C   UNL     1       5.188   5.343  17.750  0.00  0.00    +0.000 A 
ATOM     13  C   UNL     1       5.127   5.515  16.366  0.00  0.00    +0.000 A 
ATOM     14  C   UNL     1       6.252   5.235  15.613  0.00  0.00    +0.000 A 
ATOM     15  N   UNL     1       7.425   4.823  16.138  0.00  0.00    +0.000 NA
ATOM     16  C   UNL     1       7.487   4.695  17.482  0.00  0.00    +0.000 A 
ATOM     17  C   UNL     1       8.792   4.249  18.072  0.00  0.00    +0.000 C 
ATOM     18  C   UNL     1       6.401   4.949  18.315  0.00  0.00    +0.000 A 
ENDBRANCH   3  12
BRANCH   1  22
ATOM     19  C   UNL     1      -0.003   9.979  20.897  0.00  0.00    +0.000 A 
ATOM     20  C   UNL     1       0.218   8.844  21.703  0.00  0.00    +0.000 A 
ATOM     21  C   UNL     1       1.033   7.793  21.282  0.00  0.00    +0.000 A 
ATOM     22  C   UNL     1       1.643   7.831  20.029  0.00  0.00    +0.000 A 
ATOM     23  C   UNL     1       1.398   8.940  19.211  0.00  0.00    +0.000 A 
ATOM     24  C   UNL     1       0.606  10.021  19.634  0.00  0.00    +0.000 A 
BRANCH  19  26
ATOM     25  C   UNL     1      -1.039  10.808  23.009  0.00  0.00    +0.000 C 
ATOM     26  C   UNL     1      -0.790  11.096  21.537  0.00  0.00    +0.000 C 
ENDBRANCH  19  26
BRANCH  24  27
ATOM     27  O   UNL     1       0.652  11.062  18.747  0.00  0.00    +0.000 OA
ATOM     28  C   UNL     1       1.915  11.489  18.267  0.00  0.00    +0.000 C 
ENDBRANCH  24  27
ENDBRANCH   1  22
TORSDOF 4
ENDMDL
MODEL 8
REMARK VINA RESULT:      -7.2      1.384      2.347
REMARK  Name = 
REMARK  8 active torsions:
REMARK  status: ('A' for Active; 'I' for Inactive)
REMARK    1  A    between atoms: C_1  and  C_2
REMARK    2  A    between atoms: C_2  and  C_3
REMARK    3  A    between atoms: C_6  and  C_7
REMARK    4  A    between atoms: C_9  and  C_10
REMARK    5  A    between atoms: C_14  and  C_15
REMARK    6  A    between atoms: C_20  and  C_21
REMARK    7  A    between atoms: C_26  and  O_27
REMARK    8  A    between atoms: O_27  and  C_28
REMARK                            x       y       z     vdW  Elec       q    Type
REMARK                         _______ _______ _______ _____ _____    ______ ____
ROOT
ATOM      1  C   UNL     1       2.371   6.918  19.633  0.00  0.00    +0.000 A 
ATOM      2  N   UNL     1       3.365   7.146  18.793  0.00  0.00    +0.000 NA
ATOM      3  C   UNL     1       4.029   5.959  18.619  0.00  0.00    +0.000 A 
ATOM      4  C   UNL     1       3.449   4.959  19.385  0.00  0.00    +0.000 A 
ATOM      5  N   UNL     1       2.339   5.572  19.953  0.00  0.00    +0.000 N 
ATOM      6  C   UNL     1       1.281   4.895  20.687  0.00  0.00    +0.000 C 
ATOM      7  C   UNL     1       0.916   3.501  20.166  0.00  0.00    +0.000 C 
ATOM      8  C   UNL     1       0.608   3.482  18.667  0.00  0.00    +0.000 C 
ATOM      9  O   UNL     1       1.828   2.457  20.520  0.00  0.00    +0.000 OA
ATOM     10  C   UNL     1       3.188   2.826  20.752  0.00  0.00    +0.000 C 
ATOM     11  C   UNL     1       3.822   3.521  19.556  0.00  0.00    +0.000 C 
ENDROOT
BRANCH   3  12
ATOM     12  C   UNL     1       5.199   5.856  17.764  0.00  0.00    +0.000 A 
ATOM     13  C   UNL     1       5.396   4.797  16.876  0.00  0.00    +0.000 A 
ATOM     14  C   UNL     1       6.559   4.767  16.128  0.00  0.00    +0.000 A 
ATOM     15  N   UNL     1       7.515   5.718  16.185  0.00  0.00    +0.000 NA
ATOM     16  C   UNL     1       7.299   6.759  17.019  0.00  0.00    +0.000 A 
ATOM     17  C   UNL     1       8.353   7.824  17.077  0.00  0.00    +0.000 C 
ATOM     18  C   UNL     1       6.161   6.865  17.814  0.00  0.00    +0.000 A 
ENDBRANCH   3  12
BRANCH   1  22
ATOM     19  C   UNL     1      -0.355   9.945  21.040  0.00  0.00    +0.000 A 
ATOM     20  C   UNL     1       0.179   8.960  21.895  0.00  0.00    +0.000 A 
ATOM     21  C   UNL     1       1.067   7.989  21.431  0.00  0.00    +0.000 A 
ATOM     22  C   UNL     1       1.440   7.957  20.088  0.00  0.00    +0.000 A 
ATOM     23  C   UNL     1       0.885   8.912  19.229  0.00  0.00    +0.000 A 
ATOM     24  C   UNL     1       0.015   9.917  19.687  0.00  0.00    +0.000 A 
BRANCH  19  26
ATOM     25  C   UNL     1      -1.200  10.825  23.216  0.00  0.00    +0.000 C 
ATOM     26  C   UNL     1      -1.188  11.011  21.707  0.00  0.00    +0.000 C 
ENDBRANCH  19  26
BRANCH  24  27
ATOM     27  O   UNL     1      -0.257  10.837  18.712  0.00  0.00    +0.000 OA
ATOM     28  C   UNL     1      -1.448  10.692  17.957  0.00  0.00    +0.000 C 
ENDBRANCH  24  27
ENDBRANCH   1  22
TORSDOF 4
ENDMDL
MODEL 9
REMARK VINA RESULT:      -7.1      4.051      7.548
REMARK  Name = 
REMARK  8 active torsions:
REMARK  status: ('A' for Active; 'I' for Inactive)
REMARK    1  A    between atoms: C_1  and  C_2
REMARK    2  A    between atoms: C_2  and  C_3
REMARK    3  A    between atoms: C_6  and  C_7
REMARK    4  A    between atoms: C_9  and  C_10
REMARK    5  A    between atoms: C_14  and  C_15
REMARK    6  A    between atoms: C_20  and  C_21
REMARK    7  A    between atoms: C_26  and  O_27
REMARK    8  A    between atoms: O_27  and  C_28
REMARK                            x       y       z     vdW  Elec       q    Type
REMARK                         _______ _______ _______ _____ _____    ______ ____
ROOT
ATOM      1  C   UNL     1      -1.419  11.317  18.579  0.00  0.00    +0.000 A 
ATOM      2  N   UNL     1      -0.957  10.099  18.797  0.00  0.00    +0.000 NA
ATOM      3  C   UNL     1       0.409  10.192  18.881  0.00  0.00    +0.000 A 
ATOM      4  C   UNL     1       0.820  11.503  18.694  0.00  0.00    +0.000 A 
ATOM      5  N   UNL     1      -0.368  12.216  18.593  0.00  0.00    +0.000 N 
ATOM      6  C   UNL     1      -0.486  13.666  18.587  0.00  0.00    +0.000 C 
ATOM      7  C   UNL     1       0.508  14.404  19.489  0.00  0.00    +0.000 C 
ATOM      8  C   UNL     1       0.513  13.885  20.928  0.00  0.00    +0.000 C 
ATOM      9  O   UNL     1       1.839  14.513  18.975  0.00  0.00    +0.000 OA
ATOM     10  C   UNL     1       2.275  13.497  18.070  0.00  0.00    +0.000 C 
ATOM     11  C   UNL     1       2.191  12.101  18.667  0.00  0.00    +0.000 C 
ENDROOT
BRANCH   3  12
ATOM     12  C   UNL     1       1.243   9.022  19.098  0.00  0.00    +0.000 A 
ATOM     13  C   UNL     1       1.241   8.304  20.296  0.00  0.00    +0.000 A 
ATOM     14  C   UNL     1       2.096   7.224  20.422  0.00  0.00    +0.000 A 
ATOM     15  N   UNL     1       2.924   6.801  19.443  0.00  0.00    +0.000 NA
ATOM     16  C   UNL     1       2.891   7.479  18.274  0.00  0.00    +0.000 A 
ATOM     17  C   UNL     1       3.800   7.006  17.179  0.00  0.00    +0.000 C 
ATOM     18  C   UNL     1       2.067   8.581  18.064  0.00  0.00    +0.000 A 
ENDBRANCH   3  12
BRANCH   1  22
ATOM     19  C   UNL     1      -5.599  12.193  17.999  0.00  0.00    +0.000 A 
ATOM     20  C   UNL     1      -4.783  11.701  16.959  0.00  0.00    +0.000 A 
ATOM     21  C   UNL     1      -3.433  11.414  17.159  0.00  0.00    +0.000 A 
ATOM     22  C   UNL     1      -2.844  11.624  18.405  0.00  0.00    +0.000 A 
ATOM     23  C   UNL     1      -3.641  12.145  19.430  0.00  0.00    +0.000 A 
ATOM     24  C   UNL     1      -5.010  12.409  19.254  0.00  0.00    +0.000 A 
BRANCH  19  26
ATOM     25  C   UNL     1      -7.461  13.785  17.532  0.00  0.00    +0.000 C 
ATOM     26  C   UNL     1      -7.066  12.324  17.676  0.00  0.00    +0.000 C 
ENDBRANCH  19  26
BRANCH  24  27
ATOM     27  O   UNL     1      -5.620  12.741  20.433  0.00  0.00    +0.000 OA
ATOM     28  C   UNL     1      -4.845  12.745  21.620  0.00  0.00    +0.000 C 
ENDBRANCH  24  27
ENDBRANCH   1  22
TORSDOF 4
ENDMDL
