MODEL 1
REMARK VINA RESULT:      -7.8      0.000      0.000
REMARK  Name = 
REMARK  10 active torsions:
REMARK  status: ('A' for Active; 'I' for Inactive)
REMARK    1  A    between atoms: C_1  and  C_2
REMARK    2  A    between atoms: C_2  and  N_3
REMARK    3  A    between atoms: N_3  and  C_4
REMARK    4  A    between atoms: N_3  and  S_6
REMARK    5  A    between atoms: C_4  and  C_5
REMARK    6  A    between atoms: S_6  and  C_9
REMARK    7  A    between atoms: C_12  and  N_13
REMARK    8  A    between atoms: N_13  and  C_14
REMARK    9  A    between atoms: C_14  and  C_15
REMARK   10  A    between atoms: C_25  and  N_26
REMARK                            x       y       z     vdW  Elec       q    Type
REMARK                         _______ _______ _______ _____ _____    ______ ____
ROOT
ATOM      1  C   UNL     1       3.812   4.948  17.373  0.00  0.00    +0.000 A 
ATOM      2  C   UNL     1       3.619   6.306  17.651  0.00  0.00    +0.000 A 
ATOM      3  C   UNL     1       4.680   7.223  17.468  0.00  0.00    +0.000 A 
ATOM      4  C   UNL     1       5.966   6.823  17.054  0.00  0.00    +0.000 A 
ATOM      5  C   UNL     1       6.090   5.458  16.715  0.00  0.00    +0.000 A 
ATOM      6  C   UNL     1       5.051   4.522  16.893  0.00  0.00    +0.000 A 
ENDROOT
BRANCH   1   7
ATOM      7  S   UNL     1       2.562   3.756  17.814  0.00  0.00    +0.000 S 
ATOM      8  O   UNL     1       3.012   2.474  17.315  0.00  0.00    +0.000 OA
ATOM      9  O   UNL     1       1.292   4.310  17.396  0.00  0.00    +0.000 OA
BRANCH   7  10
ATOM     10  N   UNL     1       2.559   3.686  19.529  0.00  0.00    +0.000 NA
BRANCH  10  12
ATOM     11  C   UNL     1       1.607   5.684  20.715  0.00  0.00    +0.000 C 
ATOM     12  C   UNL     1       1.355   4.279  20.186  0.00  0.00    +0.000 C 
ENDBRANCH  10  12
BRANCH  10  13
ATOM     13  C   UNL     1       2.956   2.334  20.061  0.00  0.00    +0.000 C 
ATOM     14  C   UNL     1       4.442   2.198  20.360  0.00  0.00    +0.000 C 
ENDBRANCH  10  13
ENDBRANCH   7  10
ENDBRANCH   1   7
BRANCH   5  15
ATOM     15  N   UNL     1       7.342   4.930  16.196  0.00  0.00    +0.000 N 
ATOM     16  O   UNL     1       7.658   5.239  15.039  0.00  0.00    +0.000 OA
ATOM     17  O   UNL     1       8.018   4.223  16.961  0.00  0.00    +0.000 OA
ENDBRANCH   5  15
BRANCH   4  18
ATOM     18  N   UNL     1       7.012   7.777  16.856  0.00  0.00    +0.000 N 
ATOM     19  H   UNL     1       7.573   7.532  16.027  0.00  0.00    +0.000 HD
BRANCH  18  20
ATOM     20  C   UNL     1       7.927   7.956  18.000  0.00  0.00    +0.000 C 
BRANCH  20  21
ATOM     21  C   UNL     1       8.596   9.338  18.139  0.00  0.00    +0.000 C 
ATOM     22  C   UNL     1       9.087   9.677  19.542  0.00  0.00    +0.000 C 
ATOM     23  O   UNL     1      10.152  10.639  19.372  0.00  0.00    +0.000 OA
ATOM     24  C   UNL     1       9.706  11.691  18.601  0.00  0.00    +0.000 A 
ATOM     25  C   UNL     1      10.481  12.849  18.606  0.00  0.00    +0.000 A 
ATOM     26  C   UNL     1       9.967  14.014  18.041  0.00  0.00    +0.000 A 
ATOM     27  C   UNL     1       8.686  14.009  17.482  0.00  0.00    +0.000 A 
ATOM     28  C   UNL     1       7.962  12.813  17.374  0.00  0.00    +0.000 A 
ATOM     29  C   UNL     1       8.497  11.635  17.885  0.00  0.00    +0.000 A 
ATOM     30  O   UNL     1       7.799  10.452  17.681  0.00  0.00    +0.000 OA
ENDBRANCH  20  21
ENDBRANCH  18  20
ENDBRANCH   4  18
TORSDOF 8
ENDMDL
MODEL 2
REMARK VINA RESULT:      -7.6      4.527      7.371
REMARK  Name = 
REMARK  10 active torsions:
REMARK  status: ('A' for Active; 'I' for Inactive)
REMARK    1  A    between atoms: C_1  and  C_2
REMARK    2  A    between atoms: C_2  and  N_3
REMARK    3  A    between atoms: N_3  and  C_4
REMARK    4  A    between atoms: N_3  and  S_6
REMARK    5  A    between atoms: C_4  and  C_5
REMARK    6  A    between atoms: S_6  and  C_9
REMARK    7  A    between atoms: C_12  and  N_13
REMARK    8  A    between atoms: N_13  and  C_14
REMARK    9  A    between atoms: C_14  and  C_15
REMARK   10  A    between atoms: C_25  and  N_26
REMARK                            x       y       z     vdW  Elec       q    Type
REMARK                         _______ _______ _______ _____ _____    ______ ____
ROOT
ATOM      1  C   UNL     1       1.544   7.466  20.350  0.00  0.00    +0.000 A 
ATOM      2  C   UNL     1       2.324   7.732  19.218  0.00  0.00    +0.000 A 
ATOM      3  C   UNL     1       3.058   6.691  18.606  0.00  0.00    +0.000 A 
ATOM      4  C   UNL     1       3.084   5.378  19.115  0.00  0.00    +0.000 A 
ATOM      5  C   UNL     1       2.225   5.143  20.211  0.00  0.00    +0.000 A 
ATOM      6  C   UNL     1       1.486   6.162  20.844  0.00  0.00    +0.000 A 
ENDROOT
BRANCH   1   7
ATOM      7  S   UNL     1       0.799   8.805  21.261  0.00  0.00    +0.000 S 
ATOM      8  O   UNL     1       1.746   9.191  22.286  0.00  0.00    +0.000 OA
ATOM      9  O   UNL     1      -0.539   8.378  21.611  0.00  0.00    +0.000 OA
BRANCH   7  10
ATOM     10  N   UNL     1       0.655  10.108  20.153  0.00  0.00    +0.000 NA
BRANCH  10  12
ATOM     11  C   UNL     1      -1.501  11.276  19.617  0.00  0.00    +0.000 C 
ATOM     12  C   UNL     1      -0.584  10.098  19.319  0.00  0.00    +0.000 C 
ENDBRANCH  10  12
BRANCH  10  13
ATOM     13  C   UNL     1       0.977  11.442  20.773  0.00  0.00    +0.000 C 
ATOM     14  C   UNL     1       1.775  12.371  19.868  0.00  0.00    +0.000 C 
ENDBRANCH  10  13
ENDBRANCH   7  10
ENDBRANCH   1   7
BRANCH   5  15
ATOM     15  N   UNL     1       2.094   3.811  20.783  0.00  0.00    +0.000 N 
ATOM     16  O   UNL     1       2.304   3.687  21.997  0.00  0.00    +0.000 OA
ATOM     17  O   UNL     1       1.757   2.896  20.015  0.00  0.00    +0.000 OA
ENDBRANCH   5  15
BRANCH   4  18
ATOM     18  N   UNL     1       3.819   4.342  18.460  0.00  0.00    +0.000 N 
ATOM     19  H   UNL     1       3.629   3.430  18.900  0.00  0.00    +0.000 HD
BRANCH  18  20
ATOM     20  C   UNL     1       5.281   4.540  18.413  0.00  0.00    +0.000 C 
BRANCH  20  21
ATOM     21  C   UNL     1       5.921   4.621  17.012  0.00  0.00    +0.000 C 
ATOM     22  C   UNL     1       6.332   6.022  16.573  0.00  0.00    +0.000 C 
ATOM     23  O   UNL     1       7.389   5.843  15.604  0.00  0.00    +0.000 OA
ATOM     24  C   UNL     1       6.968   4.983  14.613  0.00  0.00    +0.000 A 
ATOM     25  C   UNL     1       7.723   4.951  13.443  0.00  0.00    +0.000 A 
ATOM     26  C   UNL     1       7.221   4.284  12.327  0.00  0.00    +0.000 A 
ATOM     27  C   UNL     1       5.972   3.662  12.393  0.00  0.00    +0.000 A 
ATOM     28  C   UNL     1       5.273   3.596  13.607  0.00  0.00    +0.000 A 
ATOM     29  C   UNL     1       5.799   4.210  14.739  0.00  0.00    +0.000 A 
ATOM     30  O   UNL     1       5.131   4.050  15.946  0.00  0.00    +0.000 OA
ENDBRANCH  20  21
ENDBRANCH  18  20
ENDBRANCH   4  18
TORSDOF 8
ENDMDL
MODEL 3
REMARK VINA RESULT:      -7.5      0.420      1.363
REMARK  Name = 
REMARK  10 active torsions:
REMARK  status: ('A' for Active; 'I' for Inactive)
REMARK    1  A    between atoms: C_1  and  C_2
REMARK    2  A    between atoms: C_2  and  N_3
REMARK    3  A    between atoms: N_3  and  C_4
REMARK    4  A    between atoms: N_3  and  S_6
REMARK    5  A    between atoms: C_4  and  C_5
REMARK    6  A    between atoms: S_6  and  C_9
REMARK    7  A    between atoms: C_12  and  N_13
REMARK    8  A    between atoms: N_13  and  C_14
REMARK    9  A    between atoms: C_14  and  C_15
REMARK   10  A    between atoms: C_25  and  N_26
REMARK                            x       y       z     vdW  Elec       q    Type
REMARK                         _______ _______ _______ _____ _____    ______ ____
ROOT
ATOM      1  C   UNL     1       3.732   4.565  17.310  0.00  0.00    +0.000 A 
ATOM      2  C   UNL     1       3.416   5.903  17.577  0.00  0.00    +0.000 A 
ATOM      3  C   UNL     1       4.397   6.907  17.409  0.00  0.00    +0.000 A 
ATOM      4  C   UNL     1       5.721   6.618  17.022  0.00  0.00    +0.000 A 
ATOM      5  C   UNL     1       5.969   5.268  16.692  0.00  0.00    +0.000 A 
ATOM      6  C   UNL     1       5.011   4.246  16.854  0.00  0.00    +0.000 A 
ENDROOT
BRANCH   1   7
ATOM      7  S   UNL     1       2.581   3.271  17.732  0.00  0.00    +0.000 S 
ATOM      8  O   UNL     1       3.176   2.024  17.299  0.00  0.00    +0.000 OA
ATOM      9  O   UNL     1       1.285   3.686  17.236  0.00  0.00    +0.000 OA
BRANCH   7  10
ATOM     10  N   UNL     1       2.498   3.252  19.447  0.00  0.00    +0.000 NA
BRANCH  10  12
ATOM     11  C   UNL     1       4.537   2.099  20.349  0.00  0.00    +0.000 C 
ATOM     12  C   UNL     1       3.807   3.419  20.147  0.00  0.00    +0.000 C 
ENDBRANCH  10  12
BRANCH  10  13
ATOM     13  C   UNL     1       1.389   4.115  19.989  0.00  0.00    +0.000 C 
ATOM     14  C   UNL     1       1.869   5.394  20.661  0.00  0.00    +0.000 C 
ENDBRANCH  10  13
ENDBRANCH   7  10
ENDBRANCH   1   7
BRANCH   5  15
ATOM     15  N   UNL     1       7.272   4.848  16.199  0.00  0.00    +0.000 N 
ATOM     16  O   UNL     1       7.583   5.181  15.047  0.00  0.00    +0.000 OA
ATOM     17  O   UNL     1       7.991   4.204  16.979  0.00  0.00    +0.000 OA
ENDBRANCH   5  15
BRANCH   4  18
ATOM     18  N   UNL     1       6.684   7.659  16.839  0.00  0.00    +0.000 N 
ATOM     19  H   UNL     1       7.145   7.567  15.922  0.00  0.00    +0.000 HD
BRANCH  18  20
ATOM     20  C   UNL     1       7.729   7.740  17.879  0.00  0.00    +0.000 C 
BRANCH  20  21
ATOM     21  C   UNL     1       8.448   9.095  18.029  0.00  0.00    +0.000 C 
ATOM     22  C   UNL     1       8.972   9.394  19.430  0.00  0.00    +0.000 C 
ATOM     23  O   UNL     1      10.067  10.321  19.258  0.00  0.00    +0.000 OA
ATOM     24  C   UNL     1       9.646  11.401  18.513  0.00  0.00    +0.000 A 
ATOM     25  C   UNL     1      10.460  12.531  18.524  0.00  0.00    +0.000 A 
ATOM     26  C   UNL     1       9.978  13.722  17.986  0.00  0.00    +0.000 A 
ATOM     27  C   UNL     1       8.689  13.771  17.448  0.00  0.00    +0.000 A 
ATOM     28  C   UNL     1       7.923  12.603  17.331  0.00  0.00    +0.000 A 
ATOM     29  C   UNL     1       8.424  11.399  17.814  0.00  0.00    +0.000 A 
ATOM     30  O   UNL     1       7.683  10.244  17.602  0.00  0.00    +0.000 OA
ENDBRANCH  20  21
ENDBRANCH  18  20
ENDBRANCH   4  18
TORSDOF 8
ENDMDL
MODEL 4
REMARK VINA RESULT:      -7.4      6.291      9.544
REMARK  Name = 
REMARK  10 active torsions:
REMARK  status: ('A' for Active; 'I' for Inactive)
REMARK    1  A    between atoms: C_1  and  C_2
REMARK    2  A    between atoms: C_2  and  N_3
REMARK    3  A    between atoms: N_3  and  C_4
REMARK    4  A    between atoms: N_3  and  S_6
REMARK    5  A    between atoms: C_4  and  C_5
REMARK    6  A    between atoms: S_6  and  C_9
REMARK    7  A    between atoms: C_12  and  N_13
REMARK    8  A    between atoms: N_13  and  C_14
REMARK    9  A    between atoms: C_14  and  C_15
REMARK   10  A    between atoms: C_25  and  N_26
REMARK                            x       y       z     vdW  Elec       q    Type
REMARK                         _______ _______ _______ _____ _____    ______ ____
ROOT
ATOM      1  C   UNL     1       2.496   7.230  19.104  0.00  0.00    +0.000 A 
ATOM      2  C   UNL     1       2.374   8.158  18.063  0.00  0.00    +0.000 A 
ATOM      3  C   UNL     1       1.581   9.315  18.238  0.00  0.00    +0.000 A 
ATOM      4  C   UNL     1       0.852   9.566  19.417  0.00  0.00    +0.000 A 
ATOM      5  C   UNL     1       1.067   8.642  20.463  0.00  0.00    +0.000 A 
ATOM      6  C   UNL     1       1.847   7.478  20.315  0.00  0.00    +0.000 A 
ENDROOT
BRANCH   1   7
ATOM      7  S   UNL     1       3.302   5.665  18.821  0.00  0.00    +0.000 S 
ATOM      8  O   UNL     1       4.471   5.637  19.675  0.00  0.00    +0.000 OA
ATOM      9  O   UNL     1       3.428   5.514  17.387  0.00  0.00    +0.000 OA
BRANCH   7  10
ATOM     10  N   UNL     1       2.210   4.463  19.376  0.00  0.00    +0.000 NA
BRANCH  10  12
ATOM     11  C   UNL     1       1.763   2.279  18.222  0.00  0.00    +0.000 C 
ATOM     12  C   UNL     1       1.438   3.763  18.305  0.00  0.00    +0.000 C 
ENDBRANCH  10  12
BRANCH  10  13
ATOM     13  C   UNL     1       2.821   3.547  20.403  0.00  0.00    +0.000 C 
ATOM     14  C   UNL     1       2.027   3.451  21.699  0.00  0.00    +0.000 C 
ENDBRANCH  10  13
ENDBRANCH   7  10
ENDBRANCH   1   7
BRANCH   5  15
ATOM     15  N   UNL     1       0.439   8.827  21.762  0.00  0.00    +0.000 N 
ATOM     16  O   UNL     1      -0.608   8.204  21.987  0.00  0.00    +0.000 OA
ATOM     17  O   UNL     1       1.012   9.581  22.565  0.00  0.00    +0.000 OA
ENDBRANCH   5  15
BRANCH   4  18
ATOM     18  N   UNL     1       0.077  10.757  19.572  0.00  0.00    +0.000 N 
ATOM     19  H   UNL     1      -0.618  10.641  20.324  0.00  0.00    +0.000 HD
BRANCH  18  20
ATOM     20  C   UNL     1      -0.625  11.214  18.356  0.00  0.00    +0.000 C 
BRANCH  20  21
ATOM     21  C   UNL     1      -2.165  11.159  18.387  0.00  0.00    +0.000 C 
ATOM     22  C   UNL     1      -2.841  11.294  17.027  0.00  0.00    +0.000 C 
ATOM     23  O   UNL     1      -4.126  10.644  17.152  0.00  0.00    +0.000 OA
ATOM     24  C   UNL     1      -4.803  11.164  18.234  0.00  0.00    +0.000 A 
ATOM     25  C   UNL     1      -6.168  10.895  18.312  0.00  0.00    +0.000 A 
ATOM     26  C   UNL     1      -6.944  11.580  19.244  0.00  0.00    +0.000 A 
ATOM     27  C   UNL     1      -6.350  12.528  20.082  0.00  0.00    +0.000 A 
ATOM     28  C   UNL     1      -4.959  12.706  20.080  0.00  0.00    +0.000 A 
ATOM     29  C   UNL     1      -4.173  11.980  19.191  0.00  0.00    +0.000 A 
ATOM     30  O   UNL     1      -2.793  12.110  19.275  0.00  0.00    +0.000 OA
ENDBRANCH  20  21
ENDBRANCH  18  20
ENDBRANCH   4  18
TORSDOF 8
ENDMDL
MODEL 5
REMARK VINA RESULT:      -7.3      6.338      9.715
REMARK  Name = 
REMARK  10 active torsions:
REMARK  status: ('A' for Active; 'I' for Inactive)
REMARK    1  A    between atoms: C_1  and  C_2
REMARK    2  A    between atoms: C_2  and  N_3
REMARK    3  A    between atoms: N_3  and  C_4
REMARK    4  A    between atoms: N_3  and  S_6
REMARK    5  A    between atoms: C_4  and  C_5
REMARK    6  A    between atoms: S_6  and  C_9
REMARK    7  A    between atoms: C_12  and  N_13
REMARK    8  A    between atoms: N_13  and  C_14
REMARK    9  A    between atoms: C_14  and  C_15
REMARK   10  A    between atoms: C_25  and  N_26
REMARK                            x       y       z     vdW  Elec       q    Type
REMARK                         _______ _______ _______ _____ _____    ______ ____
ROOT
ATOM      1  C   UNL     1       2.391   7.278  19.114  0.00  0.00    +0.000 A 
ATOM      2  C   UNL     1       2.147   8.171  18.063  0.00  0.00    +0.000 A 
ATOM      3  C   UNL     1       1.392   9.343  18.293  0.00  0.00    +0.000 A 
ATOM      4  C   UNL     1       0.819   9.644  19.545  0.00  0.00    +0.000 A 
ATOM      5  C   UNL     1       1.156   8.755  20.588  0.00  0.00    +0.000 A 
ATOM      6  C   UNL     1       1.902   7.576  20.386  0.00  0.00    +0.000 A 
ENDROOT
BRANCH   1   7
ATOM      7  S   UNL     1       3.143   5.694  18.789  0.00  0.00    +0.000 S 
ATOM      8  O   UNL     1       2.382   5.082  17.720  0.00  0.00    +0.000 OA
ATOM      9  O   UNL     1       3.290   5.032  20.068  0.00  0.00    +0.000 OA
BRANCH   7  10
ATOM     10  N   UNL     1       4.717   6.031  18.195  0.00  0.00    +0.000 NA
BRANCH  10  12
ATOM     11  C   UNL     1       6.966   5.651  19.245  0.00  0.00    +0.000 C 
ATOM     12  C   UNL     1       5.761   5.025  18.557  0.00  0.00    +0.000 C 
ENDBRANCH  10  12
BRANCH  10  13
ATOM     13  C   UNL     1       4.721   6.437  16.744  0.00  0.00    +0.000 C 
ATOM     14  C   UNL     1       5.516   5.503  15.841  0.00  0.00    +0.000 C 
ENDBRANCH  10  13
ENDBRANCH   7  10
ENDBRANCH   1   7
BRANCH   5  15
ATOM     15  N   UNL     1       0.697   8.994  21.948  0.00  0.00    +0.000 N 
ATOM     16  O   UNL     1       1.529   9.404  22.769  0.00  0.00    +0.000 OA
ATOM     17  O   UNL     1      -0.505   8.792  22.184  0.00  0.00    +0.000 OA
ENDBRANCH   5  15
BRANCH   4  18
ATOM     18  N   UNL     1       0.079  10.850  19.751  0.00  0.00    +0.000 N 
ATOM     19  H   UNL     1      -0.631  10.717  20.486  0.00  0.00    +0.000 HD
BRANCH  18  20
ATOM     20  C   UNL     1      -0.588  11.393  18.551  0.00  0.00    +0.000 C 
BRANCH  20  21
ATOM     21  C   UNL     1      -2.125  11.278  18.507  0.00  0.00    +0.000 C 
ATOM     22  C   UNL     1      -2.734  11.340  17.110  0.00  0.00    +0.000 C 
ATOM     23  O   UNL     1      -3.998  10.645  17.194  0.00  0.00    +0.000 OA
ATOM     24  C   UNL     1      -4.750  11.174  18.220  0.00  0.00    +0.000 A 
ATOM     25  C   UNL     1      -6.106  10.854  18.239  0.00  0.00    +0.000 A 
ATOM     26  C   UNL     1      -6.955  11.540  19.105  0.00  0.00    +0.000 A 
ATOM     27  C   UNL     1      -6.441  12.538  19.938  0.00  0.00    +0.000 A 
ATOM     28  C   UNL     1      -5.059  12.770  20.000  0.00  0.00    +0.000 A 
ATOM     29  C   UNL     1      -4.202  12.046  19.178  0.00  0.00    +0.000 A 
ATOM     30  O   UNL     1      -2.833  12.233  19.327  0.00  0.00    +0.000 OA
ENDBRANCH  20  21
ENDBRANCH  18  20
ENDBRANCH   4  18
TORSDOF 8
ENDMDL
MODEL 6
REMARK VINA RESULT:      -7.1      5.665      8.846
REMARK  Name = 
REMARK  10 active torsions:
REMARK  status: ('A' for Active; 'I' for Inactive)
REMARK    1  A    between atoms: C_1  and  C_2
REMARK    2  A    between atoms: C_2  and  N_3
REMARK    3  A    between atoms: N_3  and  C_4
REMARK    4  A    between atoms: N_3  and  S_6
REMARK    5  A    between atoms: C_4  and  C_5
REMARK    6  A    between atoms: S_6  and  C_9
REMARK    7  A    between atoms: C_12  and  N_13
REMARK    8  A    between atoms: N_13  and  C_14
REMARK    9  A    between atoms: C_14  and  C_15
REMARK   10  A    between atoms: C_25  and  N_26
REMARK                            x       y       z     vdW  Elec       q    Type
REMARK                         _______ _______ _______ _____ _____    ______ ____
ROOT
ATOM      1  C   UNL     1      -0.577  10.759  19.082  0.00  0.00    +0.000 A 
ATOM      2  C   UNL     1       0.387  10.179  18.248  0.00  0.00    +0.000 A 
ATOM      3  C   UNL     1       1.290   9.225  18.770  0.00  0.00    +0.000 A 
ATOM      4  C   UNL     1       1.301   8.852  20.129  0.00  0.00    +0.000 A 
ATOM      5  C   UNL     1       0.265   9.406  20.911  0.00  0.00    +0.000 A 
ATOM      6  C   UNL     1      -0.646  10.363  20.418  0.00  0.00    +0.000 A 
ENDROOT
BRANCH   1   7
ATOM      7  S   UNL     1      -1.567  12.121  18.497  0.00  0.00    +0.000 S 
ATOM      8  O   UNL     1      -0.665  13.035  17.826  0.00  0.00    +0.000 OA
ATOM      9  O   UNL     1      -2.373  12.562  19.615  0.00  0.00    +0.000 OA
BRANCH   7  10
ATOM     10  N   UNL     1      -2.628  11.463  17.319  0.00  0.00    +0.000 NA
BRANCH  10  12
ATOM     11  C   UNL     1      -2.741   9.719  15.517  0.00  0.00    +0.000 C 
ATOM     12  C   UNL     1      -2.370  10.036  16.959  0.00  0.00    +0.000 C 
ENDBRANCH  10  12
BRANCH  10  13
ATOM     13  C   UNL     1      -4.074  11.784  17.591  0.00  0.00    +0.000 C 
ATOM     14  C   UNL     1      -4.856  10.640  18.223  0.00  0.00    +0.000 C 
ENDBRANCH  10  13
ENDBRANCH   7  10
ENDBRANCH   1   7
BRANCH   5  15
ATOM     15  N   UNL     1       0.111   9.042  22.311  0.00  0.00    +0.000 N 
ATOM     16  O   UNL     1       0.970   9.448  23.106  0.00  0.00    +0.000 OA
ATOM     17  O   UNL     1      -0.886   8.368  22.614  0.00  0.00    +0.000 OA
ENDBRANCH   5  15
BRANCH   4  18
ATOM     18  N   UNL     1       2.213   7.867  20.621  0.00  0.00    +0.000 N 
ATOM     19  H   UNL     1       3.164   8.045  20.266  0.00  0.00    +0.000 HD
BRANCH  18  20
ATOM     20  C   UNL     1       1.855   6.468  20.311  0.00  0.00    +0.000 C 
BRANCH  20  21
ATOM     21  C   UNL     1       2.683   5.772  19.213  0.00  0.00    +0.000 C 
ATOM     22  C   UNL     1       3.643   4.699  19.715  0.00  0.00    +0.000 C 
ATOM     23  O   UNL     1       3.850   3.797  18.605  0.00  0.00    +0.000 OA
ATOM     24  C   UNL     1       4.248   4.512  17.496  0.00  0.00    +0.000 A 
ATOM     25  C   UNL     1       4.800   3.788  16.442  0.00  0.00    +0.000 A 
ATOM     26  C   UNL     1       5.429   4.470  15.403  0.00  0.00    +0.000 A 
ATOM     27  C   UNL     1       5.501   5.865  15.430  0.00  0.00    +0.000 A 
ATOM     28  C   UNL     1       4.840   6.592  16.431  0.00  0.00    +0.000 A 
ATOM     29  C   UNL     1       4.161   5.915  17.438  0.00  0.00    +0.000 A 
ATOM     30  O   UNL     1       3.440   6.661  18.362  0.00  0.00    +0.000 OA
ENDBRANCH  20  21
ENDBRANCH  18  20
ENDBRANCH   4  18
TORSDOF 8
ENDMDL
MODEL 7
REMARK VINA RESULT:      -7.1      6.343      9.312
REMARK  Name = 
REMARK  10 active torsions:
REMARK  status: ('A' for Active; 'I' for Inactive)
REMARK    1  A    between atoms: C_1  and  C_2
REMARK    2  A    between atoms: C_2  and  N_3
REMARK    3  A    between atoms: N_3  and  C_4
REMARK    4  A    between atoms: N_3  and  S_6
REMARK    5  A    between atoms: C_4  and  C_5
REMARK    6  A    between atoms: S_6  and  C_9
REMARK    7  A    between atoms: C_12  and  N_13
REMARK    8  A    between atoms: N_13  and  C_14
REMARK    9  A    between atoms: C_14  and  C_15
REMARK   10  A    between atoms: C_25  and  N_26
REMARK                            x       y       z     vdW  Elec       q    Type
REMARK                         _______ _______ _______ _____ _____    ______ ____
ROOT
ATOM      1  C   UNL     1       2.698   7.146  18.831  0.00  0.00    +0.000 A 
ATOM      2  C   UNL     1       2.490   8.028  17.764  0.00  0.00    +0.000 A 
ATOM      3  C   UNL     1       1.678   9.172  17.940  0.00  0.00    +0.000 A 
ATOM      4  C   UNL     1       1.012   9.451  19.151  0.00  0.00    +0.000 A 
ATOM      5  C   UNL     1       1.313   8.575  20.216  0.00  0.00    +0.000 A 
ATOM      6  C   UNL     1       2.114   7.426  20.067  0.00  0.00    +0.000 A 
ENDROOT
BRANCH   1   7
ATOM      7  S   UNL     1       3.527   5.591  18.560  0.00  0.00    +0.000 S 
ATOM      8  O   UNL     1       4.533   5.469  19.594  0.00  0.00    +0.000 OA
ATOM      9  O   UNL     1       3.894   5.553  17.160  0.00  0.00    +0.000 OA
BRANCH   7  10
ATOM     10  N   UNL     1       2.346   4.373  18.821  0.00  0.00    +0.000 NA
BRANCH  10  12
ATOM     11  C   UNL     1       3.107   2.173  17.882  0.00  0.00    +0.000 C 
ATOM     12  C   UNL     1       2.200   3.383  17.712  0.00  0.00    +0.000 C 
ENDBRANCH  10  12
BRANCH  10  13
ATOM     13  C   UNL     1       2.431   3.761  20.194  0.00  0.00    +0.000 C 
ATOM     14  C   UNL     1       1.085   3.339  20.769  0.00  0.00    +0.000 C 
ENDBRANCH  10  13
ENDBRANCH   7  10
ENDBRANCH   1   7
BRANCH   5  15
ATOM     15  N   UNL     1       0.757   8.797  21.543  0.00  0.00    +0.000 N 
ATOM     16  O   UNL     1      -0.439   8.524  21.715  0.00  0.00    +0.000 OA
ATOM     17  O   UNL     1       1.530   9.222  22.416  0.00  0.00    +0.000 OA
ENDBRANCH   5  15
BRANCH   4  18
ATOM     18  N   UNL     1       0.216  10.628  19.306  0.00  0.00    +0.000 N 
ATOM     19  H   UNL     1      -0.227  10.645  20.236  0.00  0.00    +0.000 HD
BRANCH  18  20
ATOM     20  C   UNL     1      -0.835  10.816  18.286  0.00  0.00    +0.000 C 
BRANCH  20  21
ATOM     21  C   UNL     1      -2.221  11.254  18.797  0.00  0.00    +0.000 C 
ATOM     22  C   UNL     1      -3.234  11.587  17.706  0.00  0.00    +0.000 C 
ATOM     23  O   UNL     1      -4.538  11.380  18.294  0.00  0.00    +0.000 OA
ATOM     24  C   UNL     1      -4.635  12.098  19.467  0.00  0.00    +0.000 A 
ATOM     25  C   UNL     1      -5.912  12.277  19.993  0.00  0.00    +0.000 A 
ATOM     26  C   UNL     1      -6.098  13.182  21.036  0.00  0.00    +0.000 A 
ATOM     27  C   UNL     1      -5.007  13.897  21.539  0.00  0.00    +0.000 A 
ATOM     28  C   UNL     1      -3.708  13.623  21.087  0.00  0.00    +0.000 A 
ATOM     29  C   UNL     1      -3.512  12.678  20.086  0.00  0.00    +0.000 A 
ATOM     30  O   UNL     1      -2.209  12.362  19.724  0.00  0.00    +0.000 OA
ENDBRANCH  20  21
ENDBRANCH  18  20
ENDBRANCH   4  18
TORSDOF 8
ENDMDL
MODEL 8
REMARK VINA RESULT:      -7.1      6.373      9.395
REMARK  Name = 
REMARK  10 active torsions:
REMARK  status: ('A' for Active; 'I' for Inactive)
REMARK    1  A    between atoms: C_1  and  C_2
REMARK    2  A    between atoms: C_2  and  N_3
REMARK    3  A    between atoms: N_3  and  C_4
REMARK    4  A    between atoms: N_3  and  S_6
REMARK    5  A    between atoms: C_4  and  C_5
REMARK    6  A    between atoms: S_6  and  C_9
REMARK    7  A    between atoms: C_12  and  N_13
REMARK    8  A    between atoms: N_13  and  C_14
REMARK    9  A    between atoms: C_14  and  C_15
REMARK   10  A    between atoms: C_25  and  N_26
REMARK                            x       y       z     vdW  Elec       q    Type
REMARK                         _______ _______ _______ _____ _____    ______ ____
ROOT
ATOM      1  C   UNL     1       2.580   7.194  18.972  0.00  0.00    +0.000 A 
ATOM      2  C   UNL     1       2.511   8.077  17.888  0.00  0.00    +0.000 A 
ATOM      3  C   UNL     1       1.762   9.270  17.995  0.00  0.00    +0.000 A 
ATOM      4  C   UNL     1       1.024   9.603  19.149  0.00  0.00    +0.000 A 
ATOM      5  C   UNL     1       1.186   8.721  20.239  0.00  0.00    +0.000 A 
ATOM      6  C   UNL     1       1.923   7.522  20.158  0.00  0.00    +0.000 A 
ENDROOT
BRANCH   1   7
ATOM      7  S   UNL     1       3.328   5.587  18.774  0.00  0.00    +0.000 S 
ATOM      8  O   UNL     1       4.471   5.546  19.663  0.00  0.00    +0.000 OA
ATOM      9  O   UNL     1       3.488   5.374  17.351  0.00  0.00    +0.000 OA
BRANCH   7  10
ATOM     10  N   UNL     1       2.172   4.454  19.343  0.00  0.00    +0.000 NA
BRANCH  10  12
ATOM     11  C   UNL     1       0.872   2.424  18.641  0.00  0.00    +0.000 C 
ATOM     12  C   UNL     1       1.315   3.837  18.287  0.00  0.00    +0.000 C 
ENDBRANCH  10  12
BRANCH  10  13
ATOM     13  C   UNL     1       2.750   3.471  20.327  0.00  0.00    +0.000 C 
ATOM     14  C   UNL     1       2.122   3.539  21.713  0.00  0.00    +0.000 C 
ENDBRANCH  10  13
ENDBRANCH   7  10
ENDBRANCH   1   7
BRANCH   5  15
ATOM     15  N   UNL     1       0.546   8.990  21.518  0.00  0.00    +0.000 N 
ATOM     16  O   UNL     1       1.048   9.866  22.236  0.00  0.00    +0.000 OA
ATOM     17  O   UNL     1      -0.475   8.338  21.788  0.00  0.00    +0.000 OA
ENDBRANCH   5  15
BRANCH   4  18
ATOM     18  N   UNL     1       0.295  10.829  19.236  0.00  0.00    +0.000 N 
ATOM     19  H   UNL     1      -0.197  10.894  20.139  0.00  0.00    +0.000 HD
BRANCH  18  20
ATOM     20  C   UNL     1      -0.686  11.056  18.155  0.00  0.00    +0.000 C 
BRANCH  20  21
ATOM     21  C   UNL     1      -2.059  11.616  18.577  0.00  0.00    +0.000 C 
ATOM     22  C   UNL     1      -2.260  11.760  20.082  0.00  0.00    +0.000 C 
ATOM     23  O   UNL     1      -3.255  12.793  20.255  0.00  0.00    +0.000 OA
ATOM     24  C   UNL     1      -4.373  12.488  19.508  0.00  0.00    +0.000 A 
ATOM     25  C   UNL     1      -5.539  13.190  19.803  0.00  0.00    +0.000 A 
ATOM     26  C   UNL     1      -6.746  12.767  19.250  0.00  0.00    +0.000 A 
ATOM     27  C   UNL     1      -6.774  11.648  18.413  0.00  0.00    +0.000 A 
ATOM     28  C   UNL     1      -5.581  11.020  18.026  0.00  0.00    +0.000 A 
ATOM     29  C   UNL     1      -4.368  11.477  18.530  0.00  0.00    +0.000 A 
ATOM     30  O   UNL     1      -3.198  10.895  18.057  0.00  0.00    +0.000 OA
ENDBRANCH  20  21
ENDBRANCH  18  20
ENDBRANCH   4  18
TORSDOF 8
ENDMDL
MODEL 9
REMARK VINA RESULT:      -7.1      5.797      8.814
REMARK  Name = 
REMARK  10 active torsions:
REMARK  status: ('A' for Active; 'I' for Inactive)
REMARK    1  A    between atoms: C_1  and  C_2
REMARK    2  A    between atoms: C_2  and  N_3
REMARK    3  A    between atoms: N_3  and  C_4
REMARK    4  A    between atoms: N_3  and  S_6
REMARK    5  A    between atoms: C_4  and  C_5
REMARK    6  A    between atoms: S_6  and  C_9
REMARK    7  A    between atoms: C_12  and  N_13
REMARK    8  A    between atoms: N_13  and  C_14
REMARK    9  A    between atoms: C_14  and  C_15
REMARK   10  A    between atoms: C_25  and  N_26
REMARK                            x       y       z     vdW  Elec       q    Type
REMARK                         _______ _______ _______ _____ _____    ______ ____
ROOT
ATOM      1  C   UNL     1      -0.756  10.533  19.127  0.00  0.00    +0.000 A 
ATOM      2  C   UNL     1       0.065   9.848  18.223  0.00  0.00    +0.000 A 
ATOM      3  C   UNL     1       1.065   8.970  18.701  0.00  0.00    +0.000 A 
ATOM      4  C   UNL     1       1.314   8.779  20.074  0.00  0.00    +0.000 A 
ATOM      5  C   UNL     1       0.413   9.431  20.944  0.00  0.00    +0.000 A 
ATOM      6  C   UNL     1      -0.588  10.316  20.495  0.00  0.00    +0.000 A 
ENDROOT
BRANCH   1   7
ATOM      7  S   UNL     1      -1.860  11.807  18.548  0.00  0.00    +0.000 S 
ATOM      8  O   UNL     1      -1.172  12.502  17.480  0.00  0.00    +0.000 OA
ATOM      9  O   UNL     1      -2.324  12.520  19.719  0.00  0.00    +0.000 OA
BRANCH   7  10
ATOM     10  N   UNL     1      -3.209  10.991  17.869  0.00  0.00    +0.000 NA
BRANCH  10  12
ATOM     11  C   UNL     1      -5.715  11.041  17.994  0.00  0.00    +0.000 C 
ATOM     12  C   UNL     1      -4.440  11.822  17.711  0.00  0.00    +0.000 C 
ENDBRANCH  10  12
BRANCH  10  13
ATOM     13  C   UNL     1      -2.848  10.176  16.655  0.00  0.00    +0.000 C 
ATOM     14  C   UNL     1      -3.138  10.872  15.331  0.00  0.00    +0.000 C 
ENDBRANCH  10  13
ENDBRANCH   7  10
ENDBRANCH   1   7
BRANCH   5  15
ATOM     15  N   UNL     1       0.507   9.254  22.385  0.00  0.00    +0.000 N 
ATOM     16  O   UNL     1       1.632   9.332  22.899  0.00  0.00    +0.000 OA
ATOM     17  O   UNL     1      -0.552   9.059  23.002  0.00  0.00    +0.000 OA
ENDBRANCH   5  15
BRANCH   4  18
ATOM     18  N   UNL     1       2.317   7.866  20.527  0.00  0.00    +0.000 N 
ATOM     19  H   UNL     1       3.250   8.167  20.208  0.00  0.00    +0.000 HD
BRANCH  18  20
ATOM     20  C   UNL     1       2.118   6.461  20.120  0.00  0.00    +0.000 C 
BRANCH  20  21
ATOM     21  C   UNL     1       3.108   5.897  19.082  0.00  0.00    +0.000 C 
ATOM     22  C   UNL     1       2.716   4.549  18.485  0.00  0.00    +0.000 C 
ATOM     23  O   UNL     1       3.360   4.481  17.193  0.00  0.00    +0.000 OA
ATOM     24  C   UNL     1       4.709   4.725  17.336  0.00  0.00    +0.000 A 
ATOM     25  C   UNL     1       5.529   4.383  16.263  0.00  0.00    +0.000 A 
ATOM     26  C   UNL     1       6.912   4.386  16.435  0.00  0.00    +0.000 A 
ATOM     27  C   UNL     1       7.458   4.728  17.676  0.00  0.00    +0.000 A 
ATOM     28  C   UNL     1       6.633   5.186  18.713  0.00  0.00    +0.000 A 
ATOM     29  C   UNL     1       5.256   5.240  18.526  0.00  0.00    +0.000 A 
ATOM     30  O   UNL     1       4.474   5.784  19.537  0.00  0.00    +0.000 OA
ENDBRANCH  20  21
ENDBRANCH  18  20
ENDBRANCH   4  18
TORSDOF 8
ENDMDL
