MODEL 1
REMARK VINA RESULT:      -8.3      0.000      0.000
REMARK  Name = 
REMARK  3 active torsions:
REMARK  status: ('A' for Active; 'I' for Inactive)
REMARK    1  A    between atoms: C_1  and  O_2
REMARK    2  A    between atoms: O_2  and  C_3
REMARK    3  A    between atoms: C_7  and  C_8
REMARK                            x       y       z     vdW  Elec       q    Type
REMARK                         _______ _______ _______ _____ _____    ______ ____
ROOT
ATOM      1  C   UNL     1       3.247   6.183  19.166  0.00  0.00    +0.000 C 
ATOM      2  S   UNL     1       1.898   4.905  19.488  0.00  0.00    +0.000 S 
ATOM      3  C   UNL     1       2.820   3.713  20.509  0.00  0.00    +0.000 C 
ATOM      4  C   UNL     1       3.817   3.042  19.612  0.00  0.00    +0.000 C 
ATOM      5  O   UNL     1       3.525   2.150  18.810  0.00  0.00    +0.000 OA
ATOM      6  N   UNL     1       5.019   3.739  19.605  0.00  0.00    +0.000 N 
ATOM      7  C   UNL     1       5.212   4.573  18.486  0.00  0.00    +0.000 A 
ATOM      8  C   UNL     1       6.283   4.117  17.710  0.00  0.00    +0.000 A 
ATOM      9  C   UNL     1       6.479   4.701  16.498  0.00  0.00    +0.000 A 
ATOM     10  C   UNL     1       5.663   5.716  16.060  0.00  0.00    +0.000 A 
ATOM     11  C   UNL     1       4.611   6.247  16.857  0.00  0.00    +0.000 A 
ATOM     12  C   UNL     1       4.346   5.687  18.131  0.00  0.00    +0.000 A 
ATOM     13  O   UNL     1       6.026   6.087  14.792  0.00  0.00    +0.000 OA
ATOM     14  C   UNL     1       7.111   5.159  14.504  0.00  0.00    +0.000 C 
ATOM     15  O   UNL     1       7.433   4.316  15.615  0.00  0.00    +0.000 OA
ATOM     16  H   UNL     1       5.248   4.201  20.477  0.00  0.00    +0.000 HD
ENDROOT
BRANCH   1  21
ATOM     17  C   UNL     1       0.740   8.950  20.363  0.00  0.00    +0.000 A 
ATOM     18  C   UNL     1       0.523   9.667  19.195  0.00  0.00    +0.000 A 
ATOM     19  C   UNL     1       1.214   9.328  18.033  0.00  0.00    +0.000 A 
ATOM     20  C   UNL     1       2.184   8.289  18.037  0.00  0.00    +0.000 A 
ATOM     21  C   UNL     1       2.460   7.552  19.197  0.00  0.00    +0.000 A 
ATOM     22  C   UNL     1       1.693   7.909  20.366  0.00  0.00    +0.000 A 
BRANCH  17  24
ATOM     23  C   UNL     1       0.579   9.397  22.709  0.00  0.00    +0.000 C 
ATOM     24  O   UNL     1      -0.011   9.390  21.420  0.00  0.00    +0.000 OA
ENDBRANCH  17  24
ENDBRANCH   1  21
TORSDOF 2
ENDMDL
MODEL 2
REMARK VINA RESULT:      -8.2      1.110      1.746
REMARK  Name = 
REMARK  3 active torsions:
REMARK  status: ('A' for Active; 'I' for Inactive)
REMARK    1  A    between atoms: C_1  and  O_2
REMARK    2  A    between atoms: O_2  and  C_3
REMARK    3  A    between atoms: C_7  and  C_8
REMARK                            x       y       z     vdW  Elec       q    Type
REMARK                         _______ _______ _______ _____ _____    ______ ____
ROOT
ATOM      1  C   UNL     1       3.148   5.562  19.395  0.00  0.00    +0.000 C 
ATOM      2  S   UNL     1       1.965   4.113  19.632  0.00  0.00    +0.000 S 
ATOM      3  C   UNL     1       3.050   2.953  20.521  0.00  0.00    +0.000 C 
ATOM      4  C   UNL     1       4.086   2.482  19.545  0.00  0.00    +0.000 C 
ATOM      5  O   UNL     1       3.871   1.634  18.673  0.00  0.00    +0.000 OA
ATOM      6  N   UNL     1       5.201   3.312  19.573  0.00  0.00    +0.000 N 
ATOM      7  C   UNL     1       5.261   4.256  18.529  0.00  0.00    +0.000 A 
ATOM      8  C   UNL     1       6.350   3.997  17.691  0.00  0.00    +0.000 A 
ATOM      9  C   UNL     1       6.438   4.702  16.532  0.00  0.00    +0.000 A 
ATOM     10  C   UNL     1       5.498   5.649  16.205  0.00  0.00    +0.000 A 
ATOM     11  C   UNL     1       4.420   5.983  17.071  0.00  0.00    +0.000 A 
ATOM     12  C   UNL     1       4.261   5.289  18.295  0.00  0.00    +0.000 A 
ATOM     13  O   UNL     1       5.774   6.168  14.967  0.00  0.00    +0.000 OA
ATOM     14  C   UNL     1       6.947   5.400  14.573  0.00  0.00    +0.000 C 
ATOM     15  O   UNL     1       7.400   4.507  15.596  0.00  0.00    +0.000 OA
ATOM     16  H   UNL     1       5.404   3.721  20.477  0.00  0.00    +0.000 HD
ENDROOT
BRANCH   1  21
ATOM     17  C   UNL     1       1.692   9.159  18.827  0.00  0.00    +0.000 A 
ATOM     18  C   UNL     1       1.051   9.403  20.033  0.00  0.00    +0.000 A 
ATOM     19  C   UNL     1       1.013   8.413  21.013  0.00  0.00    +0.000 A 
ATOM     20  C   UNL     1       1.575   7.130  20.776  0.00  0.00    +0.000 A 
ATOM     21  C   UNL     1       2.212   6.822  19.566  0.00  0.00    +0.000 A 
ATOM     22  C   UNL     1       2.265   7.889  18.596  0.00  0.00    +0.000 A 
BRANCH  17  24
ATOM     23  C   UNL     1       1.778  11.528  18.501  0.00  0.00    +0.000 C 
ATOM     24  O   UNL     1       1.656  10.221  17.965  0.00  0.00    +0.000 OA
ENDBRANCH  17  24
ENDBRANCH   1  21
TORSDOF 2
ENDMDL
MODEL 3
REMARK VINA RESULT:      -7.6      4.184      7.221
REMARK  Name = 
REMARK  3 active torsions:
REMARK  status: ('A' for Active; 'I' for Inactive)
REMARK    1  A    between atoms: C_1  and  O_2
REMARK    2  A    between atoms: O_2  and  C_3
REMARK    3  A    between atoms: C_7  and  C_8
REMARK                            x       y       z     vdW  Elec       q    Type
REMARK                         _______ _______ _______ _____ _____    ______ ____
ROOT
ATOM      1  C   UNL     1       6.170   4.429  16.191  0.00  0.00    +0.000 C 
ATOM      2  S   UNL     1       7.022   6.017  16.746  0.00  0.00    +0.000 S 
ATOM      3  C   UNL     1       7.845   5.430  18.260  0.00  0.00    +0.000 C 
ATOM      4  C   UNL     1       6.770   5.165  19.271  0.00  0.00    +0.000 C 
ATOM      5  O   UNL     1       6.197   6.053  19.910  0.00  0.00    +0.000 OA
ATOM      6  N   UNL     1       6.325   3.851  19.183  0.00  0.00    +0.000 N 
ATOM      7  C   UNL     1       5.115   3.684  18.483  0.00  0.00    +0.000 A 
ATOM      8  C   UNL     1       4.108   3.224  19.339  0.00  0.00    +0.000 A 
ATOM      9  C   UNL     1       2.837   3.192  18.859  0.00  0.00    +0.000 A 
ATOM     10  C   UNL     1       2.554   3.580  17.573  0.00  0.00    +0.000 A 
ATOM     11  C   UNL     1       3.566   3.984  16.658  0.00  0.00    +0.000 A 
ATOM     12  C   UNL     1       4.914   4.045  17.086  0.00  0.00    +0.000 A 
ATOM     13  O   UNL     1       1.202   3.516  17.356  0.00  0.00    +0.000 OA
ATOM     14  C   UNL     1       0.707   3.095  18.659  0.00  0.00    +0.000 C 
ATOM     15  O   UNL     1       1.756   2.835  19.597  0.00  0.00    +0.000 OA
ATOM     16  H   UNL     1       7.031   3.181  18.903  0.00  0.00    +0.000 HD
ENDROOT
BRANCH   1  21
ATOM     17  C   UNL     1       5.755   3.377  12.436  0.00  0.00    +0.000 A 
ATOM     18  C   UNL     1       6.801   4.056  11.830  0.00  0.00    +0.000 A 
ATOM     19  C   UNL     1       7.608   4.906  12.584  0.00  0.00    +0.000 A 
ATOM     20  C   UNL     1       7.343   5.132  13.963  0.00  0.00    +0.000 A 
ATOM     21  C   UNL     1       6.283   4.490  14.618  0.00  0.00    +0.000 A 
ATOM     22  C   UNL     1       5.499   3.589  13.808  0.00  0.00    +0.000 A 
BRANCH  17  24
ATOM     23  C   UNL     1       3.867   3.088  10.994  0.00  0.00    +0.000 C 
ATOM     24  O   UNL     1       5.054   2.576  11.576  0.00  0.00    +0.000 OA
ENDBRANCH  17  24
ENDBRANCH   1  21
TORSDOF 2
ENDMDL
MODEL 4
REMARK VINA RESULT:      -7.2      4.460      8.643
REMARK  Name = 
REMARK  3 active torsions:
REMARK  status: ('A' for Active; 'I' for Inactive)
REMARK    1  A    between atoms: C_1  and  O_2
REMARK    2  A    between atoms: O_2  and  C_3
REMARK    3  A    between atoms: C_7  and  C_8
REMARK                            x       y       z     vdW  Elec       q    Type
REMARK                         _______ _______ _______ _____ _____    ______ ____
ROOT
ATOM      1  C   UNL     1       0.044  10.242  19.807  0.00  0.00    +0.000 C 
ATOM      2  S   UNL     1       1.100  11.761  20.174  0.00  0.00    +0.000 S 
ATOM      3  C   UNL     1      -0.070  12.734  21.172  0.00  0.00    +0.000 C 
ATOM      4  C   UNL     1      -1.156  13.201  20.248  0.00  0.00    +0.000 C 
ATOM      5  O   UNL     1      -1.026  14.142  19.459  0.00  0.00    +0.000 OA
ATOM      6  N   UNL     1      -2.193  12.277  20.203  0.00  0.00    +0.000 N 
ATOM      7  C   UNL     1      -2.184  11.433  19.076  0.00  0.00    +0.000 A 
ATOM      8  C   UNL     1      -3.302  11.673  18.270  0.00  0.00    +0.000 A 
ATOM      9  C   UNL     1      -3.343  11.073  17.051  0.00  0.00    +0.000 A 
ATOM     10  C   UNL     1      -2.329  10.246  16.633  0.00  0.00    +0.000 A 
ATOM     11  C   UNL     1      -1.214   9.929  17.459  0.00  0.00    +0.000 A 
ATOM     12  C   UNL     1      -1.102  10.518  18.742  0.00  0.00    +0.000 A 
ATOM     13  O   UNL     1      -2.574   9.822  15.353  0.00  0.00    +0.000 OA
ATOM     14  C   UNL     1      -3.814  10.518  15.038  0.00  0.00    +0.000 C 
ATOM     15  O   UNL     1      -4.329  11.269  16.141  0.00  0.00    +0.000 OA
ATOM     16  H   UNL     1      -2.349  11.771  21.067  0.00  0.00    +0.000 HD
ENDROOT
BRANCH   1  21
ATOM     17  C   UNL     1       2.582   7.530  18.548  0.00  0.00    +0.000 A 
ATOM     18  C   UNL     1       2.558   6.610  19.586  0.00  0.00    +0.000 A 
ATOM     19  C   UNL     1       1.794   6.865  20.723  0.00  0.00    +0.000 A 
ATOM     20  C   UNL     1       1.077   8.084  20.864  0.00  0.00    +0.000 A 
ATOM     21  C   UNL     1       1.088   9.058  19.856  0.00  0.00    +0.000 A 
ATOM     22  C   UNL     1       1.859   8.736  18.680  0.00  0.00    +0.000 A 
BRANCH  17  24
ATOM     23  C   UNL     1       3.984   5.869  17.548  0.00  0.00    +0.000 C 
ATOM     24  O   UNL     1       3.368   7.145  17.496  0.00  0.00    +0.000 OA
ENDBRANCH  17  24
ENDBRANCH   1  21
TORSDOF 2
ENDMDL
MODEL 5
REMARK VINA RESULT:      -7.1      3.467      4.226
REMARK  Name = 
REMARK  3 active torsions:
REMARK  status: ('A' for Active; 'I' for Inactive)
REMARK    1  A    between atoms: C_1  and  O_2
REMARK    2  A    between atoms: O_2  and  C_3
REMARK    3  A    between atoms: C_7  and  C_8
REMARK                            x       y       z     vdW  Elec       q    Type
REMARK                         _______ _______ _______ _____ _____    ______ ____
ROOT
ATOM      1  C   UNL     1       4.683   4.918  17.843  0.00  0.00    +0.000 C 
ATOM      2  S   UNL     1       5.660   4.168  19.271  0.00  0.00    +0.000 S 
ATOM      3  C   UNL     1       7.000   5.390  19.423  0.00  0.00    +0.000 C 
ATOM      4  C   UNL     1       7.869   5.245  18.210  0.00  0.00    +0.000 C 
ATOM      5  O   UNL     1       8.694   4.338  18.063  0.00  0.00    +0.000 OA
ATOM      6  N   UNL     1       7.428   6.077  17.187  0.00  0.00    +0.000 N 
ATOM      7  C   UNL     1       6.665   5.436  16.192  0.00  0.00    +0.000 A 
ATOM      8  C   UNL     1       7.336   5.455  14.965  0.00  0.00    +0.000 A 
ATOM      9  C   UNL     1       6.818   4.715  13.950  0.00  0.00    +0.000 A 
ATOM     10  C   UNL     1       5.666   3.987  14.118  0.00  0.00    +0.000 A 
ATOM     11  C   UNL     1       4.924   4.004  15.333  0.00  0.00    +0.000 A 
ATOM     12  C   UNL     1       5.403   4.751  16.436  0.00  0.00    +0.000 A 
ATOM     13  O   UNL     1       5.391   3.282  12.975  0.00  0.00    +0.000 OA
ATOM     14  C   UNL     1       6.522   3.631  12.127  0.00  0.00    +0.000 C 
ATOM     15  O   UNL     1       7.399   4.587  12.731  0.00  0.00    +0.000 OA
ATOM     16  H   UNL     1       7.011   6.946  17.496  0.00  0.00    +0.000 HD
ENDROOT
BRANCH   1  21
ATOM     17  C   UNL     1       1.601   3.833  20.011  0.00  0.00    +0.000 A 
ATOM     18  C   UNL     1       0.679   3.470  19.039  0.00  0.00    +0.000 A 
ATOM     19  C   UNL     1       0.993   3.626  17.691  0.00  0.00    +0.000 A 
ATOM     20  C   UNL     1       2.229   4.204  17.290  0.00  0.00    +0.000 A 
ATOM     21  C   UNL     1       3.184   4.611  18.232  0.00  0.00    +0.000 A 
ATOM     22  C   UNL     1       2.834   4.395  19.615  0.00  0.00    +0.000 A 
BRANCH  17  24
ATOM     23  C   UNL     1       1.603   2.458  21.969  0.00  0.00    +0.000 C 
ATOM     24  O   UNL     1       1.159   3.619  21.288  0.00  0.00    +0.000 OA
ENDBRANCH  17  24
ENDBRANCH   1  21
TORSDOF 2
ENDMDL
MODEL 6
REMARK VINA RESULT:      -6.9      2.472      3.613
REMARK  Name = 
REMARK  3 active torsions:
REMARK  status: ('A' for Active; 'I' for Inactive)
REMARK    1  A    between atoms: C_1  and  O_2
REMARK    2  A    between atoms: O_2  and  C_3
REMARK    3  A    between atoms: C_7  and  C_8
REMARK                            x       y       z     vdW  Elec       q    Type
REMARK                         _______ _______ _______ _____ _____    ______ ____
ROOT
ATOM      1  C   UNL     1       4.805   5.198  17.983  0.00  0.00    +0.000 C 
ATOM      2  S   UNL     1       5.777   4.366  19.369  0.00  0.00    +0.000 S 
ATOM      3  C   UNL     1       7.281   5.391  19.370  0.00  0.00    +0.000 C 
ATOM      4  C   UNL     1       8.024   5.082  18.105  0.00  0.00    +0.000 C 
ATOM      5  O   UNL     1       8.702   4.063  17.939  0.00  0.00    +0.000 OA
ATOM      6  N   UNL     1       7.625   5.933  17.080  0.00  0.00    +0.000 N 
ATOM      7  C   UNL     1       6.705   5.373  16.172  0.00  0.00    +0.000 A 
ATOM      8  C   UNL     1       7.276   5.255  14.901  0.00  0.00    +0.000 A 
ATOM      9  C   UNL     1       6.583   4.561  13.959  0.00  0.00    +0.000 A 
ATOM     10  C   UNL     1       5.357   4.011  14.243  0.00  0.00    +0.000 A 
ATOM     11  C   UNL     1       4.722   4.174  15.505  0.00  0.00    +0.000 A 
ATOM     12  C   UNL     1       5.383   4.883  16.537  0.00  0.00    +0.000 A 
ATOM     13  O   UNL     1       4.900   3.314  13.155  0.00  0.00    +0.000 OA
ATOM     14  C   UNL     1       5.999   3.469  12.213  0.00  0.00    +0.000 C 
ATOM     15  O   UNL     1       7.044   4.311  12.708  0.00  0.00    +0.000 OA
ATOM     16  H   UNL     1       7.358   6.863  17.380  0.00  0.00    +0.000 HD
ENDROOT
BRANCH   1  21
ATOM     17  C   UNL     1       1.646   5.866  20.207  0.00  0.00    +0.000 A 
ATOM     18  C   UNL     1       0.866   4.748  19.943  0.00  0.00    +0.000 A 
ATOM     19  C   UNL     1       1.297   3.806  19.011  0.00  0.00    +0.000 A 
ATOM     20  C   UNL     1       2.502   3.997  18.282  0.00  0.00    +0.000 A 
ATOM     21  C   UNL     1       3.313   5.120  18.492  0.00  0.00    +0.000 A 
ATOM     22  C   UNL     1       2.850   6.050  19.494  0.00  0.00    +0.000 A 
BRANCH  17  24
ATOM     23  C   UNL     1       1.334   8.093  21.026  0.00  0.00    +0.000 C 
ATOM     24  O   UNL     1       1.102   6.699  21.147  0.00  0.00    +0.000 OA
ENDBRANCH  17  24
ENDBRANCH   1  21
TORSDOF 2
ENDMDL
MODEL 7
REMARK VINA RESULT:      -6.7      2.044      6.159
REMARK  Name = 
REMARK  3 active torsions:
REMARK  status: ('A' for Active; 'I' for Inactive)
REMARK    1  A    between atoms: C_1  and  O_2
REMARK    2  A    between atoms: O_2  and  C_3
REMARK    3  A    between atoms: C_7  and  C_8
REMARK                            x       y       z     vdW  Elec       q    Type
REMARK                         _______ _______ _______ _____ _____    ______ ____
ROOT
ATOM      1  C   UNL     1       3.763   4.090  18.477  0.00  0.00    +0.000 C 
ATOM      2  S   UNL     1       4.643   2.888  19.632  0.00  0.00    +0.000 S 
ATOM      3  C   UNL     1       3.245   1.833  20.128  0.00  0.00    +0.000 C 
ATOM      4  C   UNL     1       2.354   2.665  21.001  0.00  0.00    +0.000 C 
ATOM      5  O   UNL     1       2.599   2.920  22.185  0.00  0.00    +0.000 OA
ATOM      6  N   UNL     1       1.395   3.322  20.240  0.00  0.00    +0.000 N 
ATOM      7  C   UNL     1       1.679   4.675  19.972  0.00  0.00    +0.000 A 
ATOM      8  C   UNL     1       0.743   5.509  20.592  0.00  0.00    +0.000 A 
ATOM      9  C   UNL     1       0.986   6.847  20.586  0.00  0.00    +0.000 A 
ATOM     10  C   UNL     1       2.103   7.362  19.976  0.00  0.00    +0.000 A 
ATOM     11  C   UNL     1       3.036   6.545  19.278  0.00  0.00    +0.000 A 
ATOM     12  C   UNL     1       2.850   5.141  19.243  0.00  0.00    +0.000 A 
ATOM     13  O   UNL     1       2.151   8.718  20.164  0.00  0.00    +0.000 OA
ATOM     14  C   UNL     1       0.971   8.950  20.986  0.00  0.00    +0.000 C 
ATOM     15  O   UNL     1       0.201   7.763  21.205  0.00  0.00    +0.000 OA
ATOM     16  H   UNL     1       1.088   2.819  19.416  0.00  0.00    +0.000 HD
ENDROOT
BRANCH   1  21
ATOM     17  C   UNL     1       6.682   5.808  16.502  0.00  0.00    +0.000 A 
ATOM     18  C   UNL     1       6.460   5.357  15.209  0.00  0.00    +0.000 A 
ATOM     19  C   UNL     1       5.429   4.453  14.956  0.00  0.00    +0.000 A 
ATOM     20  C   UNL     1       4.630   3.941  16.014  0.00  0.00    +0.000 A 
ATOM     21  C   UNL     1       4.830   4.346  17.341  0.00  0.00    +0.000 A 
ATOM     22  C   UNL     1       5.881   5.312  17.552  0.00  0.00    +0.000 A 
BRANCH  17  24
ATOM     23  C   UNL     1       7.636   7.730  17.563  0.00  0.00    +0.000 C 
ATOM     24  O   UNL     1       7.721   6.694  16.599  0.00  0.00    +0.000 OA
ENDBRANCH  17  24
ENDBRANCH   1  21
TORSDOF 2
ENDMDL
MODEL 8
REMARK VINA RESULT:      -6.6      3.567      7.667
REMARK  Name = 
REMARK  3 active torsions:
REMARK  status: ('A' for Active; 'I' for Inactive)
REMARK    1  A    between atoms: C_1  and  O_2
REMARK    2  A    between atoms: O_2  and  C_3
REMARK    3  A    between atoms: C_7  and  C_8
REMARK                            x       y       z     vdW  Elec       q    Type
REMARK                         _______ _______ _______ _____ _____    ______ ____
ROOT
ATOM      1  C   UNL     1       1.103   9.126  19.659  0.00  0.00    +0.000 C 
ATOM      2  S   UNL     1       1.163   8.628  21.477  0.00  0.00    +0.000 S 
ATOM      3  C   UNL     1      -0.527   9.068  21.989  0.00  0.00    +0.000 C 
ATOM      4  C   UNL     1      -0.617  10.565  21.975  0.00  0.00    +0.000 C 
ATOM      5  O   UNL     1      -0.146  11.287  22.859  0.00  0.00    +0.000 OA
ATOM      6  N   UNL     1      -1.035  11.020  20.730  0.00  0.00    +0.000 N 
ATOM      7  C   UNL     1      -0.004  11.500  19.900  0.00  0.00    +0.000 A 
ATOM      8  C   UNL     1      -0.153  12.871  19.668  0.00  0.00    +0.000 A 
ATOM      9  C   UNL     1       0.863  13.521  19.042  0.00  0.00    +0.000 A 
ATOM     10  C   UNL     1       1.990  12.850  18.634  0.00  0.00    +0.000 A 
ATOM     11  C   UNL     1       2.138  11.443  18.793  0.00  0.00    +0.000 A 
ATOM     12  C   UNL     1       1.122  10.699  19.439  0.00  0.00    +0.000 A 
ATOM     13  O   UNL     1       2.885  13.733  18.091  0.00  0.00    +0.000 OA
ATOM     14  C   UNL     1       2.194  15.004  18.259  0.00  0.00    +0.000 C 
ATOM     15  O   UNL     1       0.883  14.858  18.814  0.00  0.00    +0.000 OA
ATOM     16  H   UNL     1      -1.670  10.400  20.242  0.00  0.00    +0.000 HD
ENDROOT
BRANCH   1  21
ATOM     17  C   UNL     1       3.379   5.960  19.240  0.00  0.00    +0.000 A 
ATOM     18  C   UNL     1       4.021   6.225  18.039  0.00  0.00    +0.000 A 
ATOM     19  C   UNL     1       3.696   7.369  17.314  0.00  0.00    +0.000 A 
ATOM     20  C   UNL     1       2.672   8.250  17.760  0.00  0.00    +0.000 A 
ATOM     21  C   UNL     1       1.976   8.015  18.953  0.00  0.00    +0.000 A 
ATOM     22  C   UNL     1       2.372   6.841  19.692  0.00  0.00    +0.000 A 
BRANCH  17  24
ATOM     23  C   UNL     1       4.590   3.902  19.087  0.00  0.00    +0.000 C 
ATOM     24  O   UNL     1       3.804   4.808  19.843  0.00  0.00    +0.000 OA
ENDBRANCH  17  24
ENDBRANCH   1  21
TORSDOF 2
ENDMDL
MODEL 9
REMARK VINA RESULT:      -6.5      4.430      9.003
REMARK  Name = 
REMARK  3 active torsions:
REMARK  status: ('A' for Active; 'I' for Inactive)
REMARK    1  A    between atoms: C_1  and  O_2
REMARK    2  A    between atoms: O_2  and  C_3
REMARK    3  A    between atoms: C_7  and  C_8
REMARK                            x       y       z     vdW  Elec       q    Type
REMARK                         _______ _______ _______ _____ _____    ______ ____
ROOT
ATOM      1  C   UNL     1       0.547  10.537  19.334  0.00  0.00    +0.000 C 
ATOM      2  S   UNL     1       1.811  11.868  18.901  0.00  0.00    +0.000 S 
ATOM      3  C   UNL     1       1.551  13.024  20.283  0.00  0.00    +0.000 C 
ATOM      4  C   UNL     1       0.205  13.654  20.083  0.00  0.00    +0.000 C 
ATOM      5  O   UNL     1      -0.013  14.557  19.268  0.00  0.00    +0.000 OA
ATOM      6  N   UNL     1      -0.785  12.911  20.714  0.00  0.00    +0.000 N 
ATOM      7  C   UNL     1      -1.526  12.070  19.861  0.00  0.00    +0.000 A 
ATOM      8  C   UNL     1      -2.861  12.483  19.798  0.00  0.00    +0.000 A 
ATOM      9  C   UNL     1      -3.662  11.890  18.874  0.00  0.00    +0.000 A 
ATOM     10  C   UNL     1      -3.182  10.908  18.043  0.00  0.00    +0.000 A 
ATOM     11  C   UNL     1      -1.849  10.419  18.133  0.00  0.00    +0.000 A 
ATOM     12  C   UNL     1      -0.954  10.989  19.070  0.00  0.00    +0.000 A 
ATOM     13  O   UNL     1      -4.162  10.522  17.166  0.00  0.00    +0.000 OA
ATOM     14  C   UNL     1      -5.259  11.407  17.531  0.00  0.00    +0.000 C 
ATOM     15  O   UNL     1      -4.955  12.238  18.656  0.00  0.00    +0.000 OA
ATOM     16  H   UNL     1      -0.489  12.441  21.561  0.00  0.00    +0.000 HD
ENDROOT
BRANCH   1  21
ATOM     17  C   UNL     1       2.285   7.038  19.659  0.00  0.00    +0.000 A 
ATOM     18  C   UNL     1       3.047   6.986  18.500  0.00  0.00    +0.000 A 
ATOM     19  C   UNL     1       2.970   8.023  17.572  0.00  0.00    +0.000 A 
ATOM     20  C   UNL     1       2.079   9.113  17.766  0.00  0.00    +0.000 A 
ATOM     21  C   UNL     1       1.269   9.201  18.907  0.00  0.00    +0.000 A 
ATOM     22  C   UNL     1       1.410   8.127  19.860  0.00  0.00    +0.000 A 
BRANCH  17  24
ATOM     23  C   UNL     1       3.109   4.810  19.949  0.00  0.00    +0.000 C 
ATOM     24  O   UNL     1       2.466   5.957  20.479  0.00  0.00    +0.000 OA
ENDBRANCH  17  24
ENDBRANCH   1  21
TORSDOF 2
ENDMDL
