MODEL 1
REMARK VINA RESULT:      -7.6      0.000      0.000
REMARK  Name = 
REMARK  1 active torsions:
REMARK  status: ('A' for Active; 'I' for Inactive)
REMARK    1  A    between atoms: N_16  and  C_17
REMARK                            x       y       z     vdW  Elec       q    Type
REMARK                         _______ _______ _______ _____ _____    ______ ____
ROOT
ATOM      1  O   UNL     1       2.909   8.616  17.049  0.00  0.00    +0.000 OA
ATOM      2  C   UNL     1       2.319   8.397  18.102  0.00  0.00    +0.000 C 
ATOM      3  C   UNL     1       1.672   9.552  18.753  0.00  0.00    +0.000 A 
ATOM      4  C   UNL     1       1.634  10.774  18.066  0.00  0.00    +0.000 A 
ATOM      5  C   UNL     1       1.047  11.885  18.652  0.00  0.00    +0.000 A 
ATOM      6  C   UNL     1       0.503  11.781  19.930  0.00  0.00    +0.000 A 
ATOM      7  C   UNL     1       0.524  10.560  20.649  0.00  0.00    +0.000 A 
ATOM      8  C   UNL     1      -0.013  10.405  21.950  0.00  0.00    +0.000 A 
ATOM      9 CL   UNL     1      -0.766  11.715  22.797  0.00  0.00    +0.000 Cl
ATOM     10  C   UNL     1       0.042   9.175  22.610  0.00  0.00    +0.000 A 
ATOM     11  C   UNL     1       0.620   8.074  21.984  0.00  0.00    +0.000 A 
ATOM     12  C   UNL     1       1.150   8.198  20.693  0.00  0.00    +0.000 A 
ATOM     13  C   UNL     1       1.117   9.427  20.028  0.00  0.00    +0.000 A 
ATOM     14  C   UNL     1       1.721   7.000  20.023  0.00  0.00    +0.000 C 
ATOM     15  O   UNL     1       1.712   5.934  20.636  0.00  0.00    +0.000 OA
ATOM     16  N   UNL     1       2.236   7.158  18.730  0.00  0.00    +0.000 N 
ENDROOT
BRANCH  16  17
ATOM     17  C   UNL     1       2.735   5.938  18.047  0.00  0.00    +0.000 C 
ATOM     18  C   UNL     1       2.144   4.586  18.534  0.00  0.00    +0.000 C 
ATOM     19  N   UNL     1       3.196   3.550  18.730  0.00  0.00    +0.000 NA
ATOM     20  C   UNL     1       3.948   3.372  17.470  0.00  0.00    +0.000 C 
ATOM     21  C   UNL     1       4.613   4.679  17.005  0.00  0.00    +0.000 C 
ATOM     22  C   UNL     1       4.286   5.810  18.009  0.00  0.00    +0.000 C 
ATOM     23  C   UNL     1       4.851   5.321  19.354  0.00  0.00    +0.000 C 
ATOM     24  C   UNL     1       4.132   4.027  19.776  0.00  0.00    +0.000 C 
ENDBRANCH  16  17
TORSDOF 1
ENDMDL
MODEL 2
REMARK VINA RESULT:      -7.3      0.610      2.765
REMARK  Name = 
REMARK  1 active torsions:
REMARK  status: ('A' for Active; 'I' for Inactive)
REMARK    1  A    between atoms: N_16  and  C_17
REMARK                            x       y       z     vdW  Elec       q    Type
REMARK                         _______ _______ _______ _____ _____    ______ ____
ROOT
ATOM      1  O   UNL     1       1.499   6.008  20.491  0.00  0.00    +0.000 OA
ATOM      2  C   UNL     1       1.673   7.095  19.948  0.00  0.00    +0.000 C 
ATOM      3  C   UNL     1       1.227   8.288  20.693  0.00  0.00    +0.000 A 
ATOM      4  C   UNL     1       0.786   8.128  22.014  0.00  0.00    +0.000 A 
ATOM      5  C   UNL     1       0.347   9.225  22.740  0.00  0.00    +0.000 A 
ATOM      6  C   UNL     1       0.338  10.484  22.145  0.00  0.00    +0.000 A 
ATOM      7  C   UNL     1       0.778  10.678  20.812  0.00  0.00    +0.000 A 
ATOM      8  C   UNL     1       0.786  11.937  20.162  0.00  0.00    +0.000 A 
ATOM      9 CL   UNL     1       0.255  13.384  20.954  0.00  0.00    +0.000 Cl
ATOM     10  C   UNL     1       1.229  12.065  18.844  0.00  0.00    +0.000 A 
ATOM     11  C   UNL     1       1.684  10.946  18.151  0.00  0.00    +0.000 A 
ATOM     12  C   UNL     1       1.696   9.690  18.773  0.00  0.00    +0.000 A 
ATOM     13  C   UNL     1       1.239   9.545  20.087  0.00  0.00    +0.000 A 
ATOM     14  C   UNL     1       2.229   8.517  18.033  0.00  0.00    +0.000 C 
ATOM     15  O   UNL     1       2.638   8.692  16.887  0.00  0.00    +0.000 OA
ATOM     16  N   UNL     1       2.232   7.278  18.687  0.00  0.00    +0.000 N 
ENDROOT
BRANCH  16  17
ATOM     17  C   UNL     1       2.835   6.132  17.962  0.00  0.00    +0.000 C 
ATOM     18  C   UNL     1       2.185   4.742  18.211  0.00  0.00    +0.000 C 
ATOM     19  N   UNL     1       3.201   3.681  18.453  0.00  0.00    +0.000 NA
ATOM     20  C   UNL     1       4.135   3.627  17.309  0.00  0.00    +0.000 C 
ATOM     21  C   UNL     1       4.856   4.969  17.089  0.00  0.00    +0.000 C 
ATOM     22  C   UNL     1       4.376   5.992  18.145  0.00  0.00    +0.000 C 
ATOM     23  C   UNL     1       4.734   5.360  19.501  0.00  0.00    +0.000 C 
ATOM     24  C   UNL     1       3.966   4.036  19.672  0.00  0.00    +0.000 C 
ENDBRANCH  16  17
TORSDOF 1
ENDMDL
MODEL 3
REMARK VINA RESULT:      -7.3      2.868      6.313
REMARK  Name = 
REMARK  1 active torsions:
REMARK  status: ('A' for Active; 'I' for Inactive)
REMARK    1  A    between atoms: N_16  and  C_17
REMARK                            x       y       z     vdW  Elec       q    Type
REMARK                         _______ _______ _______ _____ _____    ______ ____
ROOT
ATOM      1  O   UNL     1       1.863   9.848  17.496  0.00  0.00    +0.000 OA
ATOM      2  C   UNL     1       1.841   9.009  18.391  0.00  0.00    +0.000 C 
ATOM      3  C   UNL     1       2.732   7.844  18.230  0.00  0.00    +0.000 A 
ATOM      4  C   UNL     1       3.646   7.840  17.167  0.00  0.00    +0.000 A 
ATOM      5  C   UNL     1       4.489   6.756  16.977  0.00  0.00    +0.000 A 
ATOM      6  C   UNL     1       4.416   5.668  17.843  0.00  0.00    +0.000 A 
ATOM      7  C   UNL     1       3.503   5.642  18.926  0.00  0.00    +0.000 A 
ATOM      8  C   UNL     1       3.388   4.558  19.831  0.00  0.00    +0.000 A 
ATOM      9 CL   UNL     1       4.375   3.141  19.700  0.00  0.00    +0.000 Cl
ATOM     10  C   UNL     1       2.465   4.589  20.879  0.00  0.00    +0.000 A 
ATOM     11  C   UNL     1       1.648   5.703  21.055  0.00  0.00    +0.000 A 
ATOM     12  C   UNL     1       1.748   6.793  20.179  0.00  0.00    +0.000 A 
ATOM     13  C   UNL     1       2.655   6.768  19.116  0.00  0.00    +0.000 A 
ATOM     14  C   UNL     1       0.901   7.992  20.411  0.00  0.00    +0.000 C 
ATOM     15  O   UNL     1       0.131   7.980  21.369  0.00  0.00    +0.000 OA
ATOM     16  N   UNL     1       1.031   9.066  19.521  0.00  0.00    +0.000 N 
ENDROOT
BRANCH  16  17
ATOM     17  C   UNL     1       0.232  10.284  19.808  0.00  0.00    +0.000 C 
ATOM     18  C   UNL     1      -0.344  11.035  18.576  0.00  0.00    +0.000 C 
ATOM     19  N   UNL     1      -0.137  12.507  18.668  0.00  0.00    +0.000 NA
ATOM     20  C   UNL     1      -0.741  13.009  19.919  0.00  0.00    +0.000 C 
ATOM     21  C   UNL     1      -0.132  12.340  21.164  0.00  0.00    +0.000 C 
ATOM     22  C   UNL     1       0.946  11.321  20.725  0.00  0.00    +0.000 C 
ATOM     23  C   UNL     1       1.983  12.150  19.948  0.00  0.00    +0.000 C 
ATOM     24  C   UNL     1       1.320  12.773  18.706  0.00  0.00    +0.000 C 
ENDBRANCH  16  17
TORSDOF 1
ENDMDL
MODEL 4
REMARK VINA RESULT:      -7.3      2.823      6.285
REMARK  Name = 
REMARK  1 active torsions:
REMARK  status: ('A' for Active; 'I' for Inactive)
REMARK    1  A    between atoms: N_16  and  C_17
REMARK                            x       y       z     vdW  Elec       q    Type
REMARK                         _______ _______ _______ _____ _____    ______ ____
ROOT
ATOM      1  O   UNL     1       2.794   8.962  17.223  0.00  0.00    +0.000 OA
ATOM      2  C   UNL     1       2.656   8.165  18.147  0.00  0.00    +0.000 C 
ATOM      3  C   UNL     1       3.293   6.844  17.985  0.00  0.00    +0.000 A 
ATOM      4  C   UNL     1       4.133   6.636  16.881  0.00  0.00    +0.000 A 
ATOM      5  C   UNL     1       4.737   5.403  16.689  0.00  0.00    +0.000 A 
ATOM      6  C   UNL     1       4.498   4.371  17.594  0.00  0.00    +0.000 A 
ATOM      7  C   UNL     1       3.655   4.551  18.718  0.00  0.00    +0.000 A 
ATOM      8  C   UNL     1       3.378   3.534  19.665  0.00  0.00    +0.000 A 
ATOM      9 CL   UNL     1       4.063   1.947  19.536  0.00  0.00    +0.000 Cl
ATOM     10  C   UNL     1       2.536   3.771  20.753  0.00  0.00    +0.000 A 
ATOM     11  C   UNL     1       1.962   5.028  20.927  0.00  0.00    +0.000 A 
ATOM     12  C   UNL     1       2.226   6.055  20.012  0.00  0.00    +0.000 A 
ATOM     13  C   UNL     1       3.055   5.826  18.909  0.00  0.00    +0.000 A 
ATOM     14  C   UNL     1       1.642   7.403  20.241  0.00  0.00    +0.000 C 
ATOM     15  O   UNL     1       0.935   7.565  21.234  0.00  0.00    +0.000 OA
ATOM     16  N   UNL     1       1.933   8.407  19.310  0.00  0.00    +0.000 N 
ENDROOT
BRANCH  16  17
ATOM     17  C   UNL     1       1.402   9.765  19.593  0.00  0.00    +0.000 C 
ATOM     18  C   UNL     1       0.323   9.865  20.706  0.00  0.00    +0.000 C 
ATOM     19  N   UNL     1      -0.827  10.718  20.300  0.00  0.00    +0.000 NA
ATOM     20  C   UNL     1      -0.333  12.060  19.925  0.00  0.00    +0.000 C 
ATOM     21  C   UNL     1       0.679  12.000  18.767  0.00  0.00    +0.000 C 
ATOM     22  C   UNL     1       0.884  10.528  18.337  0.00  0.00    +0.000 C 
ATOM     23  C   UNL     1      -0.512  10.041  17.911  0.00  0.00    +0.000 C 
ATOM     24  C   UNL     1      -1.470  10.103  19.114  0.00  0.00    +0.000 C 
ENDBRANCH  16  17
TORSDOF 1
ENDMDL
MODEL 5
REMARK VINA RESULT:      -7.2      3.019      6.833
REMARK  Name = 
REMARK  1 active torsions:
REMARK  status: ('A' for Active; 'I' for Inactive)
REMARK    1  A    between atoms: N_16  and  C_17
REMARK                            x       y       z     vdW  Elec       q    Type
REMARK                         _______ _______ _______ _____ _____    ______ ____
ROOT
ATOM      1  O   UNL     1       1.014   7.202  21.301  0.00  0.00    +0.000 OA
ATOM      2  C   UNL     1       1.620   6.850  20.293  0.00  0.00    +0.000 C 
ATOM      3  C   UNL     1       1.769   5.398  20.081  0.00  0.00    +0.000 A 
ATOM      4  C   UNL     1       1.089   4.522  20.939  0.00  0.00    +0.000 A 
ATOM      5  C   UNL     1       1.216   3.151  20.779  0.00  0.00    +0.000 A 
ATOM      6  C   UNL     1       2.031   2.650  19.766  0.00  0.00    +0.000 A 
ATOM      7  C   UNL     1       2.730   3.509  18.883  0.00  0.00    +0.000 A 
ATOM      8  C   UNL     1       3.573   3.049  17.841  0.00  0.00    +0.000 A 
ATOM      9 CL   UNL     1       3.824   1.362  17.539  0.00  0.00    +0.000 Cl
ATOM     10  C   UNL     1       4.239   3.946  17.004  0.00  0.00    +0.000 A 
ATOM     11  C   UNL     1       4.072   5.318  17.179  0.00  0.00    +0.000 A 
ATOM     12  C   UNL     1       3.237   5.800  18.197  0.00  0.00    +0.000 A 
ATOM     13  C   UNL     1       2.577   4.913  19.052  0.00  0.00    +0.000 A 
ATOM     14  C   UNL     1       3.034   7.265  18.338  0.00  0.00    +0.000 C 
ATOM     15  O   UNL     1       3.619   8.009  17.552  0.00  0.00    +0.000 OA
ATOM     16  N   UNL     1       2.189   7.712  19.360  0.00  0.00    +0.000 N 
ENDROOT
BRANCH  16  17
ATOM     17  C   UNL     1       1.939   9.174  19.442  0.00  0.00    +0.000 C 
ATOM     18  C   UNL     1       1.022   9.651  20.603  0.00  0.00    +0.000 C 
ATOM     19  N   UNL     1       0.002  10.634  20.145  0.00  0.00    +0.000 NA
ATOM     20  C   UNL     1       0.678  11.780  19.505  0.00  0.00    +0.000 C 
ATOM     21  C   UNL     1       1.531  11.347  18.299  0.00  0.00    +0.000 C 
ATOM     22  C   UNL     1       1.427   9.814  18.118  0.00  0.00    +0.000 C 
ATOM     23  C   UNL     1      -0.070   9.542  17.894  0.00  0.00    +0.000 C 
ATOM     24  C   UNL     1      -0.865   9.974  19.140  0.00  0.00    +0.000 C 
ENDBRANCH  16  17
TORSDOF 1
ENDMDL
MODEL 6
REMARK VINA RESULT:      -7.1      1.232      1.999
REMARK  Name = 
REMARK  1 active torsions:
REMARK  status: ('A' for Active; 'I' for Inactive)
REMARK    1  A    between atoms: N_16  and  C_17
REMARK                            x       y       z     vdW  Elec       q    Type
REMARK                         _______ _______ _______ _____ _____    ______ ____
ROOT
ATOM      1  O   UNL     1       3.670   6.783  17.683  0.00  0.00    +0.000 OA
ATOM      2  C   UNL     1       2.867   6.949  18.596  0.00  0.00    +0.000 C 
ATOM      3  C   UNL     1       2.230   8.277  18.688  0.00  0.00    +0.000 A 
ATOM      4  C   UNL     1       2.454   9.200  17.656  0.00  0.00    +0.000 A 
ATOM      5  C   UNL     1       1.883  10.462  17.715  0.00  0.00    +0.000 A 
ATOM      6  C   UNL     1       1.094  10.810  18.809  0.00  0.00    +0.000 A 
ATOM      7  C   UNL     1       0.849   9.899  19.866  0.00  0.00    +0.000 A 
ATOM      8  C   UNL     1       0.058  10.205  21.000  0.00  0.00    +0.000 A 
ATOM      9 CL   UNL     1      -0.704  11.748  21.200  0.00  0.00    +0.000 Cl
ATOM     10  C   UNL     1      -0.145   9.265  22.013  0.00  0.00    +0.000 A 
ATOM     11  C   UNL     1       0.426   7.999  21.912  0.00  0.00    +0.000 A 
ATOM     12  C   UNL     1       1.206   7.666  20.796  0.00  0.00    +0.000 A 
ATOM     13  C   UNL     1       1.430   8.604  19.783  0.00  0.00    +0.000 A 
ATOM     14  C   UNL     1       1.767   6.295  20.684  0.00  0.00    +0.000 C 
ATOM     15  O   UNL     1       1.529   5.496  21.588  0.00  0.00    +0.000 OA
ATOM     16  N   UNL     1       2.536   5.994  19.553  0.00  0.00    +0.000 N 
ENDROOT
BRANCH  16  17
ATOM     17  C   UNL     1       3.028   4.600  19.420  0.00  0.00    +0.000 C 
ATOM     18  C   UNL     1       4.307   4.401  18.561  0.00  0.00    +0.000 C 
ATOM     19  N   UNL     1       4.177   3.259  17.614  0.00  0.00    +0.000 NA
ATOM     20  C   UNL     1       3.854   2.031  18.369  0.00  0.00    +0.000 C 
ATOM     21  C   UNL     1       2.546   2.171  19.167  0.00  0.00    +0.000 C 
ATOM     22  C   UNL     1       1.952   3.581  18.940  0.00  0.00    +0.000 C 
ATOM     23  C   UNL     1       1.716   3.672  17.423  0.00  0.00    +0.000 C 
ATOM     24  C   UNL     1       3.061   3.549  16.683  0.00  0.00    +0.000 C 
ENDBRANCH  16  17
TORSDOF 1
ENDMDL
MODEL 7
REMARK VINA RESULT:      -7.1      2.947      6.901
REMARK  Name = 
REMARK  1 active torsions:
REMARK  status: ('A' for Active; 'I' for Inactive)
REMARK    1  A    between atoms: N_16  and  C_17
REMARK                            x       y       z     vdW  Elec       q    Type
REMARK                         _______ _______ _______ _____ _____    ______ ____
ROOT
ATOM      1  O   UNL     1       0.489   7.920  21.489  0.00  0.00    +0.000 OA
ATOM      2  C   UNL     1       1.097   7.918  20.422  0.00  0.00    +0.000 C 
ATOM      3  C   UNL     1       1.909   6.723  20.124  0.00  0.00    +0.000 A 
ATOM      4  C   UNL     1       1.817   5.618  20.982  0.00  0.00    +0.000 A 
ATOM      5  C   UNL     1       2.575   4.483  20.741  0.00  0.00    +0.000 A 
ATOM      6  C   UNL     1       3.436   4.451  19.646  0.00  0.00    +0.000 A 
ATOM      7  C   UNL     1       3.551   5.551  18.760  0.00  0.00    +0.000 A 
ATOM      8  C   UNL     1       4.413   5.569  17.636  0.00  0.00    +0.000 A 
ATOM      9 CL   UNL     1       5.420   4.220  17.228  0.00  0.00    +0.000 Cl
ATOM     10  C   UNL     1       4.485   6.686  16.801  0.00  0.00    +0.000 A 
ATOM     11  C   UNL     1       3.693   7.801  17.060  0.00  0.00    +0.000 A 
ATOM     12  C   UNL     1       2.824   7.807  18.160  0.00  0.00    +0.000 A 
ATOM     13  C   UNL     1       2.755   6.702  19.014  0.00  0.00    +0.000 A 
ATOM     14  C   UNL     1       1.953   8.988  18.393  0.00  0.00    +0.000 C 
ATOM     15  O   UNL     1       2.032   9.930  17.606  0.00  0.00    +0.000 OA
ATOM     16  N   UNL     1       1.092   8.957  19.497  0.00  0.00    +0.000 N 
ENDROOT
BRANCH  16  17
ATOM     17  C   UNL     1       0.176  10.112  19.674  0.00  0.00    +0.000 C 
ATOM     18  C   UNL     1      -0.220  10.880  18.382  0.00  0.00    +0.000 C 
ATOM     19  N   UNL     1      -0.131  12.356  18.557  0.00  0.00    +0.000 NA
ATOM     20  C   UNL     1      -0.980  12.768  19.694  0.00  0.00    +0.000 C 
ATOM     21  C   UNL     1      -0.559  12.082  21.006  0.00  0.00    +0.000 C 
ATOM     22  C   UNL     1       0.645  11.149  20.737  0.00  0.00    +0.000 C 
ATOM     23  C   UNL     1       1.747  12.071  20.187  0.00  0.00    +0.000 C 
ATOM     24  C   UNL     1       1.276  12.707  18.866  0.00  0.00    +0.000 C 
ENDBRANCH  16  17
TORSDOF 1
ENDMDL
MODEL 8
REMARK VINA RESULT:      -7.0      9.262     10.982
REMARK  Name = 
REMARK  1 active torsions:
REMARK  status: ('A' for Active; 'I' for Inactive)
REMARK    1  A    between atoms: N_16  and  C_17
REMARK                            x       y       z     vdW  Elec       q    Type
REMARK                         _______ _______ _______ _____ _____    ______ ____
ROOT
ATOM      1  O   UNL     1       8.410  10.984  22.378  0.00  0.00    +0.000 OA
ATOM      2  C   UNL     1       8.946  11.979  21.899  0.00  0.00    +0.000 C 
ATOM      3  C   UNL     1       9.507  11.841  20.542  0.00  0.00    +0.000 A 
ATOM      4  C   UNL     1       9.263  10.656  19.832  0.00  0.00    +0.000 A 
ATOM      5  C   UNL     1       9.787  10.486  18.560  0.00  0.00    +0.000 A 
ATOM      6  C   UNL     1      10.564  11.495  17.995  0.00  0.00    +0.000 A 
ATOM      7  C   UNL     1      10.828  12.703  18.687  0.00  0.00    +0.000 A 
ATOM      8  C   UNL     1      11.614  13.756  18.158  0.00  0.00    +0.000 A 
ATOM      9 CL   UNL     1      12.333  13.666  16.584  0.00  0.00    +0.000 Cl
ATOM     10  C   UNL     1      11.842  14.924  18.890  0.00  0.00    +0.000 A 
ATOM     11  C   UNL     1      11.282  15.071  20.157  0.00  0.00    +0.000 A 
ATOM     12  C   UNL     1      10.493  14.048  20.701  0.00  0.00    +0.000 A 
ATOM     13  C   UNL     1      10.271  12.868  19.985  0.00  0.00    +0.000 A 
ATOM     14  C   UNL     1       9.866  14.244  22.034  0.00  0.00    +0.000 C 
ATOM     15  O   UNL     1      10.072  15.305  22.620  0.00  0.00    +0.000 OA
ATOM     16  N   UNL     1       9.079  13.204  22.544  0.00  0.00    +0.000 N 
ENDROOT
BRANCH  16  17
ATOM     17  C   UNL     1       8.400  13.444  23.843  0.00  0.00    +0.000 C 
ATOM     18  C   UNL     1       8.389  12.254  24.842  0.00  0.00    +0.000 C 
ATOM     19  N   UNL     1       7.047  12.046  25.454  0.00  0.00    +0.000 NA
ATOM     20  C   UNL     1       6.612  13.294  26.116  0.00  0.00    +0.000 C 
ATOM     21  C   UNL     1       6.536  14.474  25.131  0.00  0.00    +0.000 C 
ATOM     22  C   UNL     1       6.949  13.995  23.719  0.00  0.00    +0.000 C 
ATOM     23  C   UNL     1       5.945  12.883  23.368  0.00  0.00    +0.000 C 
ATOM     24  C   UNL     1       6.086  11.725  24.373  0.00  0.00    +0.000 C 
ENDBRANCH  16  17
TORSDOF 1
ENDMDL
MODEL 9
REMARK VINA RESULT:      -6.8      6.131      9.430
REMARK  Name = 
REMARK  1 active torsions:
REMARK  status: ('A' for Active; 'I' for Inactive)
REMARK    1  A    between atoms: N_16  and  C_17
REMARK                            x       y       z     vdW  Elec       q    Type
REMARK                         _______ _______ _______ _____ _____    ______ ____
ROOT
ATOM      1  O   UNL     1      -5.090  13.249  21.535  0.00  0.00    +0.000 OA
ATOM      2  C   UNL     1      -4.121  12.812  20.921  0.00  0.00    +0.000 C 
ATOM      3  C   UNL     1      -4.359  12.366  19.536  0.00  0.00    +0.000 A 
ATOM      4  C   UNL     1      -5.615  12.608  18.960  0.00  0.00    +0.000 A 
ATOM      5  C   UNL     1      -5.879  12.190  17.664  0.00  0.00    +0.000 A 
ATOM      6  C   UNL     1      -4.893  11.521  16.943  0.00  0.00    +0.000 A 
ATOM      7  C   UNL     1      -3.615  11.262  17.497  0.00  0.00    +0.000 A 
ATOM      8  C   UNL     1      -2.581  10.584  16.806  0.00  0.00    +0.000 A 
ATOM      9 CL   UNL     1      -2.785  10.003  15.186  0.00  0.00    +0.000 Cl
ATOM     10  C   UNL     1      -1.342  10.355  17.407  0.00  0.00    +0.000 A 
ATOM     11  C   UNL     1      -1.102  10.807  18.702  0.00  0.00    +0.000 A 
ATOM     12  C   UNL     1      -2.104  11.489  19.405  0.00  0.00    +0.000 A 
ATOM     13  C   UNL     1      -3.355  11.710  18.821  0.00  0.00    +0.000 A 
ATOM     14  C   UNL     1      -1.814  12.005  20.769  0.00  0.00    +0.000 C 
ATOM     15  O   UNL     1      -0.694  11.805  21.236  0.00  0.00    +0.000 OA
ATOM     16  N   UNL     1      -2.835  12.688  21.440  0.00  0.00    +0.000 N 
ENDROOT
BRANCH  16  17
ATOM     17  C   UNL     1      -2.507  13.261  22.770  0.00  0.00    +0.000 C 
ATOM     18  C   UNL     1      -3.666  13.310  23.803  0.00  0.00    +0.000 C 
ATOM     19  N   UNL     1      -3.742  14.623  24.501  0.00  0.00    +0.000 NA
ATOM     20  C   UNL     1      -2.446  14.909  25.150  0.00  0.00    +0.000 C 
ATOM     21  C   UNL     1      -1.288  14.947  24.137  0.00  0.00    +0.000 C 
ATOM     22  C   UNL     1      -1.836  14.665  22.718  0.00  0.00    +0.000 C 
ATOM     23  C   UNL     1      -2.865  15.780  22.462  0.00  0.00    +0.000 C 
ATOM     24  C   UNL     1      -4.006  15.674  23.490  0.00  0.00    +0.000 C 
ENDBRANCH  16  17
TORSDOF 1
ENDMDL
