MODEL 1
REMARK VINA RESULT:      -8.0      0.000      0.000
REMARK  Name = 
REMARK  5 active torsions:
REMARK  status: ('A' for Active; 'I' for Inactive)
REMARK    1  A    between atoms: C_1  and  O_2
REMARK    2  A    between atoms: O_2  and  C_3
REMARK    3  A    between atoms: C_6  and  C_7
REMARK    4  A    between atoms: C_7  and  C_8
REMARK    5  A    between atoms: C_12  and  C_13
REMARK                            x       y       z     vdW  Elec       q    Type
REMARK                         _______ _______ _______ _____ _____    ______ ____
ROOT
ATOM      1  C   UNL     1       5.007   5.235  18.763  0.00  0.00    +0.000 C 
ATOM      2  O   UNL     1       5.445   5.385  19.902  0.00  0.00    +0.000 OA
ATOM      3  N   UNL     1       5.892   4.969  17.706  0.00  0.00    +0.000 N 
ATOM      4  N   UNL     1       5.461   4.814  16.421  0.00  0.00    +0.000 NA
ATOM      5  C   UNL     1       6.598   4.593  15.749  0.00  0.00    +0.000 A 
ATOM      6  N   UNL     1       7.718   4.547  16.540  0.00  0.00    +0.000 NA
ATOM      7  C   UNL     1       7.272   4.770  17.748  0.00  0.00    +0.000 A 
ATOM      8  N   UNL     1       8.028   4.776  18.860  0.00  0.00    +0.000 N 
ATOM      9  H   UNL     1       8.985   4.445  18.786  0.00  0.00    +0.000 HD
ATOM     10  H   UNL     1       7.610   4.694  19.786  0.00  0.00    +0.000 HD
ENDROOT
BRANCH   5  11
ATOM     11  C   UNL     1       6.680   4.418  14.307  0.00  0.00    +0.000 A 
ATOM     12  C   UNL     1       5.830   3.537  13.633  0.00  0.00    +0.000 A 
ATOM     13  C   UNL     1       5.954   3.363  12.257  0.00  0.00    +0.000 A 
ATOM     14  C   UNL     1       6.933   4.082  11.593  0.00  0.00    +0.000 A 
ATOM     15  N   UNL     1       7.765   4.954  12.202  0.00  0.00    +0.000 NA
ATOM     16  C   UNL     1       7.619   5.100  13.543  0.00  0.00    +0.000 A 
ENDBRANCH   5  11
BRANCH   1  17
ATOM     17  C   UNL     1       3.540   5.237  18.405  0.00  0.00    +0.000 C 
BRANCH  17  21
ATOM     18  C   UNL     1       1.527   8.948  19.394  0.00  0.00    +0.000 A 
ATOM     19  C   UNL     1       1.602   7.908  20.320  0.00  0.00    +0.000 A 
ATOM     20  C   UNL     1       2.231   6.703  19.994  0.00  0.00    +0.000 A 
ATOM     21  C   UNL     1       2.785   6.509  18.723  0.00  0.00    +0.000 A 
ATOM     22  C   UNL     1       2.672   7.544  17.783  0.00  0.00    +0.000 A 
ATOM     23  C   UNL     1       2.052   8.758  18.117  0.00  0.00    +0.000 A 
BRANCH  18  25
ATOM     24  C   UNL     1       0.089   9.930  21.004  0.00  0.00    +0.000 C 
ATOM     25  O   UNL     1       0.896  10.076  19.843  0.00  0.00    +0.000 OA
ENDBRANCH  18  25
ENDBRANCH  17  21
ENDBRANCH   1  17
TORSDOF 4
ENDMDL
MODEL 2
REMARK VINA RESULT:      -7.9      0.266      1.037
REMARK  Name = 
REMARK  5 active torsions:
REMARK  status: ('A' for Active; 'I' for Inactive)
REMARK    1  A    between atoms: C_1  and  O_2
REMARK    2  A    between atoms: O_2  and  C_3
REMARK    3  A    between atoms: C_6  and  C_7
REMARK    4  A    between atoms: C_7  and  C_8
REMARK    5  A    between atoms: C_12  and  C_13
REMARK                            x       y       z     vdW  Elec       q    Type
REMARK                         _______ _______ _______ _____ _____    ______ ____
ROOT
ATOM      1  C   UNL     1       5.028   5.368  18.716  0.00  0.00    +0.000 C 
ATOM      2  O   UNL     1       5.468   5.504  19.856  0.00  0.00    +0.000 OA
ATOM      3  N   UNL     1       5.903   5.048  17.667  0.00  0.00    +0.000 N 
ATOM      4  N   UNL     1       5.471   4.905  16.381  0.00  0.00    +0.000 NA
ATOM      5  C   UNL     1       6.598   4.621  15.716  0.00  0.00    +0.000 A 
ATOM      6  N   UNL     1       7.711   4.524  16.513  0.00  0.00    +0.000 NA
ATOM      7  C   UNL     1       7.271   4.779  17.717  0.00  0.00    +0.000 A 
ATOM      8  N   UNL     1       8.021   4.756  18.833  0.00  0.00    +0.000 N 
ATOM      9  H   UNL     1       8.960   4.375  18.767  0.00  0.00    +0.000 HD
ATOM     10  H   UNL     1       7.595   4.702  19.757  0.00  0.00    +0.000 HD
ENDROOT
BRANCH   5  11
ATOM     11  C   UNL     1       6.678   4.430  14.276  0.00  0.00    +0.000 A 
ATOM     12  C   UNL     1       5.834   3.533  13.615  0.00  0.00    +0.000 A 
ATOM     13  C   UNL     1       5.956   3.345  12.240  0.00  0.00    +0.000 A 
ATOM     14  C   UNL     1       6.927   4.066  11.565  0.00  0.00    +0.000 A 
ATOM     15  N   UNL     1       7.752   4.952  12.162  0.00  0.00    +0.000 NA
ATOM     16  C   UNL     1       7.608   5.112  13.502  0.00  0.00    +0.000 A 
ENDBRANCH   5  11
BRANCH   1  17
ATOM     17  C   UNL     1       3.564   5.442  18.351  0.00  0.00    +0.000 C 
BRANCH  17  21
ATOM     18  C   UNL     1       1.417   9.110  19.207  0.00  0.00    +0.000 A 
ATOM     19  C   UNL     1       2.041   8.920  17.975  0.00  0.00    +0.000 A 
ATOM     20  C   UNL     1       2.752   7.746  17.706  0.00  0.00    +0.000 A 
ATOM     21  C   UNL     1       2.868   6.745  18.677  0.00  0.00    +0.000 A 
ATOM     22  C   UNL     1       2.272   6.959  19.929  0.00  0.00    +0.000 A 
ATOM     23  C   UNL     1       1.546   8.132  20.192  0.00  0.00    +0.000 A 
BRANCH  18  25
ATOM     24  C   UNL     1       0.415  10.694  20.660  0.00  0.00    +0.000 C 
ATOM     25  O   UNL     1       0.745  10.295  19.336  0.00  0.00    +0.000 OA
ENDBRANCH  18  25
ENDBRANCH  17  21
ENDBRANCH   1  17
TORSDOF 4
ENDMDL
MODEL 3
REMARK VINA RESULT:      -7.8      3.146      7.536
REMARK  Name = 
REMARK  5 active torsions:
REMARK  status: ('A' for Active; 'I' for Inactive)
REMARK    1  A    between atoms: C_1  and  O_2
REMARK    2  A    between atoms: O_2  and  C_3
REMARK    3  A    between atoms: C_6  and  C_7
REMARK    4  A    between atoms: C_7  and  C_8
REMARK    5  A    between atoms: C_12  and  C_13
REMARK                            x       y       z     vdW  Elec       q    Type
REMARK                         _______ _______ _______ _____ _____    ______ ____
ROOT
ATOM      1  C   UNL     1       4.939   4.125  19.310  0.00  0.00    +0.000 C 
ATOM      2  O   UNL     1       4.973   2.950  19.671  0.00  0.00    +0.000 OA
ATOM      3  N   UNL     1       3.816   4.912  19.606  0.00  0.00    +0.000 N 
ATOM      4  N   UNL     1       3.720   6.215  19.211  0.00  0.00    +0.000 NA
ATOM      5  C   UNL     1       2.517   6.580  19.676  0.00  0.00    +0.000 A 
ATOM      6  N   UNL     1       1.870   5.601  20.387  0.00  0.00    +0.000 NA
ATOM      7  C   UNL     1       2.683   4.578  20.347  0.00  0.00    +0.000 A 
ATOM      8  N   UNL     1       2.466   3.398  20.954  0.00  0.00    +0.000 N 
ATOM      9  H   UNL     1       1.692   3.334  21.608  0.00  0.00    +0.000 HD
ATOM     10  H   UNL     1       3.226   2.738  21.114  0.00  0.00    +0.000 HD
ENDROOT
BRANCH   5  11
ATOM     11  C   UNL     1       1.916   7.887  19.462  0.00  0.00    +0.000 A 
ATOM     12  C   UNL     1       2.003   8.533  18.226  0.00  0.00    +0.000 A 
ATOM     13  C   UNL     1       1.449   9.800  18.060  0.00  0.00    +0.000 A 
ATOM     14  C   UNL     1       0.819  10.385  19.146  0.00  0.00    +0.000 A 
ATOM     15  N   UNL     1       0.700   9.791  20.353  0.00  0.00    +0.000 NA
ATOM     16  C   UNL     1       1.251   8.557  20.481  0.00  0.00    +0.000 A 
ENDBRANCH   5  11
BRANCH   1  17
ATOM     17  C   UNL     1       6.077   4.838  18.618  0.00  0.00    +0.000 C 
BRANCH  17  21
ATOM     18  C   UNL     1       6.320   4.248  14.329  0.00  0.00    +0.000 A 
ATOM     19  C   UNL     1       7.378   4.825  15.031  0.00  0.00    +0.000 A 
ATOM     20  C   UNL     1       7.291   5.036  16.410  0.00  0.00    +0.000 A 
ATOM     21  C   UNL     1       6.132   4.688  17.114  0.00  0.00    +0.000 A 
ATOM     22  C   UNL     1       5.057   4.144  16.396  0.00  0.00    +0.000 A 
ATOM     23  C   UNL     1       5.151   3.920  15.013  0.00  0.00    +0.000 A 
BRANCH  18  25
ATOM     24  C   UNL     1       5.643   3.223  12.301  0.00  0.00    +0.000 C 
ATOM     25  O   UNL     1       6.538   4.087  12.988  0.00  0.00    +0.000 OA
ENDBRANCH  18  25
ENDBRANCH  17  21
ENDBRANCH   1  17
TORSDOF 4
ENDMDL
MODEL 4
REMARK VINA RESULT:      -7.7      0.579      1.006
REMARK  Name = 
REMARK  5 active torsions:
REMARK  status: ('A' for Active; 'I' for Inactive)
REMARK    1  A    between atoms: C_1  and  O_2
REMARK    2  A    between atoms: O_2  and  C_3
REMARK    3  A    between atoms: C_6  and  C_7
REMARK    4  A    between atoms: C_7  and  C_8
REMARK    5  A    between atoms: C_12  and  C_13
REMARK                            x       y       z     vdW  Elec       q    Type
REMARK                         _______ _______ _______ _____ _____    ______ ____
ROOT
ATOM      1  C   UNL     1       4.963   5.348  18.719  0.00  0.00    +0.000 C 
ATOM      2  O   UNL     1       5.358   5.490  19.874  0.00  0.00    +0.000 OA
ATOM      3  N   UNL     1       5.883   5.059  17.699  0.00  0.00    +0.000 N 
ATOM      4  N   UNL     1       5.500   4.911  16.398  0.00  0.00    +0.000 NA
ATOM      5  C   UNL     1       6.658   4.663  15.771  0.00  0.00    +0.000 A 
ATOM      6  N   UNL     1       7.744   4.593  16.607  0.00  0.00    +0.000 NA
ATOM      7  C   UNL     1       7.255   4.829  17.796  0.00  0.00    +0.000 A 
ATOM      8  N   UNL     1       7.966   4.821  18.937  0.00  0.00    +0.000 N 
ATOM      9  H   UNL     1       8.918   4.468  18.902  0.00  0.00    +0.000 HD
ATOM     10  H   UNL     1       7.510   4.750  19.846  0.00  0.00    +0.000 HD
ENDROOT
BRANCH   5  11
ATOM     11  C   UNL     1       6.793   4.483  14.335  0.00  0.00    +0.000 A 
ATOM     12  C   UNL     1       7.672   5.268  13.583  0.00  0.00    +0.000 A 
ATOM     13  C   UNL     1       7.755   5.097  12.204  0.00  0.00    +0.000 A 
ATOM     14  C   UNL     1       6.948   4.138  11.614  0.00  0.00    +0.000 A 
ATOM     15  N   UNL     1       6.096   3.349  12.303  0.00  0.00    +0.000 NA
ATOM     16  C   UNL     1       6.039   3.541  13.646  0.00  0.00    +0.000 A 
ENDBRANCH   5  11
BRANCH   1  17
ATOM     17  C   UNL     1       3.511   5.382  18.302  0.00  0.00    +0.000 C 
BRANCH  17  21
ATOM     18  C   UNL     1       1.465   9.020  19.477  0.00  0.00    +0.000 A 
ATOM     19  C   UNL     1       1.566   7.942  20.357  0.00  0.00    +0.000 A 
ATOM     20  C   UNL     1       2.207   6.761  19.971  0.00  0.00    +0.000 A 
ATOM     21  C   UNL     1       2.744   6.628  18.685  0.00  0.00    +0.000 A 
ATOM     22  C   UNL     1       2.604   7.701  17.791  0.00  0.00    +0.000 A 
ATOM     23  C   UNL     1       1.973   8.891  18.186  0.00  0.00    +0.000 A 
BRANCH  18  25
ATOM     24  C   UNL     1      -0.043   9.894  21.086  0.00  0.00    +0.000 C 
ATOM     25  O   UNL     1       0.826  10.118  19.983  0.00  0.00    +0.000 OA
ENDBRANCH  18  25
ENDBRANCH  17  21
ENDBRANCH   1  17
TORSDOF 4
ENDMDL
MODEL 5
REMARK VINA RESULT:      -7.7      0.812      1.530
REMARK  Name = 
REMARK  5 active torsions:
REMARK  status: ('A' for Active; 'I' for Inactive)
REMARK    1  A    between atoms: C_1  and  O_2
REMARK    2  A    between atoms: O_2  and  C_3
REMARK    3  A    between atoms: C_6  and  C_7
REMARK    4  A    between atoms: C_7  and  C_8
REMARK    5  A    between atoms: C_12  and  C_13
REMARK                            x       y       z     vdW  Elec       q    Type
REMARK                         _______ _______ _______ _____ _____    ______ ____
ROOT
ATOM      1  C   UNL     1       4.955   5.516  18.619  0.00  0.00    +0.000 C 
ATOM      2  O   UNL     1       5.340   5.637  19.780  0.00  0.00    +0.000 OA
ATOM      3  N   UNL     1       5.871   5.164  17.615  0.00  0.00    +0.000 N 
ATOM      4  N   UNL     1       5.500   5.036  16.308  0.00  0.00    +0.000 NA
ATOM      5  C   UNL     1       6.649   4.710  15.702  0.00  0.00    +0.000 A 
ATOM      6  N   UNL     1       7.715   4.572  16.555  0.00  0.00    +0.000 NA
ATOM      7  C   UNL     1       7.223   4.845  17.736  0.00  0.00    +0.000 A 
ATOM      8  N   UNL     1       7.914   4.794  18.888  0.00  0.00    +0.000 N 
ATOM      9  H   UNL     1       8.840   4.379  18.870  0.00  0.00    +0.000 HD
ATOM     10  H   UNL     1       7.439   4.757  19.789  0.00  0.00    +0.000 HD
ENDROOT
BRANCH   5  11
ATOM     11  C   UNL     1       6.796   4.515  14.269  0.00  0.00    +0.000 A 
ATOM     12  C   UNL     1       7.682   5.292  13.516  0.00  0.00    +0.000 A 
ATOM     13  C   UNL     1       7.775   5.107  12.139  0.00  0.00    +0.000 A 
ATOM     14  C   UNL     1       6.972   4.144  11.552  0.00  0.00    +0.000 A 
ATOM     15  N   UNL     1       6.113   3.362  12.243  0.00  0.00    +0.000 NA
ATOM     16  C   UNL     1       6.046   3.567  13.583  0.00  0.00    +0.000 A 
ENDBRANCH   5  11
BRANCH   1  17
ATOM     17  C   UNL     1       3.516   5.644  18.179  0.00  0.00    +0.000 C 
BRANCH  17  21
ATOM     18  C   UNL     1       1.279   9.131  19.460  0.00  0.00    +0.000 A 
ATOM     19  C   UNL     1       1.826   9.065  18.179  0.00  0.00    +0.000 A 
ATOM     20  C   UNL     1       2.566   7.951  17.773  0.00  0.00    +0.000 A 
ATOM     21  C   UNL     1       2.789   6.884  18.651  0.00  0.00    +0.000 A 
ATOM     22  C   UNL     1       2.270   6.973  19.951  0.00  0.00    +0.000 A 
ATOM     23  C   UNL     1       1.515   8.087  20.352  0.00  0.00    +0.000 A 
BRANCH  18  25
ATOM     24  C   UNL     1      -0.193  10.805  18.651  0.00  0.00    +0.000 C 
ATOM     25  O   UNL     1       0.569  10.269  19.725  0.00  0.00    +0.000 OA
ENDBRANCH  18  25
ENDBRANCH  17  21
ENDBRANCH   1  17
TORSDOF 4
ENDMDL
MODEL 6
REMARK VINA RESULT:      -7.7      3.277      7.705
REMARK  Name = 
REMARK  5 active torsions:
REMARK  status: ('A' for Active; 'I' for Inactive)
REMARK    1  A    between atoms: C_1  and  O_2
REMARK    2  A    between atoms: O_2  and  C_3
REMARK    3  A    between atoms: C_6  and  C_7
REMARK    4  A    between atoms: C_7  and  C_8
REMARK    5  A    between atoms: C_12  and  C_13
REMARK                            x       y       z     vdW  Elec       q    Type
REMARK                         _______ _______ _______ _____ _____    ______ ____
ROOT
ATOM      1  C   UNL     1       4.573   3.820  19.354  0.00  0.00    +0.000 C 
ATOM      2  O   UNL     1       4.521   2.603  19.520  0.00  0.00    +0.000 OA
ATOM      3  N   UNL     1       3.492   4.623  19.746  0.00  0.00    +0.000 N 
ATOM      4  N   UNL     1       3.490   5.976  19.566  0.00  0.00    +0.000 NA
ATOM      5  C   UNL     1       2.297   6.341  20.054  0.00  0.00    +0.000 A 
ATOM      6  N   UNL     1       1.565   5.307  20.580  0.00  0.00    +0.000 NA
ATOM      7  C   UNL     1       2.314   4.252  20.394  0.00  0.00    +0.000 A 
ATOM      8  N   UNL     1       2.003   3.007  20.796  0.00  0.00    +0.000 N 
ATOM      9  H   UNL     1       1.204   2.891  21.412  0.00  0.00    +0.000 HD
ATOM     10  H   UNL     1       2.714   2.279  20.866  0.00  0.00    +0.000 HD
ENDROOT
BRANCH   5  11
ATOM     11  C   UNL     1       1.787   7.703  20.041  0.00  0.00    +0.000 A 
ATOM     12  C   UNL     1       1.232   8.282  21.186  0.00  0.00    +0.000 A 
ATOM     13  C   UNL     1       0.719   9.576  21.135  0.00  0.00    +0.000 A 
ATOM     14  C   UNL     1       0.776  10.255  19.929  0.00  0.00    +0.000 A 
ATOM     15  N   UNL     1       1.315   9.738  18.803  0.00  0.00    +0.000 NA
ATOM     16  C   UNL     1       1.806   8.476  18.887  0.00  0.00    +0.000 A 
ENDBRANCH   5  11
BRANCH   1  17
ATOM     17  C   UNL     1       5.777   4.557  18.816  0.00  0.00    +0.000 C 
BRANCH  17  21
ATOM     18  C   UNL     1       6.355   4.306  14.526  0.00  0.00    +0.000 A 
ATOM     19  C   UNL     1       7.370   4.779  15.356  0.00  0.00    +0.000 A 
ATOM     20  C   UNL     1       7.177   4.881  16.737  0.00  0.00    +0.000 A 
ATOM     21  C   UNL     1       5.952   4.527  17.314  0.00  0.00    +0.000 A 
ATOM     22  C   UNL     1       4.921   4.089  16.469  0.00  0.00    +0.000 A 
ATOM     23  C   UNL     1       5.122   3.974  15.084  0.00  0.00    +0.000 A 
BRANCH  18  25
ATOM     24  C   UNL     1       5.896   3.369  12.396  0.00  0.00    +0.000 C 
ATOM     25  O   UNL     1       6.677   4.245  13.198  0.00  0.00    +0.000 OA
ENDBRANCH  18  25
ENDBRANCH  17  21
ENDBRANCH   1  17
TORSDOF 4
ENDMDL
MODEL 7
REMARK VINA RESULT:      -7.6      3.777      6.942
REMARK  Name = 
REMARK  5 active torsions:
REMARK  status: ('A' for Active; 'I' for Inactive)
REMARK    1  A    between atoms: C_1  and  O_2
REMARK    2  A    between atoms: O_2  and  C_3
REMARK    3  A    between atoms: C_6  and  C_7
REMARK    4  A    between atoms: C_7  and  C_8
REMARK    5  A    between atoms: C_12  and  C_13
REMARK                            x       y       z     vdW  Elec       q    Type
REMARK                         _______ _______ _______ _____ _____    ______ ____
ROOT
ATOM      1  C   UNL     1       3.126   3.189  18.845  0.00  0.00    +0.000 C 
ATOM      2  O   UNL     1       3.136   2.151  19.504  0.00  0.00    +0.000 OA
ATOM      3  N   UNL     1       2.663   4.379  19.427  0.00  0.00    +0.000 N 
ATOM      4  N   UNL     1       2.612   5.553  18.734  0.00  0.00    +0.000 NA
ATOM      5  C   UNL     1       2.111   6.410  19.634  0.00  0.00    +0.000 A 
ATOM      6  N   UNL     1       1.892   5.860  20.872  0.00  0.00    +0.000 NA
ATOM      7  C   UNL     1       2.244   4.608  20.738  0.00  0.00    +0.000 A 
ATOM      8  N   UNL     1       2.230   3.694  21.724  0.00  0.00    +0.000 N 
ATOM      9  H   UNL     1       2.075   4.020  22.673  0.00  0.00    +0.000 HD
ATOM     10  H   UNL     1       2.750   2.821  21.645  0.00  0.00    +0.000 HD
ENDROOT
BRANCH   5  11
ATOM     11  C   UNL     1       1.809   7.806  19.360  0.00  0.00    +0.000 A 
ATOM     12  C   UNL     1       2.097   8.381  18.119  0.00  0.00    +0.000 A 
ATOM     13  C   UNL     1       1.829   9.729  17.896  0.00  0.00    +0.000 A 
ATOM     14  C   UNL     1       1.278  10.467  18.931  0.00  0.00    +0.000 A 
ATOM     15  N   UNL     1       0.972   9.948  20.140  0.00  0.00    +0.000 NA
ATOM     16  C   UNL     1       1.245   8.631  20.325  0.00  0.00    +0.000 A 
ENDBRANCH   5  11
BRANCH   1  17
ATOM     17  C   UNL     1       3.659   3.311  17.437  0.00  0.00    +0.000 C 
BRANCH  17  21
ATOM     18  C   UNL     1       6.892   6.166  16.989  0.00  0.00    +0.000 A 
ATOM     19  C   UNL     1       5.868   6.093  16.045  0.00  0.00    +0.000 A 
ATOM     20  C   UNL     1       4.838   5.158  16.178  0.00  0.00    +0.000 A 
ATOM     21  C   UNL     1       4.821   4.262  17.252  0.00  0.00    +0.000 A 
ATOM     22  C   UNL     1       5.875   4.313  18.178  0.00  0.00    +0.000 A 
ATOM     23  C   UNL     1       6.901   5.263  18.051  0.00  0.00    +0.000 A 
BRANCH  18  25
ATOM     24  C   UNL     1       7.881   8.210  17.674  0.00  0.00    +0.000 C 
ATOM     25  O   UNL     1       7.830   7.132  16.749  0.00  0.00    +0.000 OA
ENDBRANCH  18  25
ENDBRANCH  17  21
ENDBRANCH   1  17
TORSDOF 4
ENDMDL
MODEL 8
REMARK VINA RESULT:      -7.6      2.118      3.184
REMARK  Name = 
REMARK  5 active torsions:
REMARK  status: ('A' for Active; 'I' for Inactive)
REMARK    1  A    between atoms: C_1  and  O_2
REMARK    2  A    between atoms: O_2  and  C_3
REMARK    3  A    between atoms: C_6  and  C_7
REMARK    4  A    between atoms: C_7  and  C_8
REMARK    5  A    between atoms: C_12  and  C_13
REMARK                            x       y       z     vdW  Elec       q    Type
REMARK                         _______ _______ _______ _____ _____    ______ ____
ROOT
ATOM      1  C   UNL     1       2.100   5.264  19.891  0.00  0.00    +0.000 C 
ATOM      2  O   UNL     1       1.163   4.677  20.427  0.00  0.00    +0.000 OA
ATOM      3  N   UNL     1       2.712   4.710  18.757  0.00  0.00    +0.000 N 
ATOM      4  N   UNL     1       3.769   5.310  18.136  0.00  0.00    +0.000 NA
ATOM      5  C   UNL     1       4.046   4.465  17.134  0.00  0.00    +0.000 A 
ATOM      6  N   UNL     1       3.195   3.393  17.051  0.00  0.00    +0.000 NA
ATOM      7  C   UNL     1       2.368   3.557  18.051  0.00  0.00    +0.000 A 
ATOM      8  N   UNL     1       1.330   2.750  18.332  0.00  0.00    +0.000 N 
ATOM      9  H   UNL     1       1.075   2.046  17.647  0.00  0.00    +0.000 HD
ATOM     10  H   UNL     1       0.574   3.053  18.945  0.00  0.00    +0.000 HD
ENDROOT
BRANCH   5  11
ATOM     11  C   UNL     1       5.147   4.634  16.199  0.00  0.00    +0.000 A 
ATOM     12  C   UNL     1       5.154   3.986  14.960  0.00  0.00    +0.000 A 
ATOM     13  C   UNL     1       6.237   4.139  14.099  0.00  0.00    +0.000 A 
ATOM     14  C   UNL     1       7.290   4.940  14.507  0.00  0.00    +0.000 A 
ATOM     15  N   UNL     1       7.318   5.595  15.689  0.00  0.00    +0.000 NA
ATOM     16  C   UNL     1       6.247   5.425  16.505  0.00  0.00    +0.000 A 
ENDBRANCH   5  11
BRANCH   1  17
ATOM     17  C   UNL     1       2.618   6.617  20.321  0.00  0.00    +0.000 C 
BRANCH  17  21
ATOM     18  C   UNL     1       0.567  10.153  18.875  0.00  0.00    +0.000 A 
ATOM     19  C   UNL     1       0.359   9.688  20.173  0.00  0.00    +0.000 A 
ATOM     20  C   UNL     1       1.003   8.536  20.632  0.00  0.00    +0.000 A 
ATOM     21  C   UNL     1       1.857   7.813  19.792  0.00  0.00    +0.000 A 
ATOM     22  C   UNL     1       2.033   8.263  18.475  0.00  0.00    +0.000 A 
ATOM     23  C   UNL     1       1.396   9.429  18.020  0.00  0.00    +0.000 A 
BRANCH  18  25
ATOM     24  C   UNL     1      -1.191  11.651  19.411  0.00  0.00    +0.000 C 
ATOM     25  O   UNL     1      -0.113  11.296  18.556  0.00  0.00    +0.000 OA
ENDBRANCH  18  25
ENDBRANCH  17  21
ENDBRANCH   1  17
TORSDOF 4
ENDMDL
MODEL 9
REMARK VINA RESULT:      -7.6      3.702      6.828
REMARK  Name = 
REMARK  5 active torsions:
REMARK  status: ('A' for Active; 'I' for Inactive)
REMARK    1  A    between atoms: C_1  and  O_2
REMARK    2  A    between atoms: O_2  and  C_3
REMARK    3  A    between atoms: C_6  and  C_7
REMARK    4  A    between atoms: C_7  and  C_8
REMARK    5  A    between atoms: C_12  and  C_13
REMARK                            x       y       z     vdW  Elec       q    Type
REMARK                         _______ _______ _______ _____ _____    ______ ____
ROOT
ATOM      1  C   UNL     1       3.215   3.143  18.864  0.00  0.00    +0.000 C 
ATOM      2  O   UNL     1       3.198   2.124  19.551  0.00  0.00    +0.000 OA
ATOM      3  N   UNL     1       2.747   4.352  19.400  0.00  0.00    +0.000 N 
ATOM      4  N   UNL     1       2.726   5.507  18.674  0.00  0.00    +0.000 NA
ATOM      5  C   UNL     1       2.208   6.393  19.536  0.00  0.00    +0.000 A 
ATOM      6  N   UNL     1       1.948   5.879  20.781  0.00  0.00    +0.000 NA
ATOM      7  C   UNL     1       2.293   4.620  20.691  0.00  0.00    +0.000 A 
ATOM      8  N   UNL     1       2.243   3.734  21.701  0.00  0.00    +0.000 N 
ATOM      9  H   UNL     1       2.064   4.088  22.636  0.00  0.00    +0.000 HD
ATOM     10  H   UNL     1       2.757   2.855  21.661  0.00  0.00    +0.000 HD
ENDROOT
BRANCH   5  11
ATOM     11  C   UNL     1       1.926   7.783  19.215  0.00  0.00    +0.000 A 
ATOM     12  C   UNL     1       1.256   8.615  20.116  0.00  0.00    +0.000 A 
ATOM     13  C   UNL     1       0.969   9.932  19.769  0.00  0.00    +0.000 A 
ATOM     14  C   UNL     1       1.364  10.380  18.519  0.00  0.00    +0.000 A 
ATOM     15  N   UNL     1       2.025   9.615  17.624  0.00  0.00    +0.000 NA
ATOM     16  C   UNL     1       2.290   8.336  17.994  0.00  0.00    +0.000 A 
ENDBRANCH   5  11
BRANCH   1  17
ATOM     17  C   UNL     1       3.790   3.222  17.469  0.00  0.00    +0.000 C 
BRANCH  17  21
ATOM     18  C   UNL     1       6.931   6.172  16.984  0.00  0.00    +0.000 A 
ATOM     19  C   UNL     1       5.971   5.982  15.991  0.00  0.00    +0.000 A 
ATOM     20  C   UNL     1       4.971   5.016  16.137  0.00  0.00    +0.000 A 
ATOM     21  C   UNL     1       4.923   4.205  17.277  0.00  0.00    +0.000 A 
ATOM     22  C   UNL     1       5.915   4.373  18.255  0.00  0.00    +0.000 A 
ATOM     23  C   UNL     1       6.910   5.354  18.113  0.00  0.00    +0.000 A 
BRANCH  18  25
ATOM     24  C   UNL     1       7.900   8.231  17.650  0.00  0.00    +0.000 C 
ATOM     25  O   UNL     1       7.844   7.155  16.723  0.00  0.00    +0.000 OA
ENDBRANCH  18  25
ENDBRANCH  17  21
ENDBRANCH   1  17
TORSDOF 4
ENDMDL
