MODEL 1
REMARK VINA RESULT:      -8.7      0.000      0.000
REMARK  Name = 
REMARK  3 active torsions:
REMARK  status: ('A' for Active; 'I' for Inactive)
REMARK    1  A    between atoms: C_1  and  C_2
REMARK    2  A    between atoms: C_2  and  N_3
REMARK    3  A    between atoms: C_14  and  C_15
REMARK                            x       y       z     vdW  Elec       q    Type
REMARK                         _______ _______ _______ _____ _____    ______ ____
ROOT
ATOM      1  N   UNL     1       3.030   4.650  19.794  0.00  0.00    +0.000 N 
ATOM      2  C   UNL     1       3.838   3.825  18.973  0.00  0.00    +0.000 A 
ATOM      3  O   UNL     1       4.087   2.649  19.224  0.00  0.00    +0.000 OA
ATOM      4  C   UNL     1       4.354   4.461  17.787  0.00  0.00    +0.000 A 
ATOM      5  C   UNL     1       5.161   3.988  16.780  0.00  0.00    +0.000 A 
ATOM      6  N   UNL     1       5.310   5.028  15.911  0.00  0.00    +0.000 N 
ATOM      7  N   UNL     1       4.654   6.145  16.289  0.00  0.00    +0.000 NA
ATOM      8  C   UNL     1       4.071   5.788  17.440  0.00  0.00    +0.000 A 
ATOM      9  C   UNL     1       3.227   6.607  18.275  0.00  0.00    +0.000 A 
ATOM     10  C   UNL     1       2.929   7.924  17.927  0.00  0.00    +0.000 A 
ATOM     11  C   UNL     1       2.117   8.693  18.755  0.00  0.00    +0.000 A 
ATOM     12  C   UNL     1       1.572   8.170  19.940  0.00  0.00    +0.000 A 
ATOM     13  C   UNL     1       1.878   6.828  20.265  0.00  0.00    +0.000 A 
ATOM     14  C   UNL     1       2.708   6.026  19.455  0.00  0.00    +0.000 A 
ATOM     15  H   UNL     1       5.833   5.051  15.042  0.00  0.00    +0.000 HD
ENDROOT
BRANCH  12  16
ATOM     16  C   UNL     1       0.732   9.024  20.816  0.00  0.00    +0.000 A 
ATOM     17  C   UNL     1       0.009  10.114  20.287  0.00  0.00    +0.000 A 
ATOM     18  C   UNL     1      -0.696  10.993  21.113  0.00  0.00    +0.000 A 
ATOM     19  C   UNL     1      -0.711  10.778  22.482  0.00  0.00    +0.000 A 
ATOM     20  F   UNL     1      -1.365  11.634  23.279  0.00  0.00    +0.000 F 
ATOM     21  C   UNL     1      -0.051   9.691  23.036  0.00  0.00    +0.000 A 
ATOM     22  C   UNL     1       0.668   8.821  22.208  0.00  0.00    +0.000 A 
ENDBRANCH  12  16
BRANCH   1  24
ATOM     23  C   UNL     1       1.089   3.375  20.626  0.00  0.00    +0.000 C 
ATOM     24  C   UNL     1       2.431   4.008  20.961  0.00  0.00    +0.000 C 
ENDBRANCH   1  24
TORSDOF 2
ENDMDL
MODEL 2
REMARK VINA RESULT:      -8.6      0.120      1.011
REMARK  Name = 
REMARK  3 active torsions:
REMARK  status: ('A' for Active; 'I' for Inactive)
REMARK    1  A    between atoms: C_1  and  C_2
REMARK    2  A    between atoms: C_2  and  N_3
REMARK    3  A    between atoms: C_14  and  C_15
REMARK                            x       y       z     vdW  Elec       q    Type
REMARK                         _______ _______ _______ _____ _____    ______ ____
ROOT
ATOM      1  N   UNL     1       3.027   4.684  19.802  0.00  0.00    +0.000 N 
ATOM      2  C   UNL     1       3.800   3.837  18.969  0.00  0.00    +0.000 A 
ATOM      3  O   UNL     1       4.029   2.657  19.222  0.00  0.00    +0.000 OA
ATOM      4  C   UNL     1       4.305   4.456  17.769  0.00  0.00    +0.000 A 
ATOM      5  C   UNL     1       5.081   3.960  16.748  0.00  0.00    +0.000 A 
ATOM      6  N   UNL     1       5.234   4.992  15.870  0.00  0.00    +0.000 N 
ATOM      7  N   UNL     1       4.610   6.124  16.255  0.00  0.00    +0.000 NA
ATOM      8  C   UNL     1       4.043   5.786  17.420  0.00  0.00    +0.000 A 
ATOM      9  C   UNL     1       3.234   6.627  18.267  0.00  0.00    +0.000 A 
ATOM     10  C   UNL     1       2.957   7.949  17.917  0.00  0.00    +0.000 A 
ATOM     11  C   UNL     1       2.179   8.739  18.757  0.00  0.00    +0.000 A 
ATOM     12  C   UNL     1       1.647   8.235  19.956  0.00  0.00    +0.000 A 
ATOM     13  C   UNL     1       1.932   6.889  20.283  0.00  0.00    +0.000 A 
ATOM     14  C   UNL     1       2.727   6.065  19.461  0.00  0.00    +0.000 A 
ATOM     15  H   UNL     1       5.739   4.999  14.991  0.00  0.00    +0.000 HD
ENDROOT
BRANCH  12  16
ATOM     16  C   UNL     1       0.844   9.111  20.844  0.00  0.00    +0.000 A 
ATOM     17  C   UNL     1       0.755   8.854  22.229  0.00  0.00    +0.000 A 
ATOM     18  C   UNL     1      -0.083   9.602  23.059  0.00  0.00    +0.000 A 
ATOM     19  C   UNL     1      -0.828  10.640  22.520  0.00  0.00    +0.000 A 
ATOM     20  F   UNL     1      -1.652  11.341  23.308  0.00  0.00    +0.000 F 
ATOM     21  C   UNL     1      -0.732  10.954  21.172  0.00  0.00    +0.000 A 
ATOM     22  C   UNL     1       0.097  10.193  20.339  0.00  0.00    +0.000 A 
ENDBRANCH  12  16
BRANCH   1  24
ATOM     23  C   UNL     1       1.108   3.398  20.666  0.00  0.00    +0.000 C 
ATOM     24  C   UNL     1       2.439   4.062  20.984  0.00  0.00    +0.000 C 
ENDBRANCH   1  24
TORSDOF 2
ENDMDL
MODEL 3
REMARK VINA RESULT:      -8.6      4.605      7.886
REMARK  Name = 
REMARK  3 active torsions:
REMARK  status: ('A' for Active; 'I' for Inactive)
REMARK    1  A    between atoms: C_1  and  C_2
REMARK    2  A    between atoms: C_2  and  N_3
REMARK    3  A    between atoms: C_14  and  C_15
REMARK                            x       y       z     vdW  Elec       q    Type
REMARK                         _______ _______ _______ _____ _____    ______ ____
ROOT
ATOM      1  N   UNL     1       2.555   3.494  18.345  0.00  0.00    +0.000 N 
ATOM      2  C   UNL     1       1.802   3.851  19.492  0.00  0.00    +0.000 A 
ATOM      3  O   UNL     1       1.121   3.056  20.134  0.00  0.00    +0.000 OA
ATOM      4  C   UNL     1       1.896   5.236  19.878  0.00  0.00    +0.000 A 
ATOM      5  C   UNL     1       1.313   5.934  20.910  0.00  0.00    +0.000 A 
ATOM      6  N   UNL     1       1.776   7.212  20.794  0.00  0.00    +0.000 N 
ATOM      7  N   UNL     1       2.617   7.389  19.755  0.00  0.00    +0.000 NA
ATOM      8  C   UNL     1       2.685   6.173  19.199  0.00  0.00    +0.000 A 
ATOM      9  C   UNL     1       3.463   5.788  18.048  0.00  0.00    +0.000 A 
ATOM     10  C   UNL     1       4.263   6.713  17.377  0.00  0.00    +0.000 A 
ATOM     11  C   UNL     1       4.999   6.315  16.265  0.00  0.00    +0.000 A 
ATOM     12  C   UNL     1       4.969   4.989  15.801  0.00  0.00    +0.000 A 
ATOM     13  C   UNL     1       4.160   4.067  16.505  0.00  0.00    +0.000 A 
ATOM     14  C   UNL     1       3.393   4.441  17.627  0.00  0.00    +0.000 A 
ATOM     15  H   UNL     1       1.569   8.010  21.385  0.00  0.00    +0.000 HD
ENDROOT
BRANCH  12  16
ATOM     16  C   UNL     1       5.743   4.602  14.595  0.00  0.00    +0.000 A 
ATOM     17  C   UNL     1       7.014   5.159  14.341  0.00  0.00    +0.000 A 
ATOM     18  C   UNL     1       7.707   4.891  13.158  0.00  0.00    +0.000 A 
ATOM     19  C   UNL     1       7.149   4.037  12.220  0.00  0.00    +0.000 A 
ATOM     20  F   UNL     1       7.798   3.798  11.073  0.00  0.00    +0.000 F 
ATOM     21  C   UNL     1       5.922   3.433  12.453  0.00  0.00    +0.000 A 
ATOM     22  C   UNL     1       5.223   3.716  13.633  0.00  0.00    +0.000 A 
ENDBRANCH  12  16
BRANCH   1  24
ATOM     23  C   UNL     1       3.699   1.326  18.609  0.00  0.00    +0.000 C 
ATOM     24  C   UNL     1       2.539   2.082  17.978  0.00  0.00    +0.000 C 
ENDBRANCH   1  24
TORSDOF 2
ENDMDL
MODEL 4
REMARK VINA RESULT:      -8.4      4.657      7.912
REMARK  Name = 
REMARK  3 active torsions:
REMARK  status: ('A' for Active; 'I' for Inactive)
REMARK    1  A    between atoms: C_1  and  C_2
REMARK    2  A    between atoms: C_2  and  N_3
REMARK    3  A    between atoms: C_14  and  C_15
REMARK                            x       y       z     vdW  Elec       q    Type
REMARK                         _______ _______ _______ _____ _____    ______ ____
ROOT
ATOM      1  N   UNL     1       2.616   3.460  18.287  0.00  0.00    +0.000 N 
ATOM      2  C   UNL     1       1.892   3.787  19.461  0.00  0.00    +0.000 A 
ATOM      3  O   UNL     1       1.241   2.971  20.109  0.00  0.00    +0.000 OA
ATOM      4  C   UNL     1       1.977   5.167  19.867  0.00  0.00    +0.000 A 
ATOM      5  C   UNL     1       1.414   5.839  20.927  0.00  0.00    +0.000 A 
ATOM      6  N   UNL     1       1.854   7.125  20.819  0.00  0.00    +0.000 N 
ATOM      7  N   UNL     1       2.662   7.332  19.760  0.00  0.00    +0.000 NA
ATOM      8  C   UNL     1       2.732   6.126  19.182  0.00  0.00    +0.000 A 
ATOM      9  C   UNL     1       3.482   5.772  18.002  0.00  0.00    +0.000 A 
ATOM     10  C   UNL     1       4.249   6.720  17.324  0.00  0.00    +0.000 A 
ATOM     11  C   UNL     1       4.958   6.350  16.185  0.00  0.00    +0.000 A 
ATOM     12  C   UNL     1       4.934   5.032  15.700  0.00  0.00    +0.000 A 
ATOM     13  C   UNL     1       4.159   4.087  16.412  0.00  0.00    +0.000 A 
ATOM     14  C   UNL     1       3.419   4.431  17.561  0.00  0.00    +0.000 A 
ATOM     15  H   UNL     1       1.653   7.911  21.429  0.00  0.00    +0.000 HD
ENDROOT
BRANCH  12  16
ATOM     16  C   UNL     1       5.679   4.676  14.467  0.00  0.00    +0.000 A 
ATOM     17  C   UNL     1       5.123   3.797  13.513  0.00  0.00    +0.000 A 
ATOM     18  C   UNL     1       5.854   3.366  12.403  0.00  0.00    +0.000 A 
ATOM     19  C   UNL     1       7.146   3.830  12.216  0.00  0.00    +0.000 A 
ATOM     20  F   UNL     1       7.859   3.398  11.167  0.00  0.00    +0.000 F 
ATOM     21  C   UNL     1       7.711   4.732  13.106  0.00  0.00    +0.000 A 
ATOM     22  C   UNL     1       6.982   5.150  14.226  0.00  0.00    +0.000 A 
ENDBRANCH  12  16
BRANCH   1  24
ATOM     23  C   UNL     1       3.752   1.287  18.548  0.00  0.00    +0.000 C 
ATOM     24  C   UNL     1       2.610   2.054  17.898  0.00  0.00    +0.000 C 
ENDBRANCH   1  24
TORSDOF 2
ENDMDL
MODEL 5
REMARK VINA RESULT:      -7.8      1.029      1.199
REMARK  Name = 
REMARK  3 active torsions:
REMARK  status: ('A' for Active; 'I' for Inactive)
REMARK    1  A    between atoms: C_1  and  C_2
REMARK    2  A    between atoms: C_2  and  N_3
REMARK    3  A    between atoms: C_14  and  C_15
REMARK                            x       y       z     vdW  Elec       q    Type
REMARK                         _______ _______ _______ _____ _____    ______ ____
ROOT
ATOM      1  N   UNL     1       3.110   4.197  18.483  0.00  0.00    +0.000 N 
ATOM      2  C   UNL     1       3.946   3.419  17.644  0.00  0.00    +0.000 A 
ATOM      3  O   UNL     1       4.000   2.193  17.684  0.00  0.00    +0.000 OA
ATOM      4  C   UNL     1       4.742   4.172  16.707  0.00  0.00    +0.000 A 
ATOM      5  C   UNL     1       5.655   3.769  15.761  0.00  0.00    +0.000 A 
ATOM      6  N   UNL     1       6.084   4.914  15.157  0.00  0.00    +0.000 N 
ATOM      7  N   UNL     1       5.513   6.032  15.650  0.00  0.00    +0.000 NA
ATOM      8  C   UNL     1       4.692   5.567  16.600  0.00  0.00    +0.000 A 
ATOM      9  C   UNL     1       3.817   6.342  17.446  0.00  0.00    +0.000 A 
ATOM     10  C   UNL     1       3.751   7.731  17.334  0.00  0.00    +0.000 A 
ATOM     11  C   UNL     1       2.903   8.453  18.167  0.00  0.00    +0.000 A 
ATOM     12  C   UNL     1       2.093   7.815  19.121  0.00  0.00    +0.000 A 
ATOM     13  C   UNL     1       2.168   6.406  19.208  0.00  0.00    +0.000 A 
ATOM     14  C   UNL     1       3.026   5.645  18.387  0.00  0.00    +0.000 A 
ATOM     15  H   UNL     1       6.754   5.012  14.402  0.00  0.00    +0.000 HD
ENDROOT
BRANCH  12  16
ATOM     16  C   UNL     1       1.219   8.616  20.015  0.00  0.00    +0.000 A 
ATOM     17  C   UNL     1       0.564   9.773  19.541  0.00  0.00    +0.000 A 
ATOM     18  C   UNL     1      -0.171  10.599  20.395  0.00  0.00    +0.000 A 
ATOM     19  C   UNL     1      -0.285  10.264  21.735  0.00  0.00    +0.000 A 
ATOM     20  F   UNL     1      -0.967  11.067  22.562  0.00  0.00    +0.000 F 
ATOM     21  C   UNL     1       0.304   9.110  22.230  0.00  0.00    +0.000 A 
ATOM     22  C   UNL     1       1.054   8.293  21.375  0.00  0.00    +0.000 A 
ENDBRANCH  12  16
BRANCH   1  24
ATOM     23  C   UNL     1       2.912   3.185  20.723  0.00  0.00    +0.000 C 
ATOM     24  C   UNL     1       2.237   3.456  19.387  0.00  0.00    +0.000 C 
ENDBRANCH   1  24
TORSDOF 2
ENDMDL
MODEL 6
REMARK VINA RESULT:      -7.8      1.025      1.580
REMARK  Name = 
REMARK  3 active torsions:
REMARK  status: ('A' for Active; 'I' for Inactive)
REMARK    1  A    between atoms: C_1  and  C_2
REMARK    2  A    between atoms: C_2  and  N_3
REMARK    3  A    between atoms: C_14  and  C_15
REMARK                            x       y       z     vdW  Elec       q    Type
REMARK                         _______ _______ _______ _____ _____    ______ ____
ROOT
ATOM      1  N   UNL     1       3.026   4.049  18.585  0.00  0.00    +0.000 N 
ATOM      2  C   UNL     1       3.818   3.216  17.755  0.00  0.00    +0.000 A 
ATOM      3  O   UNL     1       3.827   1.991  17.831  0.00  0.00    +0.000 OA
ATOM      4  C   UNL     1       4.624   3.912  16.784  0.00  0.00    +0.000 A 
ATOM      5  C   UNL     1       5.504   3.449  15.834  0.00  0.00    +0.000 A 
ATOM      6  N   UNL     1       5.964   4.559  15.190  0.00  0.00    +0.000 N 
ATOM      7  N   UNL     1       5.443   5.711  15.660  0.00  0.00    +0.000 NA
ATOM      8  C   UNL     1       4.622   5.304  16.637  0.00  0.00    +0.000 A 
ATOM      9  C   UNL     1       3.792   6.135  17.474  0.00  0.00    +0.000 A 
ATOM     10  C   UNL     1       3.774   7.522  17.322  0.00  0.00    +0.000 A 
ATOM     11  C   UNL     1       2.968   8.299  18.148  0.00  0.00    +0.000 A 
ATOM     12  C   UNL     1       2.153   7.719  19.134  0.00  0.00    +0.000 A 
ATOM     13  C   UNL     1       2.178   6.311  19.261  0.00  0.00    +0.000 A 
ATOM     14  C   UNL     1       2.993   5.496  18.449  0.00  0.00    +0.000 A 
ATOM     15  H   UNL     1       6.624   4.611  14.421  0.00  0.00    +0.000 HD
ENDROOT
BRANCH  12  16
ATOM     16  C   UNL     1       1.325   8.577  20.018  0.00  0.00    +0.000 A 
ATOM     17  C   UNL     1       1.102   8.227  21.366  0.00  0.00    +0.000 A 
ATOM     18  C   UNL     1       0.238   8.963  22.180  0.00  0.00    +0.000 A 
ATOM     19  C   UNL     1      -0.398  10.081  21.663  0.00  0.00    +0.000 A 
ATOM     20  F   UNL     1      -1.248  10.773  22.432  0.00  0.00    +0.000 F 
ATOM     21  C   UNL     1      -0.169  10.485  20.356  0.00  0.00    +0.000 A 
ATOM     22  C   UNL     1       0.685   9.736  19.538  0.00  0.00    +0.000 A 
ENDBRANCH  12  16
BRANCH   1  24
ATOM     23  C   UNL     1       2.832   3.107  20.857  0.00  0.00    +0.000 C 
ATOM     24  C   UNL     1       2.142   3.367  19.525  0.00  0.00    +0.000 C 
ENDBRANCH   1  24
TORSDOF 2
ENDMDL
MODEL 7
REMARK VINA RESULT:      -7.7      1.702      3.281
REMARK  Name = 
REMARK  3 active torsions:
REMARK  status: ('A' for Active; 'I' for Inactive)
REMARK    1  A    between atoms: C_1  and  C_2
REMARK    2  A    between atoms: C_2  and  N_3
REMARK    3  A    between atoms: C_14  and  C_15
REMARK                            x       y       z     vdW  Elec       q    Type
REMARK                         _______ _______ _______ _____ _____    ______ ____
ROOT
ATOM      1  N   UNL     1       3.863   5.514  17.497  0.00  0.00    +0.000 N 
ATOM      2  C   UNL     1       4.280   4.232  17.058  0.00  0.00    +0.000 A 
ATOM      3  O   UNL     1       5.063   4.051  16.129  0.00  0.00    +0.000 OA
ATOM      4  C   UNL     1       3.725   3.124  17.794  0.00  0.00    +0.000 A 
ATOM      5  C   UNL     1       3.891   1.766  17.654  0.00  0.00    +0.000 A 
ATOM      6  N   UNL     1       3.134   1.202  18.639  0.00  0.00    +0.000 N 
ATOM      7  N   UNL     1       2.488   2.104  19.406  0.00  0.00    +0.000 NA
ATOM      8  C   UNL     1       2.856   3.279  18.881  0.00  0.00    +0.000 A 
ATOM      9  C   UNL     1       2.461   4.591  19.329  0.00  0.00    +0.000 A 
ATOM     10  C   UNL     1       1.608   4.753  20.421  0.00  0.00    +0.000 A 
ATOM     11  C   UNL     1       1.238   6.032  20.828  0.00  0.00    +0.000 A 
ATOM     12  C   UNL     1       1.715   7.178  20.171  0.00  0.00    +0.000 A 
ATOM     13  C   UNL     1       2.589   6.989  19.075  0.00  0.00    +0.000 A 
ATOM     14  C   UNL     1       2.972   5.707  18.629  0.00  0.00    +0.000 A 
ATOM     15  H   UNL     1       3.015   0.218  18.854  0.00  0.00    +0.000 HD
ENDROOT
BRANCH  12  16
ATOM     16  C   UNL     1       1.280   8.527  20.612  0.00  0.00    +0.000 A 
ATOM     17  C   UNL     1       0.991   8.787  21.968  0.00  0.00    +0.000 A 
ATOM     18  C   UNL     1       0.476  10.018  22.382  0.00  0.00    +0.000 A 
ATOM     19  C   UNL     1       0.266  11.019  21.447  0.00  0.00    +0.000 A 
ATOM     20  F   UNL     1      -0.253  12.190  21.837  0.00  0.00    +0.000 F 
ATOM     21  C   UNL     1       0.582  10.818  20.111  0.00  0.00    +0.000 A 
ATOM     22  C   UNL     1       1.084   9.578  19.696  0.00  0.00    +0.000 A 
ENDBRANCH  12  16
BRANCH   1  24
ATOM     23  C   UNL     1       5.870   6.939  17.343  0.00  0.00    +0.000 C 
ATOM     24  C   UNL     1       4.470   6.654  16.819  0.00  0.00    +0.000 C 
ENDBRANCH   1  24
TORSDOF 2
ENDMDL
MODEL 8
REMARK VINA RESULT:      -7.6      4.473      7.843
REMARK  Name = 
REMARK  3 active torsions:
REMARK  status: ('A' for Active; 'I' for Inactive)
REMARK    1  A    between atoms: C_1  and  C_2
REMARK    2  A    between atoms: C_2  and  N_3
REMARK    3  A    between atoms: C_14  and  C_15
REMARK                            x       y       z     vdW  Elec       q    Type
REMARK                         _______ _______ _______ _____ _____    ______ ____
ROOT
ATOM      1  N   UNL     1       1.007  10.585  19.295  0.00  0.00    +0.000 N 
ATOM      2  C   UNL     1       0.231  11.349  20.202  0.00  0.00    +0.000 A 
ATOM      3  O   UNL     1      -0.131  12.502  19.985  0.00  0.00    +0.000 OA
ATOM      4  C   UNL     1      -0.129  10.669  21.421  0.00  0.00    +0.000 A 
ATOM      5  C   UNL     1      -0.854  11.085  22.513  0.00  0.00    +0.000 A 
ATOM      6  N   UNL     1      -0.887  10.015  23.358  0.00  0.00    +0.000 N 
ATOM      7  N   UNL     1      -0.231   8.935  22.888  0.00  0.00    +0.000 NA
ATOM      8  C   UNL     1       0.231   9.345  21.700  0.00  0.00    +0.000 A 
ATOM      9  C   UNL     1       1.001   8.574  20.756  0.00  0.00    +0.000 A 
ATOM     10  C   UNL     1       1.349   7.250  21.020  0.00  0.00    +0.000 A 
ATOM     11  C   UNL     1       2.099   6.532  20.093  0.00  0.00    +0.000 A 
ATOM     12  C   UNL     1       2.509   7.106  18.878  0.00  0.00    +0.000 A 
ATOM     13  C   UNL     1       2.133   8.446  18.627  0.00  0.00    +0.000 A 
ATOM     14  C   UNL     1       1.385   9.205  19.550  0.00  0.00    +0.000 A 
ATOM     15  H   UNL     1      -1.340   9.943  24.263  0.00  0.00    +0.000 HD
ENDROOT
BRANCH  12  16
ATOM     16  C   UNL     1       3.331   6.323  17.922  0.00  0.00    +0.000 A 
ATOM     17  C   UNL     1       3.188   4.923  17.821  0.00  0.00    +0.000 A 
ATOM     18  C   UNL     1       4.029   4.158  17.009  0.00  0.00    +0.000 A 
ATOM     19  C   UNL     1       5.012   4.788  16.261  0.00  0.00    +0.000 A 
ATOM     20  F   UNL     1       5.837   4.056  15.502  0.00  0.00    +0.000 F 
ATOM     21  C   UNL     1       5.154   6.168  16.298  0.00  0.00    +0.000 A 
ATOM     22  C   UNL     1       4.320   6.930  17.125  0.00  0.00    +0.000 A 
ENDBRANCH  12  16
BRANCH   1  24
ATOM     23  C   UNL     1       2.518  12.153  18.136  0.00  0.00    +0.000 C 
ATOM     24  C   UNL     1       1.319  11.222  18.020  0.00  0.00    +0.000 C 
ENDBRANCH   1  24
TORSDOF 2
ENDMDL
MODEL 9
REMARK VINA RESULT:      -7.5      4.456      7.796
REMARK  Name = 
REMARK  3 active torsions:
REMARK  status: ('A' for Active; 'I' for Inactive)
REMARK    1  A    between atoms: C_1  and  C_2
REMARK    2  A    between atoms: C_2  and  N_3
REMARK    3  A    between atoms: C_14  and  C_15
REMARK                            x       y       z     vdW  Elec       q    Type
REMARK                         _______ _______ _______ _____ _____    ______ ____
ROOT
ATOM      1  N   UNL     1       1.041  10.530  19.273  0.00  0.00    +0.000 N 
ATOM      2  C   UNL     1       0.241  11.305  20.150  0.00  0.00    +0.000 A 
ATOM      3  O   UNL     1      -0.119  12.454  19.907  0.00  0.00    +0.000 OA
ATOM      4  C   UNL     1      -0.146  10.643  21.370  0.00  0.00    +0.000 A 
ATOM      5  C   UNL     1      -0.898  11.073  22.438  0.00  0.00    +0.000 A 
ATOM      6  N   UNL     1      -0.949  10.015  23.298  0.00  0.00    +0.000 N 
ATOM      7  N   UNL     1      -0.279   8.931  22.860  0.00  0.00    +0.000 NA
ATOM      8  C   UNL     1       0.210   9.324  21.677  0.00  0.00    +0.000 A 
ATOM      9  C   UNL     1       1.005   8.541  20.763  0.00  0.00    +0.000 A 
ATOM     10  C   UNL     1       1.350   7.222  21.056  0.00  0.00    +0.000 A 
ATOM     11  C   UNL     1       2.124   6.493  20.158  0.00  0.00    +0.000 A 
ATOM     12  C   UNL     1       2.561   7.050  18.945  0.00  0.00    +0.000 A 
ATOM     13  C   UNL     1       2.188   8.384  18.665  0.00  0.00    +0.000 A 
ATOM     14  C   UNL     1       1.416   9.155  19.558  0.00  0.00    +0.000 A 
ATOM     15  H   UNL     1      -1.423   9.956  24.193  0.00  0.00    +0.000 HD
ENDROOT
BRANCH  12  16
ATOM     16  C   UNL     1       3.408   6.254  18.021  0.00  0.00    +0.000 A 
ATOM     17  C   UNL     1       4.345   6.884  17.174  0.00  0.00    +0.000 A 
ATOM     18  C   UNL     1       5.070   6.163  16.222  0.00  0.00    +0.000 A 
ATOM     19  C   UNL     1       4.888   4.793  16.121  0.00  0.00    +0.000 A 
ATOM     20  F   UNL     1       5.561   4.103  15.191  0.00  0.00    +0.000 F 
ATOM     21  C   UNL     1       4.011   4.130  16.967  0.00  0.00    +0.000 A 
ATOM     22  C   UNL     1       3.274   4.857  17.909  0.00  0.00    +0.000 A 
ENDBRANCH  12  16
BRANCH   1  24
ATOM     23  C   UNL     1       2.546  12.119  18.136  0.00  0.00    +0.000 C 
ATOM     24  C   UNL     1       1.382  11.149  17.997  0.00  0.00    +0.000 C 
ENDBRANCH   1  24
TORSDOF 2
ENDMDL
