MODEL 1
REMARK VINA RESULT:      -7.8      0.000      0.000
REMARK  Name = 
REMARK  6 active torsions:
REMARK  status: ('A' for Active; 'I' for Inactive)
REMARK    1  A    between atoms: C_1  and  O_2
REMARK    2  A    between atoms: O_2  and  C_3
REMARK    3  A    between atoms: C_6  and  C_7
REMARK    4  A    between atoms: C_7  and  N_8
REMARK    5  A    between atoms: N_8  and  S_9
REMARK    6  A    between atoms: S_9  and  C_12
REMARK                            x       y       z     vdW  Elec       q    Type
REMARK                         _______ _______ _______ _____ _____    ______ ____
ROOT
ATOM      1  S   UNL     1       2.158   3.755  19.449  0.00  0.00    +0.000 S 
ATOM      2  O   UNL     1       0.796   3.311  19.636  0.00  0.00    +0.000 OA
ATOM      3  O   UNL     1       3.219   3.360  20.352  0.00  0.00    +0.000 OA
ENDROOT
BRANCH   1   4
ATOM      4  C   UNL     1       2.137   5.522  19.351  0.00  0.00    +0.000 A 
ATOM      5  C   UNL     1       2.376   6.188  18.140  0.00  0.00    +0.000 A 
ATOM      6  C   UNL     1       2.219   7.580  18.071  0.00  0.00    +0.000 A 
ATOM      7  C   UNL     1       1.850   8.294  19.215  0.00  0.00    +0.000 A 
ATOM      8  C   UNL     1       1.753   7.613  20.434  0.00  0.00    +0.000 A 
ATOM      9  C   UNL     1       1.863   6.233  20.515  0.00  0.00    +0.000 A 
ATOM     10  N   UNL     1       1.520   8.350  21.620  0.00  0.00    +0.000 N 
ATOM     11  C   UNL     1       0.326   9.048  21.556  0.00  0.00    +0.000 C 
ATOM     12  O   UNL     1      -0.636   8.761  22.263  0.00  0.00    +0.000 OA
ATOM     13  C   UNL     1       0.319  10.222  20.590  0.00  0.00    +0.000 C 
ATOM     14  S   UNL     1       1.466  10.040  19.151  0.00  0.00    +0.000 S 
ATOM     15  H   UNL     1       2.246   9.068  21.634  0.00  0.00    +0.000 HD
ENDBRANCH   1   4
BRANCH   1  16
ATOM     16  N   UNL     1       2.603   3.330  17.886  0.00  0.00    +0.000 NA
ATOM     17  H   UNL     1       1.863   2.851  17.375  0.00  0.00    +0.000 HD
BRANCH  16  18
ATOM     18  C   UNL     1       3.976   2.872  17.677  0.00  0.00    +0.000 C 
BRANCH  18  22
ATOM     19  C   UNL     1       6.806   6.035  16.802  0.00  0.00    +0.000 A 
ATOM     20  C   UNL     1       6.752   5.466  18.078  0.00  0.00    +0.000 A 
ATOM     21  C   UNL     1       5.832   4.458  18.374  0.00  0.00    +0.000 A 
ATOM     22  C   UNL     1       4.934   4.006  17.396  0.00  0.00    +0.000 A 
ATOM     23  C   UNL     1       4.973   4.600  16.127  0.00  0.00    +0.000 A 
ATOM     24  C   UNL     1       5.899   5.611  15.833  0.00  0.00    +0.000 A 
BRANCH  19  26
ATOM     25  C   UNL     1       7.725   8.075  17.578  0.00  0.00    +0.000 C 
ATOM     26  O   UNL     1       7.749   7.011  16.632  0.00  0.00    +0.000 OA
ENDBRANCH  19  26
ENDBRANCH  18  22
ENDBRANCH  16  18
ENDBRANCH   1  16
TORSDOF 5
ENDMDL
MODEL 2
REMARK VINA RESULT:      -7.6      2.121      6.790
REMARK  Name = 
REMARK  6 active torsions:
REMARK  status: ('A' for Active; 'I' for Inactive)
REMARK    1  A    between atoms: C_1  and  O_2
REMARK    2  A    between atoms: O_2  and  C_3
REMARK    3  A    between atoms: C_6  and  C_7
REMARK    4  A    between atoms: C_7  and  N_8
REMARK    5  A    between atoms: N_8  and  S_9
REMARK    6  A    between atoms: S_9  and  C_12
REMARK                            x       y       z     vdW  Elec       q    Type
REMARK                         _______ _______ _______ _____ _____    ______ ____
ROOT
ATOM      1  S   UNL     1       1.939   4.289  20.715  0.00  0.00    +0.000 S 
ATOM      2  O   UNL     1       2.477   3.524  21.816  0.00  0.00    +0.000 OA
ATOM      3  O   UNL     1       0.563   4.148  20.288  0.00  0.00    +0.000 OA
ENDROOT
BRANCH   1   4
ATOM      4  C   UNL     1       2.988   4.021  19.314  0.00  0.00    +0.000 A 
ATOM      5  C   UNL     1       2.458   3.687  18.059  0.00  0.00    +0.000 A 
ATOM      6  C   UNL     1       3.306   3.615  16.945  0.00  0.00    +0.000 A 
ATOM      7  C   UNL     1       4.675   3.851  17.098  0.00  0.00    +0.000 A 
ATOM      8  C   UNL     1       5.187   4.048  18.387  0.00  0.00    +0.000 A 
ATOM      9  C   UNL     1       4.360   4.165  19.495  0.00  0.00    +0.000 A 
ATOM     10  N   UNL     1       6.587   4.146  18.567  0.00  0.00    +0.000 N 
ATOM     11  C   UNL     1       7.116   5.210  17.855  0.00  0.00    +0.000 C 
ATOM     12  O   UNL     1       7.582   6.200  18.413  0.00  0.00    +0.000 OA
ATOM     13  C   UNL     1       7.122   5.034  16.345  0.00  0.00    +0.000 C 
ATOM     14  S   UNL     1       5.778   3.945  15.693  0.00  0.00    +0.000 S 
ATOM     15  H   UNL     1       6.972   3.312  18.120  0.00  0.00    +0.000 HD
ENDBRANCH   1   4
BRANCH   1  16
ATOM     16  N   UNL     1       2.229   5.909  21.055  0.00  0.00    +0.000 NA
ATOM     17  H   UNL     1       1.837   6.207  21.947  0.00  0.00    +0.000 HD
BRANCH  16  18
ATOM     18  C   UNL     1       2.170   6.853  19.940  0.00  0.00    +0.000 C 
BRANCH  18  22
ATOM     19  C   UNL     1       0.273  10.609  20.972  0.00  0.00    +0.000 A 
ATOM     20  C   UNL     1       0.431   9.608  21.935  0.00  0.00    +0.000 A 
ATOM     21  C   UNL     1       1.027   8.388  21.607  0.00  0.00    +0.000 A 
ATOM     22  C   UNL     1       1.466   8.140  20.299  0.00  0.00    +0.000 A 
ATOM     23  C   UNL     1       1.277   9.136  19.331  0.00  0.00    +0.000 A 
ATOM     24  C   UNL     1       0.681  10.360  19.664  0.00  0.00    +0.000 A 
BRANCH  19  26
ATOM     25  C   UNL     1      -0.928  11.699  22.699  0.00  0.00    +0.000 C 
ATOM     26  O   UNL     1      -0.321  11.760  21.412  0.00  0.00    +0.000 OA
ENDBRANCH  19  26
ENDBRANCH  18  22
ENDBRANCH  16  18
ENDBRANCH   1  16
TORSDOF 5
ENDMDL
MODEL 3
REMARK VINA RESULT:      -7.5      2.156      6.509
REMARK  Name = 
REMARK  6 active torsions:
REMARK  status: ('A' for Active; 'I' for Inactive)
REMARK    1  A    between atoms: C_1  and  O_2
REMARK    2  A    between atoms: O_2  and  C_3
REMARK    3  A    between atoms: C_6  and  C_7
REMARK    4  A    between atoms: C_7  and  N_8
REMARK    5  A    between atoms: N_8  and  S_9
REMARK    6  A    between atoms: S_9  and  C_12
REMARK                            x       y       z     vdW  Elec       q    Type
REMARK                         _______ _______ _______ _____ _____    ______ ____
ROOT
ATOM      1  S   UNL     1       1.902   4.327  20.624  0.00  0.00    +0.000 S 
ATOM      2  O   UNL     1       2.484   3.678  21.776  0.00  0.00    +0.000 OA
ATOM      3  O   UNL     1       0.543   4.061  20.205  0.00  0.00    +0.000 OA
ENDROOT
BRANCH   1   4
ATOM      4  C   UNL     1       2.978   4.040  19.248  0.00  0.00    +0.000 A 
ATOM      5  C   UNL     1       2.470   3.708  17.983  0.00  0.00    +0.000 A 
ATOM      6  C   UNL     1       3.342   3.620  16.888  0.00  0.00    +0.000 A 
ATOM      7  C   UNL     1       4.710   3.839  17.070  0.00  0.00    +0.000 A 
ATOM      8  C   UNL     1       5.196   4.033  18.369  0.00  0.00    +0.000 A 
ATOM      9  C   UNL     1       4.347   4.165  19.458  0.00  0.00    +0.000 A 
ATOM     10  N   UNL     1       6.593   4.113  18.579  0.00  0.00    +0.000 N 
ATOM     11  C   UNL     1       7.152   5.167  17.876  0.00  0.00    +0.000 C 
ATOM     12  O   UNL     1       7.620   6.153  18.440  0.00  0.00    +0.000 OA
ATOM     13  C   UNL     1       7.189   4.985  16.367  0.00  0.00    +0.000 C 
ATOM     14  S   UNL     1       5.844   3.912  15.689  0.00  0.00    +0.000 S 
ATOM     15  H   UNL     1       6.976   3.272  18.144  0.00  0.00    +0.000 HD
ENDBRANCH   1   4
BRANCH   1  16
ATOM     16  N   UNL     1       2.075   5.983  20.854  0.00  0.00    +0.000 NA
ATOM     17  H   UNL     1       1.379   6.374  21.488  0.00  0.00    +0.000 HD
BRANCH  16  18
ATOM     18  C   UNL     1       2.466   6.787  19.698  0.00  0.00    +0.000 C 
BRANCH  18  22
ATOM     19  C   UNL     1       0.507  10.648  19.516  0.00  0.00    +0.000 A 
ATOM     20  C   UNL     1       0.504   9.907  20.702  0.00  0.00    +0.000 A 
ATOM     21  C   UNL     1       1.119   8.655  20.765  0.00  0.00    +0.000 A 
ATOM     22  C   UNL     1       1.740   8.110  19.633  0.00  0.00    +0.000 A 
ATOM     23  C   UNL     1       1.713   8.843  18.438  0.00  0.00    +0.000 A 
ATOM     24  C   UNL     1       1.097  10.101  18.379  0.00  0.00    +0.000 A 
BRANCH  19  26
ATOM     25  C   UNL     1      -0.962  12.186  18.473  0.00  0.00    +0.000 C 
ATOM     26  O   UNL     1      -0.124  11.860  19.577  0.00  0.00    +0.000 OA
ENDBRANCH  19  26
ENDBRANCH  18  22
ENDBRANCH  16  18
ENDBRANCH   1  16
TORSDOF 5
ENDMDL
MODEL 4
REMARK VINA RESULT:      -7.5      1.128      1.720
REMARK  Name = 
REMARK  6 active torsions:
REMARK  status: ('A' for Active; 'I' for Inactive)
REMARK    1  A    between atoms: C_1  and  O_2
REMARK    2  A    between atoms: O_2  and  C_3
REMARK    3  A    between atoms: C_6  and  C_7
REMARK    4  A    between atoms: C_7  and  N_8
REMARK    5  A    between atoms: N_8  and  S_9
REMARK    6  A    between atoms: S_9  and  C_12
REMARK                            x       y       z     vdW  Elec       q    Type
REMARK                         _______ _______ _______ _____ _____    ______ ____
ROOT
ATOM      1  S   UNL     1       1.879   3.290  19.398  0.00  0.00    +0.000 S 
ATOM      2  O   UNL     1       0.946   2.828  18.397  0.00  0.00    +0.000 OA
ATOM      3  O   UNL     1       1.708   2.979  20.802  0.00  0.00    +0.000 OA
ENDROOT
BRANCH   1   4
ATOM      4  C   UNL     1       2.021   5.046  19.229  0.00  0.00    +0.000 A 
ATOM      5  C   UNL     1       2.312   5.639  17.992  0.00  0.00    +0.000 A 
ATOM      6  C   UNL     1       2.283   7.035  17.868  0.00  0.00    +0.000 A 
ATOM      7  C   UNL     1       1.989   7.825  18.983  0.00  0.00    +0.000 A 
ATOM      8  C   UNL     1       1.838   7.205  20.229  0.00  0.00    +0.000 A 
ATOM      9  C   UNL     1       1.821   5.825  20.365  0.00  0.00    +0.000 A 
ATOM     10  N   UNL     1       1.683   8.007  21.385  0.00  0.00    +0.000 N 
ATOM     11  C   UNL     1       0.558   8.809  21.298  0.00  0.00    +0.000 C 
ATOM     12  O   UNL     1      -0.422   8.640  22.019  0.00  0.00    +0.000 OA
ATOM     13  C   UNL     1       0.652   9.939  20.285  0.00  0.00    +0.000 C 
ATOM     14  S   UNL     1       1.767   9.595  18.851  0.00  0.00    +0.000 S 
ATOM     15  H   UNL     1       2.472   8.655  21.368  0.00  0.00    +0.000 HD
ENDBRANCH   1   4
BRANCH   1  16
ATOM     16  N   UNL     1       3.406   2.776  18.921  0.00  0.00    +0.000 NA
ATOM     17  H   UNL     1       3.515   1.763  18.950  0.00  0.00    +0.000 HD
BRANCH  16  18
ATOM     18  C   UNL     1       4.549   3.591  19.326  0.00  0.00    +0.000 C 
BRANCH  18  22
ATOM     19  C   UNL     1       6.910   5.008  15.979  0.00  0.00    +0.000 A 
ATOM     20  C   UNL     1       5.786   4.204  15.763  0.00  0.00    +0.000 A 
ATOM     21  C   UNL     1       5.029   3.730  16.837  0.00  0.00    +0.000 A 
ATOM     22  C   UNL     1       5.391   4.041  18.155  0.00  0.00    +0.000 A 
ATOM     23  C   UNL     1       6.536   4.822  18.366  0.00  0.00    +0.000 A 
ATOM     24  C   UNL     1       7.293   5.299  17.287  0.00  0.00    +0.000 A 
BRANCH  19  26
ATOM     25  C   UNL     1       7.152   4.809  13.631  0.00  0.00    +0.000 C 
ATOM     26  O   UNL     1       7.569   5.414  14.851  0.00  0.00    +0.000 OA
ENDBRANCH  19  26
ENDBRANCH  18  22
ENDBRANCH  16  18
ENDBRANCH   1  16
TORSDOF 5
ENDMDL
MODEL 5
REMARK VINA RESULT:      -7.4      2.217      6.408
REMARK  Name = 
REMARK  6 active torsions:
REMARK  status: ('A' for Active; 'I' for Inactive)
REMARK    1  A    between atoms: C_1  and  O_2
REMARK    2  A    between atoms: O_2  and  C_3
REMARK    3  A    between atoms: C_6  and  C_7
REMARK    4  A    between atoms: C_7  and  N_8
REMARK    5  A    between atoms: N_8  and  S_9
REMARK    6  A    between atoms: S_9  and  C_12
REMARK                            x       y       z     vdW  Elec       q    Type
REMARK                         _______ _______ _______ _____ _____    ______ ____
ROOT
ATOM      1  S   UNL     1       1.835   4.107  20.687  0.00  0.00    +0.000 S 
ATOM      2  O   UNL     1       2.516   3.589  21.852  0.00  0.00    +0.000 OA
ATOM      3  O   UNL     1       0.514   3.651  20.312  0.00  0.00    +0.000 OA
ENDROOT
BRANCH   1   4
ATOM      4  C   UNL     1       2.913   3.897  19.299  0.00  0.00    +0.000 A 
ATOM      5  C   UNL     1       2.411   3.593  18.025  0.00  0.00    +0.000 A 
ATOM      6  C   UNL     1       3.281   3.568  16.925  0.00  0.00    +0.000 A 
ATOM      7  C   UNL     1       4.643   3.821  17.111  0.00  0.00    +0.000 A 
ATOM      8  C   UNL     1       5.127   3.986  18.414  0.00  0.00    +0.000 A 
ATOM      9  C   UNL     1       4.279   4.057  19.510  0.00  0.00    +0.000 A 
ATOM     10  N   UNL     1       6.523   4.100  18.623  0.00  0.00    +0.000 N 
ATOM     11  C   UNL     1       7.047   5.193  17.953  0.00  0.00    +0.000 C 
ATOM     12  O   UNL     1       7.488   6.173  18.549  0.00  0.00    +0.000 OA
ATOM     13  C   UNL     1       7.084   5.063  16.439  0.00  0.00    +0.000 C 
ATOM     14  S   UNL     1       5.769   3.973  15.730  0.00  0.00    +0.000 S 
ATOM     15  H   UNL     1       6.929   3.286  18.159  0.00  0.00    +0.000 HD
ENDBRANCH   1   4
BRANCH   1  16
ATOM     16  N   UNL     1       1.798   5.780  20.843  0.00  0.00    +0.000 NA
ATOM     17  H   UNL     1       0.884   6.136  21.119  0.00  0.00    +0.000 HD
BRANCH  16  18
ATOM     18  C   UNL     1       2.569   6.564  19.880  0.00  0.00    +0.000 C 
BRANCH  18  22
ATOM     19  C   UNL     1       0.626  10.334  18.994  0.00  0.00    +0.000 A 
ATOM     20  C   UNL     1       1.356   9.665  18.007  0.00  0.00    +0.000 A 
ATOM     21  C   UNL     1       1.999   8.457  18.288  0.00  0.00    +0.000 A 
ATOM     22  C   UNL     1       1.935   7.900  19.573  0.00  0.00    +0.000 A 
ATOM     23  C   UNL     1       1.227   8.591  20.566  0.00  0.00    +0.000 A 
ATOM     24  C   UNL     1       0.580   9.802  20.281  0.00  0.00    +0.000 A 
BRANCH  19  26
ATOM     25  C   UNL     1      -1.257  11.765  19.132  0.00  0.00    +0.000 C 
ATOM     26  O   UNL     1       0.038  11.505  18.600  0.00  0.00    +0.000 OA
ENDBRANCH  19  26
ENDBRANCH  18  22
ENDBRANCH  16  18
ENDBRANCH   1  16
TORSDOF 5
ENDMDL
MODEL 6
REMARK VINA RESULT:      -7.4      1.129      1.483
REMARK  Name = 
REMARK  6 active torsions:
REMARK  status: ('A' for Active; 'I' for Inactive)
REMARK    1  A    between atoms: C_1  and  O_2
REMARK    2  A    between atoms: O_2  and  C_3
REMARK    3  A    between atoms: C_6  and  C_7
REMARK    4  A    between atoms: C_7  and  N_8
REMARK    5  A    between atoms: N_8  and  S_9
REMARK    6  A    between atoms: S_9  and  C_12
REMARK                            x       y       z     vdW  Elec       q    Type
REMARK                         _______ _______ _______ _____ _____    ______ ____
ROOT
ATOM      1  S   UNL     1       1.814   3.139  19.665  0.00  0.00    +0.000 S 
ATOM      2  O   UNL     1       0.777   2.642  18.790  0.00  0.00    +0.000 OA
ATOM      3  O   UNL     1       1.781   2.906  21.094  0.00  0.00    +0.000 OA
ENDROOT
BRANCH   1   4
ATOM      4  C   UNL     1       1.961   4.881  19.387  0.00  0.00    +0.000 A 
ATOM      5  C   UNL     1       2.201   5.397  18.105  0.00  0.00    +0.000 A 
ATOM      6  C   UNL     1       2.178   6.784  17.900  0.00  0.00    +0.000 A 
ATOM      7  C   UNL     1       1.939   7.641  18.979  0.00  0.00    +0.000 A 
ATOM      8  C   UNL     1       1.839   7.096  20.265  0.00  0.00    +0.000 A 
ATOM      9  C   UNL     1       1.817   5.727  20.482  0.00  0.00    +0.000 A 
ATOM     10  N   UNL     1       1.740   7.966  21.377  0.00  0.00    +0.000 N 
ATOM     11  C   UNL     1       0.619   8.773  21.291  0.00  0.00    +0.000 C 
ATOM     12  O   UNL     1      -0.330   8.657  22.063  0.00  0.00    +0.000 OA
ATOM     13  C   UNL     1       0.677   9.841  20.210  0.00  0.00    +0.000 C 
ATOM     14  S   UNL     1       1.725   9.402  18.752  0.00  0.00    +0.000 S 
ATOM     15  H   UNL     1       2.533   8.604  21.287  0.00  0.00    +0.000 HD
ENDBRANCH   1   4
BRANCH   1  16
ATOM     16  N   UNL     1       3.277   2.571  19.065  0.00  0.00    +0.000 NA
ATOM     17  H   UNL     1       3.320   1.555  19.012  0.00  0.00    +0.000 HD
BRANCH  16  18
ATOM     18  C   UNL     1       4.490   3.281  19.466  0.00  0.00    +0.000 C 
BRANCH  18  22
ATOM     19  C   UNL     1       6.679   4.887  16.088  0.00  0.00    +0.000 A 
ATOM     20  C   UNL     1       7.011   5.267  17.392  0.00  0.00    +0.000 A 
ATOM     21  C   UNL     1       6.301   4.767  18.485  0.00  0.00    +0.000 A 
ATOM     22  C   UNL     1       5.229   3.883  18.294  0.00  0.00    +0.000 A 
ATOM     23  C   UNL     1       4.882   3.530  16.983  0.00  0.00    +0.000 A 
ATOM     24  C   UNL     1       5.598   4.031  15.887  0.00  0.00    +0.000 A 
BRANCH  19  26
ATOM     25  C   UNL     1       7.274   4.896  13.795  0.00  0.00    +0.000 C 
ATOM     26  O   UNL     1       7.447   5.439  15.100  0.00  0.00    +0.000 OA
ENDBRANCH  19  26
ENDBRANCH  18  22
ENDBRANCH  16  18
ENDBRANCH   1  16
TORSDOF 5
ENDMDL
MODEL 7
REMARK VINA RESULT:      -7.4      2.378      5.935
REMARK  Name = 
REMARK  6 active torsions:
REMARK  status: ('A' for Active; 'I' for Inactive)
REMARK    1  A    between atoms: C_1  and  O_2
REMARK    2  A    between atoms: O_2  and  C_3
REMARK    3  A    between atoms: C_6  and  C_7
REMARK    4  A    between atoms: C_7  and  N_8
REMARK    5  A    between atoms: N_8  and  S_9
REMARK    6  A    between atoms: S_9  and  C_12
REMARK                            x       y       z     vdW  Elec       q    Type
REMARK                         _______ _______ _______ _____ _____    ______ ____
ROOT
ATOM      1  S   UNL     1       2.234   2.828  19.915  0.00  0.00    +0.000 S 
ATOM      2  O   UNL     1       2.985   2.606  21.129  0.00  0.00    +0.000 OA
ATOM      3  O   UNL     1       1.380   1.805  19.349  0.00  0.00    +0.000 OA
ENDROOT
BRANCH   1   4
ATOM      4  C   UNL     1       3.375   3.355  18.668  0.00  0.00    +0.000 A 
ATOM      5  C   UNL     1       2.956   3.595  17.351  0.00  0.00    +0.000 A 
ATOM      6  C   UNL     1       3.858   4.140  16.425  0.00  0.00    +0.000 A 
ATOM      7  C   UNL     1       5.171   4.416  16.815  0.00  0.00    +0.000 A 
ATOM      8  C   UNL     1       5.589   4.037  18.098  0.00  0.00    +0.000 A 
ATOM      9  C   UNL     1       4.703   3.537  19.040  0.00  0.00    +0.000 A 
ATOM     10  N   UNL     1       6.952   4.182  18.450  0.00  0.00    +0.000 N 
ATOM     11  C   UNL     1       7.359   5.503  18.367  0.00  0.00    +0.000 C 
ATOM     12  O   UNL     1       7.655   6.159  19.362  0.00  0.00    +0.000 OA
ATOM     13  C   UNL     1       7.461   6.056  16.954  0.00  0.00    +0.000 C 
ATOM     14  S   UNL     1       6.314   5.268  15.736  0.00  0.00    +0.000 S 
ATOM     15  H   UNL     1       7.470   3.698  17.716  0.00  0.00    +0.000 HD
ENDBRANCH   1   4
BRANCH   1  16
ATOM     16  N   UNL     1       1.317   4.217  20.150  0.00  0.00    +0.000 NA
ATOM     17  H   UNL     1       0.803   4.503  19.319  0.00  0.00    +0.000 HD
BRANCH  16  18
ATOM     18  C   UNL     1       1.891   5.269  20.987  0.00  0.00    +0.000 C 
BRANCH  18  22
ATOM     19  C   UNL     1       1.555   9.159  19.108  0.00  0.00    +0.000 A 
ATOM     20  C   UNL     1       2.192   8.105  18.445  0.00  0.00    +0.000 A 
ATOM     21  C   UNL     1       2.320   6.853  19.050  0.00  0.00    +0.000 A 
ATOM     22  C   UNL     1       1.821   6.633  20.342  0.00  0.00    +0.000 A 
ATOM     23  C   UNL     1       1.209   7.701  21.012  0.00  0.00    +0.000 A 
ATOM     24  C   UNL     1       1.081   8.957  20.402  0.00  0.00    +0.000 A 
BRANCH  19  26
ATOM     25  C   UNL     1       0.482  11.253  18.832  0.00  0.00    +0.000 C 
ATOM     26  O   UNL     1       1.488  10.336  18.414  0.00  0.00    +0.000 OA
ENDBRANCH  19  26
ENDBRANCH  18  22
ENDBRANCH  16  18
ENDBRANCH   1  16
TORSDOF 5
ENDMDL
MODEL 8
REMARK VINA RESULT:      -7.4      3.677      5.848
REMARK  Name = 
REMARK  6 active torsions:
REMARK  status: ('A' for Active; 'I' for Inactive)
REMARK    1  A    between atoms: C_1  and  O_2
REMARK    2  A    between atoms: O_2  and  C_3
REMARK    3  A    between atoms: C_6  and  C_7
REMARK    4  A    between atoms: C_7  and  N_8
REMARK    5  A    between atoms: N_8  and  S_9
REMARK    6  A    between atoms: S_9  and  C_12
REMARK                            x       y       z     vdW  Elec       q    Type
REMARK                         _______ _______ _______ _____ _____    ______ ____
ROOT
ATOM      1  S   UNL     1       7.420   5.850  18.119  0.00  0.00    +0.000 S 
ATOM      2  O   UNL     1       8.133   5.158  19.168  0.00  0.00    +0.000 OA
ATOM      3  O   UNL     1       7.569   7.274  17.907  0.00  0.00    +0.000 OA
ENDROOT
BRANCH   1   4
ATOM      4  C   UNL     1       5.698   5.492  18.316  0.00  0.00    +0.000 A 
ATOM      5  C   UNL     1       4.712   6.353  17.812  0.00  0.00    +0.000 A 
ATOM      6  C   UNL     1       3.364   5.972  17.868  0.00  0.00    +0.000 A 
ATOM      7  C   UNL     1       3.012   4.749  18.447  0.00  0.00    +0.000 A 
ATOM      8  C   UNL     1       4.009   3.980  19.059  0.00  0.00    +0.000 A 
ATOM      9  C   UNL     1       5.351   4.318  18.978  0.00  0.00    +0.000 A 
ATOM     10  N   UNL     1       3.641   2.812  19.770  0.00  0.00    +0.000 N 
ATOM     11  C   UNL     1       3.002   1.899  18.949  0.00  0.00    +0.000 C 
ATOM     12  O   UNL     1       3.514   0.824  18.645  0.00  0.00    +0.000 OA
ATOM     13  C   UNL     1       1.607   2.304  18.500  0.00  0.00    +0.000 C 
ATOM     14  S   UNL     1       1.334   4.130  18.393  0.00  0.00    +0.000 S 
ATOM     15  H   UNL     1       2.926   3.118  20.432  0.00  0.00    +0.000 HD
ENDBRANCH   1   4
BRANCH   1  16
ATOM     16  N   UNL     1       7.773   5.057  16.680  0.00  0.00    +0.000 NA
ATOM     17  H   UNL     1       8.616   4.487  16.733  0.00  0.00    +0.000 HD
BRANCH  16  18
ATOM     18  C   UNL     1       7.519   5.777  15.433  0.00  0.00    +0.000 C 
BRANCH  18  22
ATOM     19  C   UNL     1       5.687   3.391  12.315  0.00  0.00    +0.000 A 
ATOM     20  C   UNL     1       5.040   3.571  13.541  0.00  0.00    +0.000 A 
ATOM     21  C   UNL     1       5.631   4.324  14.558  0.00  0.00    +0.000 A 
ATOM     22  C   UNL     1       6.893   4.905  14.371  0.00  0.00    +0.000 A 
ATOM     23  C   UNL     1       7.550   4.697  13.150  0.00  0.00    +0.000 A 
ATOM     24  C   UNL     1       6.953   3.942  12.130  0.00  0.00    +0.000 A 
BRANCH  19  26
ATOM     25  C   UNL     1       3.723   3.116  11.020  0.00  0.00    +0.000 C 
ATOM     26  O   UNL     1       5.009   2.637  11.396  0.00  0.00    +0.000 OA
ENDBRANCH  19  26
ENDBRANCH  18  22
ENDBRANCH  16  18
ENDBRANCH   1  16
TORSDOF 5
ENDMDL
MODEL 9
REMARK VINA RESULT:      -7.3      2.359      5.807
REMARK  Name = 
REMARK  6 active torsions:
REMARK  status: ('A' for Active; 'I' for Inactive)
REMARK    1  A    between atoms: C_1  and  O_2
REMARK    2  A    between atoms: O_2  and  C_3
REMARK    3  A    between atoms: C_6  and  C_7
REMARK    4  A    between atoms: C_7  and  N_8
REMARK    5  A    between atoms: N_8  and  S_9
REMARK    6  A    between atoms: S_9  and  C_12
REMARK                            x       y       z     vdW  Elec       q    Type
REMARK                         _______ _______ _______ _____ _____    ______ ____
ROOT
ATOM      1  S   UNL     1       2.201   2.883  20.095  0.00  0.00    +0.000 S 
ATOM      2  O   UNL     1       3.001   2.561  21.254  0.00  0.00    +0.000 OA
ATOM      3  O   UNL     1       1.256   1.941  19.535  0.00  0.00    +0.000 OA
ENDROOT
BRANCH   1   4
ATOM      4  C   UNL     1       3.305   3.397  18.809  0.00  0.00    +0.000 A 
ATOM      5  C   UNL     1       2.846   3.636  17.506  0.00  0.00    +0.000 A 
ATOM      6  C   UNL     1       3.721   4.170  16.549  0.00  0.00    +0.000 A 
ATOM      7  C   UNL     1       5.049   4.435  16.895  0.00  0.00    +0.000 A 
ATOM      8  C   UNL     1       5.505   4.056  18.164  0.00  0.00    +0.000 A 
ATOM      9  C   UNL     1       4.647   3.567  19.137  0.00  0.00    +0.000 A 
ATOM     10  N   UNL     1       6.881   4.190  18.471  0.00  0.00    +0.000 N 
ATOM     11  C   UNL     1       7.297   5.507  18.369  0.00  0.00    +0.000 C 
ATOM     12  O   UNL     1       7.632   6.163  19.352  0.00  0.00    +0.000 OA
ATOM     13  C   UNL     1       7.357   6.054  16.952  0.00  0.00    +0.000 C 
ATOM     14  S   UNL     1       6.164   5.273  15.775  0.00  0.00    +0.000 S 
ATOM     15  H   UNL     1       7.370   3.699  17.721  0.00  0.00    +0.000 HD
ENDBRANCH   1   4
BRANCH   1  16
ATOM     16  N   UNL     1       1.389   4.313  20.440  0.00  0.00    +0.000 NA
ATOM     17  H   UNL     1       0.671   4.541  19.754  0.00  0.00    +0.000 HD
BRANCH  16  18
ATOM     18  C   UNL     1       2.172   5.417  20.993  0.00  0.00    +0.000 C 
BRANCH  18  22
ATOM     19  C   UNL     1       1.449   9.247  19.098  0.00  0.00    +0.000 A 
ATOM     20  C   UNL     1       0.944   8.982  20.375  0.00  0.00    +0.000 A 
ATOM     21  C   UNL     1       1.158   7.744  20.986  0.00  0.00    +0.000 A 
ATOM     22  C   UNL     1       1.875   6.738  20.323  0.00  0.00    +0.000 A 
ATOM     23  C   UNL     1       2.353   6.999  19.031  0.00  0.00    +0.000 A 
ATOM     24  C   UNL     1       2.138   8.243  18.421  0.00  0.00    +0.000 A 
BRANCH  19  26
ATOM     25  C   UNL     1       2.283  11.202  18.053  0.00  0.00    +0.000 C 
ATOM     26  O   UNL     1       1.178  10.493  18.605  0.00  0.00    +0.000 OA
ENDBRANCH  19  26
ENDBRANCH  18  22
ENDBRANCH  16  18
ENDBRANCH   1  16
TORSDOF 5
ENDMDL
