MODEL 1
REMARK VINA RESULT:      -5.9      0.000      0.000
REMARK  Name = 
REMARK  13 active torsions:
REMARK  status: ('A' for Active; 'I' for Inactive)
REMARK    1  A    between atoms: C_1  and  C_2
REMARK    2  A    between atoms: C_2  and  C_3
REMARK    3  A    between atoms: C_3  and  C_4
REMARK    4  A    between atoms: C_3  and  N_11
REMARK    5  A    between atoms: N_6  and  C_7
REMARK    6  A    between atoms: C_7  and  C_8
REMARK    7  A    between atoms: C_7  and  C_9
REMARK    8  A    between atoms: C_7  and  C_10
REMARK    9  A    between atoms: N_11  and  C_12
REMARK   10  A    between atoms: C_12  and  C_13
REMARK   11  A    between atoms: C_20  and  C_22
REMARK   12  A    between atoms: C_25  and  C_26
REMARK   13  A    between atoms: C_29  and  N_30
REMARK                            x       y       z     vdW  Elec       q    Type
REMARK                         _______ _______ _______ _____ _____    ______ ____
ROOT
ATOM      1  N   UNL     1      -0.298  11.629  20.237  0.00  0.00    +0.000 N 
ATOM      2  C   UNL     1       0.996  11.054  20.338  0.00  0.00    +0.000 C 
ATOM      3  O   UNL     1       1.838  11.615  21.041  0.00  0.00    +0.000 OA
ENDROOT
BRANCH   2   4
ATOM      4  C   UNL     1       1.348   9.813  19.659  0.00  0.00    +0.000 A 
ATOM      5  S   UNL     1       1.750   9.680  18.010  0.00  0.00    +0.000 S 
ATOM      6  N   UNL     1       2.066   8.057  18.003  0.00  0.00    +0.000 NA
ATOM      7  C   UNL     1       1.982   7.594  19.261  0.00  0.00    +0.000 A 
ATOM      8  C   UNL     1       1.583   8.577  20.239  0.00  0.00    +0.000 A 
BRANCH   7   9
ATOM      9  C   UNL     1       2.320   6.188  19.551  0.00  0.00    +0.000 C 
ATOM     10  N   UNL     1       2.874   5.496  18.509  0.00  0.00    +0.000 N 
ATOM     11  O   UNL     1       2.149   5.649  20.641  0.00  0.00    +0.000 OA
ATOM     12  H   UNL     1       3.048   5.968  17.629  0.00  0.00    +0.000 HD
ATOM     13  H   UNL     1       3.171   4.542  18.653  0.00  0.00    +0.000 HD
ENDBRANCH   7   9
BRANCH   8  14
ATOM     14  N   UNL     1       1.458   8.341  21.570  0.00  0.00    +0.000 N 
ATOM     15  H   UNL     1       2.110   8.776  22.227  0.00  0.00    +0.000 HD
ATOM     16  H   UNL     1       0.531   8.182  21.972  0.00  0.00    +0.000 HD
ENDBRANCH   8  14
ENDBRANCH   2   4
BRANCH   1  17
ATOM     17  C   UNL     1      -0.535  12.974  20.879  0.00  0.00    +0.000 C 
BRANCH  17  18
ATOM     18  C   UNL     1      -1.339  12.919  22.219  0.00  0.00    +0.000 C 
ATOM     19  O   UNL     1      -1.016  12.189  23.154  0.00  0.00    +0.000 OA
ATOM     20  N   UNL     1      -2.513  13.655  22.223  0.00  0.00    +0.000 N 
ATOM     21  H   UNL     1      -2.593  14.352  21.494  0.00  0.00    +0.000 HD
BRANCH  20  22
ATOM     22  C   UNL     1      -3.331  13.853  23.435  0.00  0.00    +0.000 C 
ATOM     23  C   UNL     1      -2.554  14.638  24.507  0.00  0.00    +0.000 C 
ATOM     24  C   UNL     1      -4.571  14.671  23.041  0.00  0.00    +0.000 C 
ATOM     25  C   UNL     1      -3.808  12.511  24.020  0.00  0.00    +0.000 C 
ENDBRANCH  20  22
ENDBRANCH  17  18
BRANCH  17  27
ATOM     26  C   UNL     1      -0.385  14.120  18.545  0.00  0.00    +0.000 C 
ATOM     27  C   UNL     1      -1.088  14.029  19.896  0.00  0.00    +0.000 C 
ENDBRANCH  17  27
ENDBRANCH   1  17
BRANCH   1  28
ATOM     28  C   UNL     1      -1.491  10.771  20.067  0.00  0.00    +0.000 C 
BRANCH  28  29
ATOM     29  C   UNL     1      -2.165  10.803  18.697  0.00  0.00    +0.000 A 
ATOM     30  C   UNL     1      -1.623  10.140  17.580  0.00  0.00    +0.000 A 
ATOM     31  C   UNL     1      -2.214  10.214  16.316  0.00  0.00    +0.000 A 
ATOM     32  C   UNL     1      -3.381  10.943  16.139  0.00  0.00    +0.000 A 
ATOM     33  C   UNL     1      -3.964  11.575  17.233  0.00  0.00    +0.000 A 
ATOM     34  C   UNL     1      -3.369  11.502  18.500  0.00  0.00    +0.000 A 
ATOM     35 CL   UNL     1      -4.180  12.301  19.802  0.00  0.00    +0.000 Cl
ENDBRANCH  28  29
ENDBRANCH   1  28
TORSDOF 9
ENDMDL
MODEL 2
REMARK VINA RESULT:      -5.6      4.926      8.323
REMARK  Name = 
REMARK  13 active torsions:
REMARK  status: ('A' for Active; 'I' for Inactive)
REMARK    1  A    between atoms: C_1  and  C_2
REMARK    2  A    between atoms: C_2  and  C_3
REMARK    3  A    between atoms: C_3  and  C_4
REMARK    4  A    between atoms: C_3  and  N_11
REMARK    5  A    between atoms: N_6  and  C_7
REMARK    6  A    between atoms: C_7  and  C_8
REMARK    7  A    between atoms: C_7  and  C_9
REMARK    8  A    between atoms: C_7  and  C_10
REMARK    9  A    between atoms: N_11  and  C_12
REMARK   10  A    between atoms: C_12  and  C_13
REMARK   11  A    between atoms: C_20  and  C_22
REMARK   12  A    between atoms: C_25  and  C_26
REMARK   13  A    between atoms: C_29  and  N_30
REMARK                            x       y       z     vdW  Elec       q    Type
REMARK                         _______ _______ _______ _____ _____    ______ ____
ROOT
ATOM      1  N   UNL     1       3.487   5.862  17.685  0.00  0.00    +0.000 N 
ATOM      2  C   UNL     1       4.834   6.309  17.728  0.00  0.00    +0.000 C 
ATOM      3  O   UNL     1       5.139   7.185  18.540  0.00  0.00    +0.000 OA
ENDROOT
BRANCH   2   4
ATOM      4  C   UNL     1       5.866   5.748  16.865  0.00  0.00    +0.000 A 
ATOM      5  S   UNL     1       7.067   4.647  17.363  0.00  0.00    +0.000 S 
ATOM      6  N   UNL     1       7.786   4.444  15.889  0.00  0.00    +0.000 NA
ATOM      7  C   UNL     1       7.078   5.112  14.964  0.00  0.00    +0.000 A 
ATOM      8  C   UNL     1       5.962   5.863  15.488  0.00  0.00    +0.000 A 
BRANCH   7   9
ATOM      9  C   UNL     1       7.448   5.013  13.541  0.00  0.00    +0.000 C 
ATOM     10  N   UNL     1       8.470   5.833  13.147  0.00  0.00    +0.000 N 
ATOM     11  O   UNL     1       6.914   4.249  12.741  0.00  0.00    +0.000 OA
ATOM     12  H   UNL     1       8.928   6.426  13.829  0.00  0.00    +0.000 HD
ATOM     13  H   UNL     1       8.804   5.782  12.196  0.00  0.00    +0.000 HD
ENDBRANCH   7   9
BRANCH   8  14
ATOM     14  N   UNL     1       5.096   6.591  14.737  0.00  0.00    +0.000 N 
ATOM     15  H   UNL     1       4.131   6.270  14.620  0.00  0.00    +0.000 HD
ATOM     16  H   UNL     1       5.186   7.609  14.703  0.00  0.00    +0.000 HD
ENDBRANCH   8  14
ENDBRANCH   2   4
BRANCH   1  17
ATOM     17  C   UNL     1       2.468   6.582  18.533  0.00  0.00    +0.000 C 
BRANCH  17  18
ATOM     18  C   UNL     1       2.173   8.050  18.085  0.00  0.00    +0.000 C 
ATOM     19  O   UNL     1       2.528   8.491  16.993  0.00  0.00    +0.000 OA
ATOM     20  N   UNL     1       1.599   8.852  19.057  0.00  0.00    +0.000 N 
ATOM     21  H   UNL     1       1.184   8.360  19.838  0.00  0.00    +0.000 HD
BRANCH  20  22
ATOM     22  C   UNL     1       1.109  10.216  18.786  0.00  0.00    +0.000 C 
ATOM     23  C   UNL     1      -0.188  10.185  17.957  0.00  0.00    +0.000 C 
ATOM     24  C   UNL     1       0.804  10.888  20.134  0.00  0.00    +0.000 C 
ATOM     25  C   UNL     1       2.168  11.063  18.057  0.00  0.00    +0.000 C 
ENDBRANCH  20  22
ENDBRANCH  17  18
BRANCH  17  27
ATOM     26  C   UNL     1       1.570   6.027  20.915  0.00  0.00    +0.000 C 
ATOM     27  C   UNL     1       2.746   6.467  20.048  0.00  0.00    +0.000 C 
ENDBRANCH  17  27
ENDBRANCH   1  17
BRANCH   1  28
ATOM     28  C   UNL     1       3.172   4.458  17.340  0.00  0.00    +0.000 C 
BRANCH  28  29
ATOM     29  C   UNL     1       2.473   3.631  18.416  0.00  0.00    +0.000 A 
ATOM     30  C   UNL     1       1.090   3.370  18.381  0.00  0.00    +0.000 A 
ATOM     31  C   UNL     1       0.445   2.657  19.395  0.00  0.00    +0.000 A 
ATOM     32  C   UNL     1       1.175   2.167  20.469  0.00  0.00    +0.000 A 
ATOM     33  C   UNL     1       2.550   2.373  20.511  0.00  0.00    +0.000 A 
ATOM     34  C   UNL     1       3.196   3.090  19.494  0.00  0.00    +0.000 A 
ATOM     35 CL   UNL     1       4.911   3.274  19.623  0.00  0.00    +0.000 Cl
ENDBRANCH  28  29
ENDBRANCH   1  28
TORSDOF 9
ENDMDL
MODEL 3
REMARK VINA RESULT:      -5.6      1.713      3.112
REMARK  Name = 
REMARK  13 active torsions:
REMARK  status: ('A' for Active; 'I' for Inactive)
REMARK    1  A    between atoms: C_1  and  C_2
REMARK    2  A    between atoms: C_2  and  C_3
REMARK    3  A    between atoms: C_3  and  C_4
REMARK    4  A    between atoms: C_3  and  N_11
REMARK    5  A    between atoms: N_6  and  C_7
REMARK    6  A    between atoms: C_7  and  C_8
REMARK    7  A    between atoms: C_7  and  C_9
REMARK    8  A    between atoms: C_7  and  C_10
REMARK    9  A    between atoms: N_11  and  C_12
REMARK   10  A    between atoms: C_12  and  C_13
REMARK   11  A    between atoms: C_20  and  C_22
REMARK   12  A    between atoms: C_25  and  C_26
REMARK   13  A    between atoms: C_29  and  N_30
REMARK                            x       y       z     vdW  Elec       q    Type
REMARK                         _______ _______ _______ _____ _____    ______ ____
ROOT
ATOM      1  N   UNL     1      -0.597  11.231  19.605  0.00  0.00    +0.000 N 
ATOM      2  C   UNL     1       0.694  10.762  19.962  0.00  0.00    +0.000 C 
ATOM      3  O   UNL     1       1.372  11.437  20.740  0.00  0.00    +0.000 OA
ENDROOT
BRANCH   2   4
ATOM      4  C   UNL     1       1.230   9.503  19.460  0.00  0.00    +0.000 A 
ATOM      5  S   UNL     1       1.696   9.211  17.848  0.00  0.00    +0.000 S 
ATOM      6  N   UNL     1       2.224   7.660  18.063  0.00  0.00    +0.000 NA
ATOM      7  C   UNL     1       2.165   7.358  19.370  0.00  0.00    +0.000 A 
ATOM      8  C   UNL     1       1.609   8.397  20.203  0.00  0.00    +0.000 A 
BRANCH   7   9
ATOM      9  C   UNL     1       2.678   6.062  19.850  0.00  0.00    +0.000 C 
ATOM     10  N   UNL     1       1.749   5.254  20.449  0.00  0.00    +0.000 N 
ATOM     11  O   UNL     1       3.841   5.691  19.722  0.00  0.00    +0.000 OA
ATOM     12  H   UNL     1       0.784   5.558  20.507  0.00  0.00    +0.000 HD
ATOM     13  H   UNL     1       2.023   4.334  20.758  0.00  0.00    +0.000 HD
ENDBRANCH   7   9
BRANCH   8  14
ATOM     14  N   UNL     1       1.476   8.322  21.552  0.00  0.00    +0.000 N 
ATOM     15  H   UNL     1       1.671   9.145  22.128  0.00  0.00    +0.000 HD
ATOM     16  H   UNL     1       0.767   7.708  21.958  0.00  0.00    +0.000 HD
ENDBRANCH   8  14
ENDBRANCH   2   4
BRANCH   1  17
ATOM     17  C   UNL     1      -1.018  12.600  20.080  0.00  0.00    +0.000 C 
BRANCH  17  18
ATOM     18  C   UNL     1      -0.220  13.781  19.440  0.00  0.00    +0.000 C 
ATOM     19  O   UNL     1      -0.297  14.061  18.245  0.00  0.00    +0.000 OA
ATOM     20  N   UNL     1       0.678  14.405  20.291  0.00  0.00    +0.000 N 
ATOM     21  H   UNL     1       0.537  14.231  21.277  0.00  0.00    +0.000 HD
BRANCH  20  22
ATOM     22  C   UNL     1       1.412  15.630  19.924  0.00  0.00    +0.000 C 
ATOM     23  C   UNL     1       2.177  16.204  21.131  0.00  0.00    +0.000 C 
ATOM     24  C   UNL     1       2.435  15.263  18.836  0.00  0.00    +0.000 C 
ATOM     25  C   UNL     1       0.470  16.705  19.351  0.00  0.00    +0.000 C 
ENDBRANCH  20  22
ENDBRANCH  17  18
BRANCH  17  27
ATOM     26  C   UNL     1      -2.350  13.408  22.169  0.00  0.00    +0.000 C 
ATOM     27  C   UNL     1      -1.111  12.708  21.618  0.00  0.00    +0.000 C 
ENDBRANCH  17  27
ENDBRANCH   1  17
BRANCH   1  28
ATOM     28  C   UNL     1      -1.691  10.276  19.320  0.00  0.00    +0.000 C 
BRANCH  28  29
ATOM     29  C   UNL     1      -2.417  10.447  17.987  0.00  0.00    +0.000 A 
ATOM     30  C   UNL     1      -1.969   9.826  16.806  0.00  0.00    +0.000 A 
ATOM     31  C   UNL     1      -2.605  10.026  15.578  0.00  0.00    +0.000 A 
ATOM     32  C   UNL     1      -3.724  10.843  15.503  0.00  0.00    +0.000 A 
ATOM     33  C   UNL     1      -4.215  11.438  16.660  0.00  0.00    +0.000 A 
ATOM     34  C   UNL     1      -3.575  11.238  17.892  0.00  0.00    +0.000 A 
ATOM     35 CL   UNL     1      -4.273  12.001  19.278  0.00  0.00    +0.000 Cl
ENDBRANCH  28  29
ENDBRANCH   1  28
TORSDOF 9
ENDMDL
MODEL 4
REMARK VINA RESULT:      -5.2      3.597      7.362
REMARK  Name = 
REMARK  13 active torsions:
REMARK  status: ('A' for Active; 'I' for Inactive)
REMARK    1  A    between atoms: C_1  and  C_2
REMARK    2  A    between atoms: C_2  and  C_3
REMARK    3  A    between atoms: C_3  and  C_4
REMARK    4  A    between atoms: C_3  and  N_11
REMARK    5  A    between atoms: N_6  and  C_7
REMARK    6  A    between atoms: C_7  and  C_8
REMARK    7  A    between atoms: C_7  and  C_9
REMARK    8  A    between atoms: C_7  and  C_10
REMARK    9  A    between atoms: N_11  and  C_12
REMARK   10  A    between atoms: C_12  and  C_13
REMARK   11  A    between atoms: C_20  and  C_22
REMARK   12  A    between atoms: C_25  and  C_26
REMARK   13  A    between atoms: C_29  and  N_30
REMARK                            x       y       z     vdW  Elec       q    Type
REMARK                         _______ _______ _______ _____ _____    ______ ____
ROOT
ATOM      1  N   UNL     1      -0.929  13.149  19.912  0.00  0.00    +0.000 N 
ATOM      2  C   UNL     1      -1.149  14.497  20.299  0.00  0.00    +0.000 C 
ATOM      3  O   UNL     1      -1.055  15.379  19.442  0.00  0.00    +0.000 OA
ENDROOT
BRANCH   2   4
ATOM      4  C   UNL     1      -1.506  14.865  21.663  0.00  0.00    +0.000 A 
ATOM      5  S   UNL     1      -0.419  14.940  22.972  0.00  0.00    +0.000 S 
ATOM      6  N   UNL     1      -1.500  15.458  24.111  0.00  0.00    +0.000 NA
ATOM      7  C   UNL     1      -2.680  15.692  23.514  0.00  0.00    +0.000 A 
ATOM      8  C   UNL     1      -2.716  15.373  22.107  0.00  0.00    +0.000 A 
BRANCH   7   9
ATOM      9  C   UNL     1      -3.796  16.263  24.289  0.00  0.00    +0.000 C 
ATOM     10  N   UNL     1      -4.798  15.384  24.601  0.00  0.00    +0.000 N 
ATOM     11  O   UNL     1      -3.850  17.431  24.663  0.00  0.00    +0.000 OA
ATOM     12  H   UNL     1      -4.717  14.413  24.322  0.00  0.00    +0.000 HD
ATOM     13  H   UNL     1      -5.570  15.697  25.169  0.00  0.00    +0.000 HD
ENDBRANCH   7   9
BRANCH   8  14
ATOM     14  N   UNL     1      -3.792  15.552  21.298  0.00  0.00    +0.000 N 
ATOM     15  H   UNL     1      -3.900  16.428  20.781  0.00  0.00    +0.000 HD
ATOM     16  H   UNL     1      -4.201  14.749  20.814  0.00  0.00    +0.000 HD
ENDBRANCH   8  14
ENDBRANCH   2   4
BRANCH   1  17
ATOM     17  C   UNL     1      -0.451  12.877  18.507  0.00  0.00    +0.000 C 
BRANCH  17  18
ATOM     18  C   UNL     1      -1.202  11.713  17.783  0.00  0.00    +0.000 C 
ATOM     19  O   UNL     1      -0.672  10.628  17.550  0.00  0.00    +0.000 OA
ATOM     20  N   UNL     1      -2.462  12.040  17.308  0.00  0.00    +0.000 N 
ATOM     21  H   UNL     1      -2.873  12.875  17.704  0.00  0.00    +0.000 HD
BRANCH  20  22
ATOM     22  C   UNL     1      -3.385  11.044  16.733  0.00  0.00    +0.000 C 
ATOM     23  C   UNL     1      -3.384   9.743  17.558  0.00  0.00    +0.000 C 
ATOM     24  C   UNL     1      -4.803  11.636  16.769  0.00  0.00    +0.000 C 
ATOM     25  C   UNL     1      -3.035  10.727  15.268  0.00  0.00    +0.000 C 
ENDBRANCH  20  22
ENDBRANCH  17  18
BRANCH  17  27
ATOM     26  C   UNL     1       1.895  13.909  18.977  0.00  0.00    +0.000 C 
ATOM     27  C   UNL     1       1.085  12.751  18.401  0.00  0.00    +0.000 C 
ENDBRANCH  17  27
ENDBRANCH   1  17
BRANCH   1  28
ATOM     28  C   UNL     1      -1.663  12.048  20.575  0.00  0.00    +0.000 C 
BRANCH  28  29
ATOM     29  C   UNL     1      -0.830  11.076  21.407  0.00  0.00    +0.000 A 
ATOM     30  C   UNL     1       0.254  10.361  20.863  0.00  0.00    +0.000 A 
ATOM     31  C   UNL     1       0.982   9.434  21.613  0.00  0.00    +0.000 A 
ATOM     32  C   UNL     1       0.654   9.211  22.943  0.00  0.00    +0.000 A 
ATOM     33  C   UNL     1      -0.385   9.932  23.521  0.00  0.00    +0.000 A 
ATOM     34  C   UNL     1      -1.116  10.861  22.767  0.00  0.00    +0.000 A 
ATOM     35 CL   UNL     1      -2.374  11.725  23.580  0.00  0.00    +0.000 Cl
ENDBRANCH  28  29
ENDBRANCH   1  28
TORSDOF 9
ENDMDL
MODEL 5
REMARK VINA RESULT:      -5.2      1.965      3.415
REMARK  Name = 
REMARK  13 active torsions:
REMARK  status: ('A' for Active; 'I' for Inactive)
REMARK    1  A    between atoms: C_1  and  C_2
REMARK    2  A    between atoms: C_2  and  C_3
REMARK    3  A    between atoms: C_3  and  C_4
REMARK    4  A    between atoms: C_3  and  N_11
REMARK    5  A    between atoms: N_6  and  C_7
REMARK    6  A    between atoms: C_7  and  C_8
REMARK    7  A    between atoms: C_7  and  C_9
REMARK    8  A    between atoms: C_7  and  C_10
REMARK    9  A    between atoms: N_11  and  C_12
REMARK   10  A    between atoms: C_12  and  C_13
REMARK   11  A    between atoms: C_20  and  C_22
REMARK   12  A    between atoms: C_25  and  C_26
REMARK   13  A    between atoms: C_29  and  N_30
REMARK                            x       y       z     vdW  Elec       q    Type
REMARK                         _______ _______ _______ _____ _____    ______ ____
ROOT
ATOM      1  N   UNL     1      -0.753  11.506  19.667  0.00  0.00    +0.000 N 
ATOM      2  C   UNL     1       0.464  11.147  20.305  0.00  0.00    +0.000 C 
ATOM      3  O   UNL     1       1.022  11.981  21.022  0.00  0.00    +0.000 OA
ENDROOT
BRANCH   2   4
ATOM      4  C   UNL     1       1.055   9.823  20.161  0.00  0.00    +0.000 A 
ATOM      5  S   UNL     1       1.062   8.618  21.365  0.00  0.00    +0.000 S 
ATOM      6  N   UNL     1       1.822   7.446  20.481  0.00  0.00    +0.000 NA
ATOM      7  C   UNL     1       1.992   7.891  19.225  0.00  0.00    +0.000 A 
ATOM      8  C   UNL     1       1.553   9.248  19.003  0.00  0.00    +0.000 A 
BRANCH   7   9
ATOM      9  C   UNL     1       2.557   6.998  18.198  0.00  0.00    +0.000 C 
ATOM     10  N   UNL     1       3.702   7.450  17.599  0.00  0.00    +0.000 N 
ATOM     11  O   UNL     1       2.076   5.911  17.888  0.00  0.00    +0.000 OA
ATOM     12  H   UNL     1       4.110   8.328  17.897  0.00  0.00    +0.000 HD
ATOM     13  H   UNL     1       4.167   6.866  16.920  0.00  0.00    +0.000 HD
ENDBRANCH   7   9
BRANCH   8  14
ATOM     14  N   UNL     1       1.605   9.895  17.810  0.00  0.00    +0.000 N 
ATOM     15  H   UNL     1       2.480  10.325  17.503  0.00  0.00    +0.000 HD
ATOM     16  H   UNL     1       1.022   9.574  17.034  0.00  0.00    +0.000 HD
ENDBRANCH   8  14
ENDBRANCH   2   4
BRANCH   1  17
ATOM     17  C   UNL     1      -1.226  12.935  19.781  0.00  0.00    +0.000 C 
BRANCH  17  18
ATOM     18  C   UNL     1      -0.326  13.976  19.039  0.00  0.00    +0.000 C 
ATOM     19  O   UNL     1      -0.160  13.955  17.821  0.00  0.00    +0.000 OA
ATOM     20  N   UNL     1       0.371  14.839  19.869  0.00  0.00    +0.000 N 
ATOM     21  H   UNL     1       0.032  14.897  20.820  0.00  0.00    +0.000 HD
BRANCH  20  22
ATOM     22  C   UNL     1       1.151  15.983  19.362  0.00  0.00    +0.000 C 
ATOM     23  C   UNL     1       2.336  15.510  18.500  0.00  0.00    +0.000 C 
ATOM     24  C   UNL     1       0.223  16.836  18.481  0.00  0.00    +0.000 C 
ATOM     25  C   UNL     1       1.668  16.869  20.510  0.00  0.00    +0.000 C 
ENDBRANCH  20  22
ENDBRANCH  17  18
BRANCH  17  27
ATOM     26  C   UNL     1      -2.781  14.235  21.418  0.00  0.00    +0.000 C 
ATOM     27  C   UNL     1      -1.549  13.355  21.232  0.00  0.00    +0.000 C 
ENDBRANCH  17  27
ENDBRANCH   1  17
BRANCH   1  28
ATOM     28  C   UNL     1      -1.801  10.491  19.423  0.00  0.00    +0.000 C 
BRANCH  28  29
ATOM     29  C   UNL     1      -2.485  10.531  18.057  0.00  0.00    +0.000 A 
ATOM     30  C   UNL     1      -1.940   9.891  16.928  0.00  0.00    +0.000 A 
ATOM     31  C   UNL     1      -2.540   9.974  15.669  0.00  0.00    +0.000 A 
ATOM     32  C   UNL     1      -3.719  10.688  15.510  0.00  0.00    +0.000 A 
ATOM     33  C   UNL     1      -4.304  11.297  16.615  0.00  0.00    +0.000 A 
ATOM     34  C   UNL     1      -3.700  11.215  17.878  0.00  0.00    +0.000 A 
ATOM     35 CL   UNL     1      -4.514  11.985  19.195  0.00  0.00    +0.000 Cl
ENDBRANCH  28  29
ENDBRANCH   1  28
TORSDOF 9
ENDMDL
MODEL 6
REMARK VINA RESULT:      -5.2      3.225      6.609
REMARK  Name = 
REMARK  13 active torsions:
REMARK  status: ('A' for Active; 'I' for Inactive)
REMARK    1  A    between atoms: C_1  and  C_2
REMARK    2  A    between atoms: C_2  and  C_3
REMARK    3  A    between atoms: C_3  and  C_4
REMARK    4  A    between atoms: C_3  and  N_11
REMARK    5  A    between atoms: N_6  and  C_7
REMARK    6  A    between atoms: C_7  and  C_8
REMARK    7  A    between atoms: C_7  and  C_9
REMARK    8  A    between atoms: C_7  and  C_10
REMARK    9  A    between atoms: N_11  and  C_12
REMARK   10  A    between atoms: C_12  and  C_13
REMARK   11  A    between atoms: C_20  and  C_22
REMARK   12  A    between atoms: C_25  and  C_26
REMARK   13  A    between atoms: C_29  and  N_30
REMARK                            x       y       z     vdW  Elec       q    Type
REMARK                         _______ _______ _______ _____ _____    ______ ____
ROOT
ATOM      1  N   UNL     1      -0.887  12.351  21.087  0.00  0.00    +0.000 N 
ATOM      2  C   UNL     1      -1.251  12.943  22.325  0.00  0.00    +0.000 C 
ATOM      3  O   UNL     1      -0.407  12.999  23.222  0.00  0.00    +0.000 OA
ENDROOT
BRANCH   2   4
ATOM      4  C   UNL     1      -2.575  13.505  22.557  0.00  0.00    +0.000 A 
ATOM      5  S   UNL     1      -3.167  14.938  21.852  0.00  0.00    +0.000 S 
ATOM      6  N   UNL     1      -4.678  14.889  22.519  0.00  0.00    +0.000 NA
ATOM      7  C   UNL     1      -4.815  13.740  23.201  0.00  0.00    +0.000 A 
ATOM      8  C   UNL     1      -3.630  12.917  23.235  0.00  0.00    +0.000 A 
BRANCH   7   9
ATOM      9  C   UNL     1      -6.111  13.397  23.812  0.00  0.00    +0.000 C 
ATOM     10  N   UNL     1      -6.839  14.462  24.270  0.00  0.00    +0.000 N 
ATOM     11  O   UNL     1      -6.549  12.254  23.904  0.00  0.00    +0.000 OA
ATOM     12  H   UNL     1      -6.482  15.403  24.147  0.00  0.00    +0.000 HD
ATOM     13  H   UNL     1      -7.756  14.302  24.658  0.00  0.00    +0.000 HD
ENDBRANCH   7   9
BRANCH   8  14
ATOM     14  N   UNL     1      -3.545  11.706  23.843  0.00  0.00    +0.000 N 
ATOM     15  H   UNL     1      -2.685  11.441  24.330  0.00  0.00    +0.000 HD
ATOM     16  H   UNL     1      -4.382  11.282  24.250  0.00  0.00    +0.000 HD
ENDBRANCH   8  14
ENDBRANCH   2   4
BRANCH   1  17
ATOM     17  C   UNL     1       0.466  11.692  20.980  0.00  0.00    +0.000 C 
BRANCH  17  18
ATOM     18  C   UNL     1       1.453  12.398  19.994  0.00  0.00    +0.000 C 
ATOM     19  O   UNL     1       1.820  11.879  18.942  0.00  0.00    +0.000 OA
ATOM     20  N   UNL     1       1.983  13.592  20.457  0.00  0.00    +0.000 N 
ATOM     21  H   UNL     1       1.488  14.016  21.231  0.00  0.00    +0.000 HD
BRANCH  20  22
ATOM     22  C   UNL     1       2.810  14.480  19.620  0.00  0.00    +0.000 C 
ATOM     23  C   UNL     1       3.064  13.859  18.234  0.00  0.00    +0.000 C 
ATOM     24  C   UNL     1       2.042  15.798  19.425  0.00  0.00    +0.000 C 
ATOM     25  C   UNL     1       4.155  14.804  20.296  0.00  0.00    +0.000 C 
ENDBRANCH  20  22
ENDBRANCH  17  18
BRANCH  17  27
ATOM     26  C   UNL     1      -0.201   9.345  21.893  0.00  0.00    +0.000 C 
ATOM     27  C   UNL     1       0.384  10.167  20.748  0.00  0.00    +0.000 C 
ENDBRANCH  17  27
ENDBRANCH   1  17
BRANCH   1  28
ATOM     28  C   UNL     1      -1.477  12.837  19.820  0.00  0.00    +0.000 C 
BRANCH  28  29
ATOM     29  C   UNL     1      -2.075  11.778  18.896  0.00  0.00    +0.000 A 
ATOM     30  C   UNL     1      -1.271  10.910  18.132  0.00  0.00    +0.000 A 
ATOM     31  C   UNL     1      -1.821   9.978  17.248  0.00  0.00    +0.000 A 
ATOM     32  C   UNL     1      -3.199   9.876  17.119  0.00  0.00    +0.000 A 
ATOM     33  C   UNL     1      -4.020  10.691  17.891  0.00  0.00    +0.000 A 
ATOM     34  C   UNL     1      -3.468  11.628  18.776  0.00  0.00    +0.000 A 
ATOM     35 CL   UNL     1      -4.569  12.580  19.709  0.00  0.00    +0.000 Cl
ENDBRANCH  28  29
ENDBRANCH   1  28
TORSDOF 9
ENDMDL
MODEL 7
REMARK VINA RESULT:      -5.2      1.754      2.229
REMARK  Name = 
REMARK  13 active torsions:
REMARK  status: ('A' for Active; 'I' for Inactive)
REMARK    1  A    between atoms: C_1  and  C_2
REMARK    2  A    between atoms: C_2  and  C_3
REMARK    3  A    between atoms: C_3  and  C_4
REMARK    4  A    between atoms: C_3  and  N_11
REMARK    5  A    between atoms: N_6  and  C_7
REMARK    6  A    between atoms: C_7  and  C_8
REMARK    7  A    between atoms: C_7  and  C_9
REMARK    8  A    between atoms: C_7  and  C_10
REMARK    9  A    between atoms: N_11  and  C_12
REMARK   10  A    between atoms: C_12  and  C_13
REMARK   11  A    between atoms: C_20  and  C_22
REMARK   12  A    between atoms: C_25  and  C_26
REMARK   13  A    between atoms: C_29  and  N_30
REMARK                            x       y       z     vdW  Elec       q    Type
REMARK                         _______ _______ _______ _____ _____    ______ ____
ROOT
ATOM      1  N   UNL     1      -1.161  12.641  20.483  0.00  0.00    +0.000 N 
ATOM      2  C   UNL     1       0.086  12.157  20.959  0.00  0.00    +0.000 C 
ATOM      3  O   UNL     1       0.767  12.890  21.680  0.00  0.00    +0.000 OA
ENDROOT
BRANCH   2   4
ATOM      4  C   UNL     1       0.571  10.819  20.644  0.00  0.00    +0.000 A 
ATOM      5  S   UNL     1       0.240   9.419  21.556  0.00  0.00    +0.000 S 
ATOM      6  N   UNL     1       1.044   8.347  20.588  0.00  0.00    +0.000 NA
ATOM      7  C   UNL     1       1.490   8.995  19.499  0.00  0.00    +0.000 A 
ATOM      8  C   UNL     1       1.227  10.414  19.493  0.00  0.00    +0.000 A 
BRANCH   7   9
ATOM      9  C   UNL     1       2.157   8.245  18.419  0.00  0.00    +0.000 C 
ATOM     10  N   UNL     1       2.583   6.990  18.759  0.00  0.00    +0.000 N 
ATOM     11  O   UNL     1       2.320   8.675  17.280  0.00  0.00    +0.000 OA
ATOM     12  H   UNL     1       2.403   6.635  19.690  0.00  0.00    +0.000 HD
ATOM     13  H   UNL     1       3.007   6.406  18.054  0.00  0.00    +0.000 HD
ENDBRANCH   7   9
BRANCH   8  14
ATOM     14  N   UNL     1       1.563  11.261  18.487  0.00  0.00    +0.000 N 
ATOM     15  H   UNL     1       1.004  11.280  17.630  0.00  0.00    +0.000 HD
ATOM     16  H   UNL     1       1.989  12.164  18.706  0.00  0.00    +0.000 HD
ENDBRANCH   8  14
ENDBRANCH   2   4
BRANCH   1  17
ATOM     17  C   UNL     1      -1.525  14.078  20.764  0.00  0.00    +0.000 C 
BRANCH  17  18
ATOM     18  C   UNL     1      -2.914  14.271  21.456  0.00  0.00    +0.000 C 
ATOM     19  O   UNL     1      -3.790  14.994  20.988  0.00  0.00    +0.000 OA
ATOM     20  N   UNL     1      -3.033  13.670  22.698  0.00  0.00    +0.000 N 
ATOM     21  H   UNL     1      -2.343  12.960  22.907  0.00  0.00    +0.000 HD
BRANCH  20  22
ATOM     22  C   UNL     1      -4.306  13.608  23.440  0.00  0.00    +0.000 C 
ATOM     23  C   UNL     1      -5.429  13.015  22.569  0.00  0.00    +0.000 C 
ATOM     24  C   UNL     1      -4.102  12.689  24.656  0.00  0.00    +0.000 C 
ATOM     25  C   UNL     1      -4.729  14.996  23.955  0.00  0.00    +0.000 C 
ENDBRANCH  20  22
ENDBRANCH  17  18
BRANCH  17  27
ATOM     26  C   UNL     1      -0.122  14.716  18.663  0.00  0.00    +0.000 C 
ATOM     27  C   UNL     1      -1.336  15.004  19.542  0.00  0.00    +0.000 C 
ENDBRANCH  17  27
ENDBRANCH   1  17
BRANCH   1  28
ATOM     28  C   UNL     1      -2.293  11.714  20.266  0.00  0.00    +0.000 C 
BRANCH  28  29
ATOM     29  C   UNL     1      -2.651  11.403  18.814  0.00  0.00    +0.000 A 
ATOM     30  C   UNL     1      -1.760  10.740  17.948  0.00  0.00    +0.000 A 
ATOM     31  C   UNL     1      -2.070  10.503  16.606  0.00  0.00    +0.000 A 
ATOM     32  C   UNL     1      -3.296  10.909  16.097  0.00  0.00    +0.000 A 
ATOM     33  C   UNL     1      -4.214  11.529  16.938  0.00  0.00    +0.000 A 
ATOM     34  C   UNL     1      -3.901  11.768  18.284  0.00  0.00    +0.000 A 
ATOM     35 CL   UNL     1      -5.116  12.524  19.256  0.00  0.00    +0.000 Cl
ENDBRANCH  28  29
ENDBRANCH   1  28
TORSDOF 9
ENDMDL
MODEL 8
REMARK VINA RESULT:      -5.2      1.272      2.842
REMARK  Name = 
REMARK  13 active torsions:
REMARK  status: ('A' for Active; 'I' for Inactive)
REMARK    1  A    between atoms: C_1  and  C_2
REMARK    2  A    between atoms: C_2  and  C_3
REMARK    3  A    between atoms: C_3  and  C_4
REMARK    4  A    between atoms: C_3  and  N_11
REMARK    5  A    between atoms: N_6  and  C_7
REMARK    6  A    between atoms: C_7  and  C_8
REMARK    7  A    between atoms: C_7  and  C_9
REMARK    8  A    between atoms: C_7  and  C_10
REMARK    9  A    between atoms: N_11  and  C_12
REMARK   10  A    between atoms: C_12  and  C_13
REMARK   11  A    between atoms: C_20  and  C_22
REMARK   12  A    between atoms: C_25  and  C_26
REMARK   13  A    between atoms: C_29  and  N_30
REMARK                            x       y       z     vdW  Elec       q    Type
REMARK                         _______ _______ _______ _____ _____    ______ ____
ROOT
ATOM      1  N   UNL     1      -0.767  11.177  20.140  0.00  0.00    +0.000 N 
ATOM      2  C   UNL     1       0.577  10.766  20.340  0.00  0.00    +0.000 C 
ATOM      3  O   UNL     1       1.232  11.308  21.233  0.00  0.00    +0.000 OA
ENDROOT
BRANCH   2   4
ATOM      4  C   UNL     1       1.194   9.713  19.545  0.00  0.00    +0.000 A 
ATOM      5  S   UNL     1       1.705   9.880  17.929  0.00  0.00    +0.000 S 
ATOM      6  N   UNL     1       2.320   8.356  17.747  0.00  0.00    +0.000 NA
ATOM      7  C   UNL     1       2.255   7.718  18.927  0.00  0.00    +0.000 A 
ATOM      8  C   UNL     1       1.625   8.472  19.985  0.00  0.00    +0.000 A 
BRANCH   7   9
ATOM      9  C   UNL     1       2.834   6.370  19.068  0.00  0.00    +0.000 C 
ATOM     10  N   UNL     1       3.656   5.980  18.045  0.00  0.00    +0.000 N 
ATOM     11  O   UNL     1       2.633   5.630  20.027  0.00  0.00    +0.000 OA
ATOM     12  H   UNL     1       3.845   6.620  17.283  0.00  0.00    +0.000 HD
ATOM     13  H   UNL     1       4.121   5.087  18.101  0.00  0.00    +0.000 HD
ENDBRANCH   7   9
BRANCH   8  14
ATOM     14  N   UNL     1       1.472   8.038  21.262  0.00  0.00    +0.000 N 
ATOM     15  H   UNL     1       0.923   8.592  21.925  0.00  0.00    +0.000 HD
ATOM     16  H   UNL     1       1.441   7.035  21.457  0.00  0.00    +0.000 HD
ENDBRANCH   8  14
ENDBRANCH   2   4
BRANCH   1  17
ATOM     17  C   UNL     1      -1.282  12.353  20.933  0.00  0.00    +0.000 C 
BRANCH  17  18
ATOM     18  C   UNL     1      -0.389  13.634  20.843  0.00  0.00    +0.000 C 
ATOM     19  O   UNL     1       0.354  13.986  21.757  0.00  0.00    +0.000 OA
ATOM     20  N   UNL     1      -0.596  14.409  19.714  0.00  0.00    +0.000 N 
ATOM     21  H   UNL     1      -1.078  13.950  18.952  0.00  0.00    +0.000 HD
BRANCH  20  22
ATOM     22  C   UNL     1       0.249  15.569  19.372  0.00  0.00    +0.000 C 
ATOM     23  C   UNL     1      -0.410  16.435  18.283  0.00  0.00    +0.000 C 
ATOM     24  C   UNL     1       0.412  16.426  20.638  0.00  0.00    +0.000 C 
ATOM     25  C   UNL     1       1.650  15.131  18.907  0.00  0.00    +0.000 C 
ENDBRANCH  20  22
ENDBRANCH  17  18
BRANCH  17  27
ATOM     26  C   UNL     1      -2.993  12.531  22.889  0.00  0.00    +0.000 C 
ATOM     27  C   UNL     1      -1.658  11.991  22.386  0.00  0.00    +0.000 C 
ENDBRANCH  17  27
ENDBRANCH   1  17
BRANCH   1  28
ATOM     28  C   UNL     1      -1.787  10.210  19.675  0.00  0.00    +0.000 C 
BRANCH  28  29
ATOM     29  C   UNL     1      -2.385  10.462  18.293  0.00  0.00    +0.000 A 
ATOM     30  C   UNL     1      -1.867   9.859  17.130  0.00  0.00    +0.000 A 
ATOM     31  C   UNL     1      -2.383  10.132  15.861  0.00  0.00    +0.000 A 
ATOM     32  C   UNL     1      -3.451  11.007  15.723  0.00  0.00    +0.000 A 
ATOM     33  C   UNL     1      -4.012  11.588  16.856  0.00  0.00    +0.000 A 
ATOM     34  C   UNL     1      -3.492  11.314  18.129  0.00  0.00    +0.000 A 
ATOM     35 CL   UNL     1      -4.270  12.064  19.479  0.00  0.00    +0.000 Cl
ENDBRANCH  28  29
ENDBRANCH   1  28
TORSDOF 9
ENDMDL
MODEL 9
REMARK VINA RESULT:      -5.1      3.422      5.671
REMARK  Name = 
REMARK  13 active torsions:
REMARK  status: ('A' for Active; 'I' for Inactive)
REMARK    1  A    between atoms: C_1  and  C_2
REMARK    2  A    between atoms: C_2  and  C_3
REMARK    3  A    between atoms: C_3  and  C_4
REMARK    4  A    between atoms: C_3  and  N_11
REMARK    5  A    between atoms: N_6  and  C_7
REMARK    6  A    between atoms: C_7  and  C_8
REMARK    7  A    between atoms: C_7  and  C_9
REMARK    8  A    between atoms: C_7  and  C_10
REMARK    9  A    between atoms: N_11  and  C_12
REMARK   10  A    between atoms: C_12  and  C_13
REMARK   11  A    between atoms: C_20  and  C_22
REMARK   12  A    between atoms: C_25  and  C_26
REMARK   13  A    between atoms: C_29  and  N_30
REMARK                            x       y       z     vdW  Elec       q    Type
REMARK                         _______ _______ _______ _____ _____    ______ ____
ROOT
ATOM      1  N   UNL     1      -0.471  11.942  19.744  0.00  0.00    +0.000 N 
ATOM      2  C   UNL     1      -1.089  12.419  18.559  0.00  0.00    +0.000 C 
ATOM      3  O   UNL     1      -0.553  13.344  17.945  0.00  0.00    +0.000 OA
ENDROOT
BRANCH   2   4
ATOM      4  C   UNL     1      -2.318  11.835  18.035  0.00  0.00    +0.000 A 
ATOM      5  S   UNL     1      -2.400  10.721  16.750  0.00  0.00    +0.000 S 
ATOM      6  N   UNL     1      -4.037  10.493  16.777  0.00  0.00    +0.000 NA
ATOM      7  C   UNL     1      -4.551  11.164  17.821  0.00  0.00    +0.000 A 
ATOM      8  C   UNL     1      -3.591  11.937  18.572  0.00  0.00    +0.000 A 
BRANCH   7   9
ATOM      9  C   UNL     1      -5.986  11.047  18.136  0.00  0.00    +0.000 C 
ATOM     10  N   UNL     1      -6.804  11.913  17.460  0.00  0.00    +0.000 N 
ATOM     11  O   UNL     1      -6.455  10.232  18.927  0.00  0.00    +0.000 OA
ATOM     12  H   UNL     1      -6.406  12.549  16.780  0.00  0.00    +0.000 HD
ATOM     13  H   UNL     1      -7.802  11.855  17.595  0.00  0.00    +0.000 HD
ENDBRANCH   7   9
BRANCH   8  14
ATOM     14  N   UNL     1      -3.879  12.671  19.677  0.00  0.00    +0.000 N 
ATOM     15  H   UNL     1      -4.213  12.205  20.524  0.00  0.00    +0.000 HD
ATOM     16  H   UNL     1      -3.348  13.523  19.872  0.00  0.00    +0.000 HD
ENDBRANCH   8  14
ENDBRANCH   2   4
BRANCH   1  17
ATOM     17  C   UNL     1       0.733  12.684  20.272  0.00  0.00    +0.000 C 
BRANCH  17  18
ATOM     18  C   UNL     1       0.390  13.936  21.143  0.00  0.00    +0.000 C 
ATOM     19  O   UNL     1       0.563  13.962  22.360  0.00  0.00    +0.000 OA
ATOM     20  N   UNL     1      -0.243  14.963  20.461  0.00  0.00    +0.000 N 
ATOM     21  H   UNL     1      -0.173  14.924  19.453  0.00  0.00    +0.000 HD
BRANCH  20  22
ATOM     22  C   UNL     1      -0.510  16.281  21.066  0.00  0.00    +0.000 C 
ATOM     23  C   UNL     1      -1.131  17.248  20.041  0.00  0.00    +0.000 C 
ATOM     24  C   UNL     1      -1.516  16.082  22.212  0.00  0.00    +0.000 C 
ATOM     25  C   UNL     1       0.769  16.904  21.655  0.00  0.00    +0.000 C 
ENDBRANCH  20  22
ENDBRANCH  17  18
BRANCH  17  27
ATOM     26  C   UNL     1       2.941  13.892  19.601  0.00  0.00    +0.000 C 
ATOM     27  C   UNL     1       1.786  12.985  19.185  0.00  0.00    +0.000 C 
ENDBRANCH  17  27
ENDBRANCH   1  17
BRANCH   1  28
ATOM     28  C   UNL     1      -0.573  10.515  20.123  0.00  0.00    +0.000 C 
BRANCH  28  29
ATOM     29  C   UNL     1       0.505   9.584  19.571  0.00  0.00    +0.000 A 
ATOM     30  C   UNL     1       0.873   9.587  18.212  0.00  0.00    +0.000 A 
ATOM     31  C   UNL     1       1.822   8.698  17.700  0.00  0.00    +0.000 A 
ATOM     32  C   UNL     1       2.445   7.790  18.544  0.00  0.00    +0.000 A 
ATOM     33  C   UNL     1       2.133   7.790  19.899  0.00  0.00    +0.000 A 
ATOM     34  C   UNL     1       1.179   8.681  20.412  0.00  0.00    +0.000 A 
ATOM     35 CL   UNL     1       0.876   8.622  22.113  0.00  0.00    +0.000 Cl
ENDBRANCH  28  29
ENDBRANCH   1  28
TORSDOF 9
ENDMDL
