MODEL 1
REMARK VINA RESULT:      -6.5      0.000      0.000
REMARK  Name = 
REMARK  1 active torsions:
REMARK  status: ('A' for Active; 'I' for Inactive)
REMARK    1  A    between atoms: C_5  and  C_6
REMARK                            x       y       z     vdW  Elec       q    Type
REMARK                         _______ _______ _______ _____ _____    ______ ____
ROOT
ATOM      1  C   UNL     1       5.061   3.670  18.125  0.00  0.00    +0.000 C 
ATOM      2  C   UNL     1       3.667   3.783  17.424  0.00  0.00    +0.000 C 
ATOM      3  N   UNL     1       2.800   3.208  18.426  0.00  0.00    +0.000 N 
ATOM      4  C   UNL     1       1.407   3.555  18.583  0.00  0.00    +0.000 C 
ATOM      5  C   UNL     1       0.992   3.113  19.998  0.00  0.00    +0.000 C 
ATOM      6  S   UNL     1       2.526   2.920  20.981  0.00  0.00    +0.000 S 
ATOM      7  C   UNL     1       3.511   3.134  19.580  0.00  0.00    +0.000 C 
ATOM      8  N   UNL     1       4.790   3.316  19.567  0.00  0.00    +0.000 NA
ENDROOT
BRANCH   1  13
ATOM      9 CL   UNL     1       8.238   8.795  17.720  0.00  0.00    +0.000 Cl
ATOM     10  C   UNL     1       7.346   7.328  17.818  0.00  0.00    +0.000 A 
ATOM     11  C   UNL     1       6.172   7.185  17.084  0.00  0.00    +0.000 A 
ATOM     12  C   UNL     1       5.442   5.999  17.177  0.00  0.00    +0.000 A 
ATOM     13  C   UNL     1       5.871   4.949  18.007  0.00  0.00    +0.000 A 
ATOM     14  C   UNL     1       7.065   5.105  18.727  0.00  0.00    +0.000 A 
ATOM     15  C   UNL     1       7.798   6.293  18.635  0.00  0.00    +0.000 A 
ENDBRANCH   1  13
TORSDOF 1
ENDMDL
MODEL 2
REMARK VINA RESULT:      -6.5      0.105      1.252
REMARK  Name = 
REMARK  1 active torsions:
REMARK  status: ('A' for Active; 'I' for Inactive)
REMARK    1  A    between atoms: C_5  and  C_6
REMARK                            x       y       z     vdW  Elec       q    Type
REMARK                         _______ _______ _______ _____ _____    ______ ____
ROOT
ATOM      1  C   UNL     1       4.990   3.713  18.104  0.00  0.00    +0.000 C 
ATOM      2  C   UNL     1       3.560   3.876  17.491  0.00  0.00    +0.000 C 
ATOM      3  N   UNL     1       2.744   3.246  18.502  0.00  0.00    +0.000 N 
ATOM      4  C   UNL     1       1.366   3.591  18.757  0.00  0.00    +0.000 C 
ATOM      5  C   UNL     1       1.025   3.066  20.164  0.00  0.00    +0.000 C 
ATOM      6  S   UNL     1       2.610   2.805  21.046  0.00  0.00    +0.000 S 
ATOM      7  C   UNL     1       3.518   3.098  19.609  0.00  0.00    +0.000 C 
ATOM      8  N   UNL     1       4.795   3.273  19.535  0.00  0.00    +0.000 NA
ENDROOT
BRANCH   1  13
ATOM      9 CL   UNL     1       8.268   8.774  17.699  0.00  0.00    +0.000 Cl
ATOM     10  C   UNL     1       7.324   7.342  17.831  0.00  0.00    +0.000 A 
ATOM     11  C   UNL     1       7.757   6.305  18.651  0.00  0.00    +0.000 A 
ATOM     12  C   UNL     1       6.996   5.138  18.746  0.00  0.00    +0.000 A 
ATOM     13  C   UNL     1       5.803   4.993  18.018  0.00  0.00    +0.000 A 
ATOM     14  C   UNL     1       5.373   6.056  17.209  0.00  0.00    +0.000 A 
ATOM     15  C   UNL     1       6.135   7.225  17.114  0.00  0.00    +0.000 A 
ENDBRANCH   1  13
TORSDOF 1
ENDMDL
MODEL 3
REMARK VINA RESULT:      -6.4      2.344      2.874
REMARK  Name = 
REMARK  1 active torsions:
REMARK  status: ('A' for Active; 'I' for Inactive)
REMARK    1  A    between atoms: C_5  and  C_6
REMARK                            x       y       z     vdW  Elec       q    Type
REMARK                         _______ _______ _______ _____ _____    ______ ____
ROOT
ATOM      1  C   UNL     1       5.236   4.228  19.076  0.00  0.00    +0.000 C 
ATOM      2  C   UNL     1       4.422   2.908  19.281  0.00  0.00    +0.000 C 
ATOM      3  N   UNL     1       3.297   3.386  20.051  0.00  0.00    +0.000 N 
ATOM      4  C   UNL     1       1.990   2.772  20.035  0.00  0.00    +0.000 C 
ATOM      5  C   UNL     1       0.997   3.819  20.575  0.00  0.00    +0.000 C 
ATOM      6  S   UNL     1       1.796   5.459  20.418  0.00  0.00    +0.000 S 
ATOM      7  C   UNL     1       3.300   4.742  19.969  0.00  0.00    +0.000 C 
ATOM      8  N   UNL     1       4.330   5.360  19.497  0.00  0.00    +0.000 NA
ENDROOT
BRANCH   1  13
ATOM      9 CL   UNL     1       7.144   4.810  13.372  0.00  0.00    +0.000 Cl
ATOM     10  C   UNL     1       6.595   4.667  14.995  0.00  0.00    +0.000 A 
ATOM     11  C   UNL     1       7.490   4.859  16.044  0.00  0.00    +0.000 A 
ATOM     12  C   UNL     1       7.046   4.727  17.361  0.00  0.00    +0.000 A 
ATOM     13  C   UNL     1       5.710   4.395  17.644  0.00  0.00    +0.000 A 
ATOM     14  C   UNL     1       4.819   4.220  16.574  0.00  0.00    +0.000 A 
ATOM     15  C   UNL     1       5.262   4.352  15.254  0.00  0.00    +0.000 A 
ENDBRANCH   1  13
TORSDOF 1
ENDMDL
MODEL 4
REMARK VINA RESULT:      -6.4      2.330      2.651
REMARK  Name = 
REMARK  1 active torsions:
REMARK  status: ('A' for Active; 'I' for Inactive)
REMARK    1  A    between atoms: C_5  and  C_6
REMARK                            x       y       z     vdW  Elec       q    Type
REMARK                         _______ _______ _______ _____ _____    ______ ____
ROOT
ATOM      1  C   UNL     1       5.235   4.235  19.104  0.00  0.00    +0.000 C 
ATOM      2  C   UNL     1       4.430   2.913  19.329  0.00  0.00    +0.000 C 
ATOM      3  N   UNL     1       3.294   3.397  20.077  0.00  0.00    +0.000 N 
ATOM      4  C   UNL     1       1.992   2.772  20.062  0.00  0.00    +0.000 C 
ATOM      5  C   UNL     1       0.985   3.820  20.570  0.00  0.00    +0.000 C 
ATOM      6  S   UNL     1       1.772   5.464  20.387  0.00  0.00    +0.000 S 
ATOM      7  C   UNL     1       3.286   4.750  19.968  0.00  0.00    +0.000 C 
ATOM      8  N   UNL     1       4.316   5.368  19.493  0.00  0.00    +0.000 NA
ENDROOT
BRANCH   1  13
ATOM      9 CL   UNL     1       7.154   4.883  13.410  0.00  0.00    +0.000 Cl
ATOM     10  C   UNL     1       6.613   4.676  15.030  0.00  0.00    +0.000 A 
ATOM     11  C   UNL     1       5.284   4.348  15.276  0.00  0.00    +0.000 A 
ATOM     12  C   UNL     1       4.843   4.195  16.591  0.00  0.00    +0.000 A 
ATOM     13  C   UNL     1       5.722   4.377  17.673  0.00  0.00    +0.000 A 
ATOM     14  C   UNL     1       7.063   4.692  17.406  0.00  0.00    +0.000 A 
ATOM     15  C   UNL     1       7.505   4.845  16.087  0.00  0.00    +0.000 A 
ENDBRANCH   1  13
TORSDOF 1
ENDMDL
MODEL 5
REMARK VINA RESULT:      -6.2      2.513      3.090
REMARK  Name = 
REMARK  1 active torsions:
REMARK  status: ('A' for Active; 'I' for Inactive)
REMARK    1  A    between atoms: C_5  and  C_6
REMARK                            x       y       z     vdW  Elec       q    Type
REMARK                         _______ _______ _______ _____ _____    ______ ____
ROOT
ATOM      1  C   UNL     1       2.785   5.636  18.224  0.00  0.00    +0.000 C 
ATOM      2  C   UNL     1       3.247   5.563  19.716  0.00  0.00    +0.000 C 
ATOM      3  N   UNL     1       2.244   4.691  20.281  0.00  0.00    +0.000 N 
ATOM      4  C   UNL     1       2.469   3.837  21.423  0.00  0.00    +0.000 C 
ATOM      5  C   UNL     1       1.365   2.762  21.403  0.00  0.00    +0.000 C 
ATOM      6  S   UNL     1       0.689   2.709  19.702  0.00  0.00    +0.000 S 
ATOM      7  C   UNL     1       1.585   4.110  19.245  0.00  0.00    +0.000 C 
ATOM      8  N   UNL     1       1.742   4.558  18.044  0.00  0.00    +0.000 NA
ENDROOT
BRANCH   1  13
ATOM      9 CL   UNL     1       7.327   4.949  14.297  0.00  0.00    +0.000 Cl
ATOM     10  C   UNL     1       6.049   5.144  15.432  0.00  0.00    +0.000 A 
ATOM     11  C   UNL     1       5.402   4.022  15.940  0.00  0.00    +0.000 A 
ATOM     12  C   UNL     1       4.355   4.183  16.849  0.00  0.00    +0.000 A 
ATOM     13  C   UNL     1       3.940   5.463  17.254  0.00  0.00    +0.000 A 
ATOM     14  C   UNL     1       4.615   6.583  16.743  0.00  0.00    +0.000 A 
ATOM     15  C   UNL     1       5.664   6.422  15.832  0.00  0.00    +0.000 A 
ENDBRANCH   1  13
TORSDOF 1
ENDMDL
MODEL 6
REMARK VINA RESULT:      -6.2      2.513      3.014
REMARK  Name = 
REMARK  1 active torsions:
REMARK  status: ('A' for Active; 'I' for Inactive)
REMARK    1  A    between atoms: C_5  and  C_6
REMARK                            x       y       z     vdW  Elec       q    Type
REMARK                         _______ _______ _______ _____ _____    ______ ____
ROOT
ATOM      1  C   UNL     1       2.796   5.626  18.319  0.00  0.00    +0.000 C 
ATOM      2  C   UNL     1       3.310   5.489  19.790  0.00  0.00    +0.000 C 
ATOM      3  N   UNL     1       2.302   4.626  20.362  0.00  0.00    +0.000 N 
ATOM      4  C   UNL     1       2.543   3.726  21.466  0.00  0.00    +0.000 C 
ATOM      5  C   UNL     1       1.408   2.685  21.450  0.00  0.00    +0.000 C 
ATOM      6  S   UNL     1       0.670   2.710  19.774  0.00  0.00    +0.000 S 
ATOM      7  C   UNL     1       1.590   4.100  19.332  0.00  0.00    +0.000 C 
ATOM      8  N   UNL     1       1.717   4.585  18.142  0.00  0.00    +0.000 NA
ENDROOT
BRANCH   1  13
ATOM      9 CL   UNL     1       7.287   4.941  14.333  0.00  0.00    +0.000 Cl
ATOM     10  C   UNL     1       5.994   5.136  15.451  0.00  0.00    +0.000 A 
ATOM     11  C   UNL     1       5.593   6.415  15.823  0.00  0.00    +0.000 A 
ATOM     12  C   UNL     1       4.553   6.571  16.742  0.00  0.00    +0.000 A 
ATOM     13  C   UNL     1       3.910   5.454  17.302  0.00  0.00    +0.000 A 
ATOM     14  C   UNL     1       4.317   4.172  16.902  0.00  0.00    +0.000 A 
ATOM     15  C   UNL     1       5.359   4.015  15.982  0.00  0.00    +0.000 A 
ENDBRANCH   1  13
TORSDOF 1
ENDMDL
MODEL 7
REMARK VINA RESULT:      -6.0      4.265      4.732
REMARK  Name = 
REMARK  1 active torsions:
REMARK  status: ('A' for Active; 'I' for Inactive)
REMARK    1  A    between atoms: C_5  and  C_6
REMARK                            x       y       z     vdW  Elec       q    Type
REMARK                         _______ _______ _______ _____ _____    ______ ____
ROOT
ATOM      1  C   UNL     1       2.948   6.272  19.499  0.00  0.00    +0.000 C 
ATOM      2  C   UNL     1       2.987   5.425  18.186  0.00  0.00    +0.000 C 
ATOM      3  N   UNL     1       2.643   4.114  18.684  0.00  0.00    +0.000 N 
ATOM      4  C   UNL     1       1.985   3.098  17.896  0.00  0.00    +0.000 C 
ATOM      5  C   UNL     1       1.385   2.082  18.885  0.00  0.00    +0.000 C 
ATOM      6  S   UNL     1       1.267   2.912  20.514  0.00  0.00    +0.000 S 
ATOM      7  C   UNL     1       2.155   4.276  19.941  0.00  0.00    +0.000 C 
ATOM      8  N   UNL     1       2.294   5.407  20.550  0.00  0.00    +0.000 NA
ENDROOT
BRANCH   1  13
ATOM      9 CL   UNL     1      -0.076  11.451  18.751  0.00  0.00    +0.000 Cl
ATOM     10  C   UNL     1       0.803   9.989  18.970  0.00  0.00    +0.000 A 
ATOM     11  C   UNL     1       1.473   9.420  17.891  0.00  0.00    +0.000 A 
ATOM     12  C   UNL     1       2.173   8.226  18.066  0.00  0.00    +0.000 A 
ATOM     13  C   UNL     1       2.206   7.584  19.317  0.00  0.00    +0.000 A 
ATOM     14  C   UNL     1       1.538   8.181  20.397  0.00  0.00    +0.000 A 
ATOM     15  C   UNL     1       0.836   9.378  20.222  0.00  0.00    +0.000 A 
ENDBRANCH   1  13
TORSDOF 1
ENDMDL
MODEL 8
REMARK VINA RESULT:      -6.0      4.195      4.722
REMARK  Name = 
REMARK  1 active torsions:
REMARK  status: ('A' for Active; 'I' for Inactive)
REMARK    1  A    between atoms: C_5  and  C_6
REMARK                            x       y       z     vdW  Elec       q    Type
REMARK                         _______ _______ _______ _____ _____    ______ ____
ROOT
ATOM      1  C   UNL     1       3.052   6.191  19.424  0.00  0.00    +0.000 C 
ATOM      2  C   UNL     1       3.024   5.324  18.123  0.00  0.00    +0.000 C 
ATOM      3  N   UNL     1       2.741   4.014  18.661  0.00  0.00    +0.000 N 
ATOM      4  C   UNL     1       2.056   2.973  17.931  0.00  0.00    +0.000 C 
ATOM      5  C   UNL     1       1.542   1.960  18.972  0.00  0.00    +0.000 C 
ATOM      6  S   UNL     1       1.512   2.813  20.593  0.00  0.00    +0.000 S 
ATOM      7  C   UNL     1       2.332   4.186  19.944  0.00  0.00    +0.000 C 
ATOM      8  N   UNL     1       2.486   5.328  20.527  0.00  0.00    +0.000 NA
ENDROOT
BRANCH   1  13
ATOM      9 CL   UNL     1       0.018  11.384  18.834  0.00  0.00    +0.000 Cl
ATOM     10  C   UNL     1       0.862   9.895  18.997  0.00  0.00    +0.000 A 
ATOM     11  C   UNL     1       0.924   9.270  20.239  0.00  0.00    +0.000 A 
ATOM     12  C   UNL     1       1.623   8.069  20.372  0.00  0.00    +0.000 A 
ATOM     13  C   UNL     1       2.272   7.485  19.271  0.00  0.00    +0.000 A 
ATOM     14  C   UNL     1       2.185   8.120  18.023  0.00  0.00    +0.000 A 
ATOM     15  C   UNL     1       1.485   9.324  17.888  0.00  0.00    +0.000 A 
ENDBRANCH   1  13
TORSDOF 1
ENDMDL
MODEL 9
REMARK VINA RESULT:      -6.0      4.568      5.779
REMARK  Name = 
REMARK  1 active torsions:
REMARK  status: ('A' for Active; 'I' for Inactive)
REMARK    1  A    between atoms: C_5  and  C_6
REMARK                            x       y       z     vdW  Elec       q    Type
REMARK                         _______ _______ _______ _____ _____    ______ ____
ROOT
ATOM      1  C   UNL     1       3.326   6.395  18.015  0.00  0.00    +0.000 C 
ATOM      2  C   UNL     1       4.025   5.543  19.125  0.00  0.00    +0.000 C 
ATOM      3  N   UNL     1       5.375   5.471  18.619  0.00  0.00    +0.000 N 
ATOM      4  C   UNL     1       6.543   5.322  19.455  0.00  0.00    +0.000 C 
ATOM      5  C   UNL     1       7.756   5.762  18.614  0.00  0.00    +0.000 C 
ATOM      6  S   UNL     1       7.119   6.785  17.234  0.00  0.00    +0.000 S 
ATOM      7  C   UNL     1       5.486   6.397  17.632  0.00  0.00    +0.000 C 
ATOM      8  N   UNL     1       4.428   6.963  17.153  0.00  0.00    +0.000 NA
ENDROOT
BRANCH   1  13
ATOM      9 CL   UNL     1      -0.090  10.802  20.346  0.00  0.00    +0.000 Cl
ATOM     10  C   UNL     1       0.864   9.537  19.677  0.00  0.00    +0.000 A 
ATOM     11  C   UNL     1       1.281   8.486  20.489  0.00  0.00    +0.000 A 
ATOM     12  C   UNL     1       2.067   7.468  19.948  0.00  0.00    +0.000 A 
ATOM     13  C   UNL     1       2.450   7.491  18.596  0.00  0.00    +0.000 A 
ATOM     14  C   UNL     1       2.006   8.550  17.788  0.00  0.00    +0.000 A 
ATOM     15  C   UNL     1       1.219   9.571  18.330  0.00  0.00    +0.000 A 
ENDBRANCH   1  13
TORSDOF 1
ENDMDL
