MODEL 1
REMARK VINA RESULT:      -7.4      0.000      0.000
REMARK  Name = 
REMARK  12 active torsions:
REMARK  status: ('A' for Active; 'I' for Inactive)
REMARK    1  A    between atoms: C_1  and  C_2
REMARK    2  A    between atoms: C_2  and  O_3
REMARK    3  A    between atoms: O_3  and  C_4
REMARK    4  A    between atoms: C_7  and  C_8
REMARK    5  A    between atoms: C_8  and  N_9
REMARK    6  A    between atoms: C_10  and  C_12
REMARK    7  A    between atoms: C_12  and  N_13
REMARK    8  A    between atoms: C_15  and  C_16
REMARK    9  A    between atoms: N_19  and  C_20
REMARK   10  A    between atoms: C_27  and  C_28
REMARK   11  A    between atoms: C_33  and  O_34
REMARK   12  A    between atoms: O_34  and  C_35
REMARK                            x       y       z     vdW  Elec       q    Type
REMARK                         _______ _______ _______ _____ _____    ______ ____
ROOT
ATOM      1  N   UNL     1       1.646   6.556  20.253  0.00  0.00    +0.000 N 
ATOM      2  N   UNL     1       2.413   6.581  19.071  0.00  0.00    +0.000 NA
ATOM      3  C   UNL     1       2.572   7.707  18.423  0.00  0.00    +0.000 A 
ATOM      4  C   UNL     1       3.399   7.743  17.170  0.00  0.00    +0.000 C 
ATOM      5  C   UNL     1       1.965   8.915  18.935  0.00  0.00    +0.000 A 
ATOM      6  N   UNL     1       1.958  10.114  18.352  0.00  0.00    +0.000 NA
ATOM      7  N   UNL     1       1.337  10.932  19.260  0.00  0.00    +0.000 N 
ATOM      8  C   UNL     1       0.842  10.206  20.343  0.00  0.00    +0.000 A 
ATOM      9  C   UNL     1      -0.048  10.708  21.425  0.00  0.00    +0.000 C 
ATOM     10  C   UNL     1       1.267   8.907  20.138  0.00  0.00    +0.000 A 
ATOM     11  C   UNL     1       1.064   7.682  20.873  0.00  0.00    +0.000 A 
ATOM     12  O   UNL     1       0.415   7.641  21.913  0.00  0.00    +0.000 OA
ENDROOT
BRANCH   7  13
ATOM     13  C   UNL     1       1.275  12.331  18.990  0.00  0.00    +0.000 A 
ATOM     14  C   UNL     1       0.014  12.932  18.825  0.00  0.00    +0.000 A 
ATOM     15  C   UNL     1      -0.082  14.309  18.598  0.00  0.00    +0.000 A 
ATOM     16  C   UNL     1       1.074  15.076  18.501  0.00  0.00    +0.000 A 
ATOM     17 CL   UNL     1       0.957  16.773  18.227  0.00  0.00    +0.000 Cl
ATOM     18  C   UNL     1       2.329  14.481  18.616  0.00  0.00    +0.000 A 
ATOM     19  C   UNL     1       2.432  13.106  18.857  0.00  0.00    +0.000 A 
ENDBRANCH   7  13
BRANCH   1  20
ATOM     20  C   UNL     1       1.382   5.244  20.832  0.00  0.00    +0.000 C 
BRANCH  20  22
ATOM     21  N   UNL     1       3.464   4.096  20.268  0.00  0.00    +0.000 N 
ATOM     22  C   UNL     1       2.096   4.120  20.089  0.00  0.00    +0.000 C 
ATOM     23  O   UNL     1       1.519   3.407  19.272  0.00  0.00    +0.000 OA
ATOM     24  H   UNL     1       3.862   4.687  20.990  0.00  0.00    +0.000 HD
BRANCH  21  25
ATOM     25  C   UNL     1       4.313   3.179  19.548  0.00  0.00    +0.000 C 
BRANCH  25  29
ATOM     26  C   UNL     1       5.806   5.039  15.919  0.00  0.00    +0.000 A 
ATOM     27  C   UNL     1       4.684   4.189  15.909  0.00  0.00    +0.000 A 
ATOM     28  C   UNL     1       4.211   3.579  17.072  0.00  0.00    +0.000 A 
ATOM     29  C   UNL     1       4.855   3.787  18.286  0.00  0.00    +0.000 A 
ATOM     30  C   UNL     1       6.015   4.569  18.294  0.00  0.00    +0.000 A 
ATOM     31  C   UNL     1       6.501   5.199  17.130  0.00  0.00    +0.000 A 
BRANCH  31  32
ATOM     32  O   UNL     1       7.631   5.919  17.409  0.00  0.00    +0.000 OA
ATOM     33  C   UNL     1       7.887   6.346  18.733  0.00  0.00    +0.000 C 
ENDBRANCH  31  32
BRANCH  26  34
ATOM     34  O   UNL     1       6.233   5.678  14.772  0.00  0.00    +0.000 OA
BRANCH  34  36
ATOM     35  C   UNL     1       6.553   4.064  12.970  0.00  0.00    +0.000 C 
ATOM     36  C   UNL     1       7.211   4.954  14.008  0.00  0.00    +0.000 C 
ENDBRANCH  34  36
ENDBRANCH  26  34
ENDBRANCH  25  29
ENDBRANCH  21  25
ENDBRANCH  20  22
ENDBRANCH   1  20
TORSDOF 8
ENDMDL
MODEL 2
REMARK VINA RESULT:      -7.1      3.578      4.907
REMARK  Name = 
REMARK  12 active torsions:
REMARK  status: ('A' for Active; 'I' for Inactive)
REMARK    1  A    between atoms: C_1  and  C_2
REMARK    2  A    between atoms: C_2  and  O_3
REMARK    3  A    between atoms: O_3  and  C_4
REMARK    4  A    between atoms: C_7  and  C_8
REMARK    5  A    between atoms: C_8  and  N_9
REMARK    6  A    between atoms: C_10  and  C_12
REMARK    7  A    between atoms: C_12  and  N_13
REMARK    8  A    between atoms: C_15  and  C_16
REMARK    9  A    between atoms: N_19  and  C_20
REMARK   10  A    between atoms: C_27  and  C_28
REMARK   11  A    between atoms: C_33  and  O_34
REMARK   12  A    between atoms: O_34  and  C_35
REMARK                            x       y       z     vdW  Elec       q    Type
REMARK                         _______ _______ _______ _____ _____    ______ ____
ROOT
ATOM      1  N   UNL     1       0.469  11.153  18.696  0.00  0.00    +0.000 N 
ATOM      2  N   UNL     1      -0.796  10.780  18.199  0.00  0.00    +0.000 NA
ATOM      3  C   UNL     1      -1.877  11.299  18.721  0.00  0.00    +0.000 A 
ATOM      4  C   UNL     1      -3.228  10.915  18.188  0.00  0.00    +0.000 C 
ATOM      5  C   UNL     1      -1.760  12.258  19.797  0.00  0.00    +0.000 A 
ATOM      6  N   UNL     1      -2.758  12.807  20.489  0.00  0.00    +0.000 NA
ATOM      7  N   UNL     1      -2.141  13.699  21.328  0.00  0.00    +0.000 N 
ATOM      8  C   UNL     1      -0.753  13.599  21.245  0.00  0.00    +0.000 A 
ATOM      9  C   UNL     1       0.247  14.258  22.129  0.00  0.00    +0.000 C 
ATOM     10  C   UNL     1      -0.512  12.680  20.240  0.00  0.00    +0.000 A 
ATOM     11  C   UNL     1       0.701  12.122  19.695  0.00  0.00    +0.000 A 
ATOM     12  O   UNL     1       1.813  12.445  20.100  0.00  0.00    +0.000 OA
ENDROOT
BRANCH   7  13
ATOM     13  C   UNL     1      -2.951  14.553  22.133  0.00  0.00    +0.000 A 
ATOM     14  C   UNL     1      -3.760  13.977  23.130  0.00  0.00    +0.000 A 
ATOM     15  C   UNL     1      -4.536  14.791  23.961  0.00  0.00    +0.000 A 
ATOM     16  C   UNL     1      -4.533  16.170  23.776  0.00  0.00    +0.000 A 
ATOM     17 CL   UNL     1      -5.484  17.175  24.803  0.00  0.00    +0.000 Cl
ATOM     18  C   UNL     1      -3.772  16.746  22.761  0.00  0.00    +0.000 A 
ATOM     19  C   UNL     1      -2.983  15.938  21.934  0.00  0.00    +0.000 A 
ENDBRANCH   7  13
BRANCH   1  20
ATOM     20  C   UNL     1       1.618  10.419  18.176  0.00  0.00    +0.000 C 
BRANCH  20  22
ATOM     21  N   UNL     1       2.407   8.109  18.058  0.00  0.00    +0.000 N 
ATOM     22  C   UNL     1       1.801   9.063  18.850  0.00  0.00    +0.000 C 
ATOM     23  O   UNL     1       1.299   8.802  19.940  0.00  0.00    +0.000 OA
ATOM     24  H   UNL     1       2.833   8.410  17.188  0.00  0.00    +0.000 HD
BRANCH  21  25
ATOM     25  C   UNL     1       2.553   6.740  18.487  0.00  0.00    +0.000 C 
BRANCH  25  29
ATOM     26  C   UNL     1       5.760   4.762  16.325  0.00  0.00    +0.000 A 
ATOM     27  C   UNL     1       4.603   4.071  16.734  0.00  0.00    +0.000 A 
ATOM     28  C   UNL     1       3.578   4.700  17.441  0.00  0.00    +0.000 A 
ATOM     29  C   UNL     1       3.681   6.046  17.778  0.00  0.00    +0.000 A 
ATOM     30  C   UNL     1       4.858   6.723  17.443  0.00  0.00    +0.000 A 
ATOM     31  C   UNL     1       5.899   6.104  16.722  0.00  0.00    +0.000 A 
BRANCH  31  32
ATOM     32  O   UNL     1       6.924   6.985  16.505  0.00  0.00    +0.000 OA
ATOM     33  C   UNL     1       7.594   7.572  17.604  0.00  0.00    +0.000 C 
ENDBRANCH  31  32
BRANCH  26  34
ATOM     34  O   UNL     1       6.742   4.142  15.581  0.00  0.00    +0.000 OA
BRANCH  34  36
ATOM     35  C   UNL     1       6.006   3.703  13.296  0.00  0.00    +0.000 C 
ATOM     36  C   UNL     1       6.832   4.582  14.216  0.00  0.00    +0.000 C 
ENDBRANCH  34  36
ENDBRANCH  26  34
ENDBRANCH  25  29
ENDBRANCH  21  25
ENDBRANCH  20  22
ENDBRANCH   1  20
TORSDOF 8
ENDMDL
MODEL 3
REMARK VINA RESULT:      -7.0      4.542      9.480
REMARK  Name = 
REMARK  12 active torsions:
REMARK  status: ('A' for Active; 'I' for Inactive)
REMARK    1  A    between atoms: C_1  and  C_2
REMARK    2  A    between atoms: C_2  and  O_3
REMARK    3  A    between atoms: O_3  and  C_4
REMARK    4  A    between atoms: C_7  and  C_8
REMARK    5  A    between atoms: C_8  and  N_9
REMARK    6  A    between atoms: C_10  and  C_12
REMARK    7  A    between atoms: C_12  and  N_13
REMARK    8  A    between atoms: C_15  and  C_16
REMARK    9  A    between atoms: N_19  and  C_20
REMARK   10  A    between atoms: C_27  and  C_28
REMARK   11  A    between atoms: C_33  and  O_34
REMARK   12  A    between atoms: O_34  and  C_35
REMARK                            x       y       z     vdW  Elec       q    Type
REMARK                         _______ _______ _______ _____ _____    ______ ____
ROOT
ATOM      1  N   UNL     1      -1.723  12.098  21.601  0.00  0.00    +0.000 N 
ATOM      2  N   UNL     1      -2.072  12.260  20.245  0.00  0.00    +0.000 NA
ATOM      3  C   UNL     1      -1.455  11.560  19.328  0.00  0.00    +0.000 A 
ATOM      4  C   UNL     1      -1.830  11.719  17.882  0.00  0.00    +0.000 C 
ATOM      5  C   UNL     1      -0.428  10.620  19.719  0.00  0.00    +0.000 A 
ATOM      6  N   UNL     1       0.348   9.903  18.907  0.00  0.00    +0.000 NA
ATOM      7  N   UNL     1       1.089   9.116  19.750  0.00  0.00    +0.000 N 
ATOM      8  C   UNL     1       0.863   9.448  21.086  0.00  0.00    +0.000 A 
ATOM      9  C   UNL     1       1.615   8.954  22.271  0.00  0.00    +0.000 C 
ATOM     10  C   UNL     1      -0.133  10.408  21.061  0.00  0.00    +0.000 A 
ATOM     11  C   UNL     1      -0.785  11.169  22.098  0.00  0.00    +0.000 A 
ATOM     12  O   UNL     1      -0.510  11.030  23.285  0.00  0.00    +0.000 OA
ENDROOT
BRANCH   7  13
ATOM     13  C   UNL     1       1.947   8.127  19.186  0.00  0.00    +0.000 A 
ATOM     14  C   UNL     1       2.115   6.908  19.867  0.00  0.00    +0.000 A 
ATOM     15  C   UNL     1       2.920   5.903  19.320  0.00  0.00    +0.000 A 
ATOM     16  C   UNL     1       3.582   6.126  18.117  0.00  0.00    +0.000 A 
ATOM     17 CL   UNL     1       4.569   4.887  17.439  0.00  0.00    +0.000 Cl
ATOM     18  C   UNL     1       3.460   7.348  17.459  0.00  0.00    +0.000 A 
ATOM     19  C   UNL     1       2.645   8.353  17.994  0.00  0.00    +0.000 A 
ENDBRANCH   7  13
BRANCH   1  20
ATOM     20  C   UNL     1      -2.338  13.021  22.548  0.00  0.00    +0.000 C 
BRANCH  20  22
ATOM     21  N   UNL     1      -1.451  15.071  21.558  0.00  0.00    +0.000 N 
ATOM     22  C   UNL     1      -1.545  14.314  22.707  0.00  0.00    +0.000 C 
ATOM     23  O   UNL     1      -0.908  14.568  23.727  0.00  0.00    +0.000 OA
ATOM     24  H   UNL     1      -2.039  14.820  20.771  0.00  0.00    +0.000 HD
BRANCH  21  25
ATOM     25  C   UNL     1      -0.640  16.262  21.491  0.00  0.00    +0.000 C 
BRANCH  25  29
ATOM     26  C   UNL     1       2.404  15.886  18.416  0.00  0.00    +0.000 A 
ATOM     27  C   UNL     1       2.141  14.848  19.330  0.00  0.00    +0.000 A 
ATOM     28  C   UNL     1       1.173  14.972  20.328  0.00  0.00    +0.000 A 
ATOM     29  C   UNL     1       0.442  16.148  20.456  0.00  0.00    +0.000 A 
ATOM     30  C   UNL     1       0.748  17.212  19.601  0.00  0.00    +0.000 A 
ATOM     31  C   UNL     1       1.716  17.101  18.583  0.00  0.00    +0.000 A 
BRANCH  31  32
ATOM     32  O   UNL     1       1.809  18.270  17.877  0.00  0.00    +0.000 OA
ATOM     33  C   UNL     1       1.011  18.464  16.726  0.00  0.00    +0.000 C 
ENDBRANCH  31  32
BRANCH  26  34
ATOM     34  O   UNL     1       3.326  15.732  17.401  0.00  0.00    +0.000 OA
BRANCH  34  36
ATOM     35  C   UNL     1       5.404  16.179  18.599  0.00  0.00    +0.000 C 
ATOM     36  C   UNL     1       4.585  15.174  17.811  0.00  0.00    +0.000 C 
ENDBRANCH  34  36
ENDBRANCH  26  34
ENDBRANCH  25  29
ENDBRANCH  21  25
ENDBRANCH  20  22
ENDBRANCH   1  20
TORSDOF 8
ENDMDL
MODEL 4
REMARK VINA RESULT:      -6.9      3.229      4.210
REMARK  Name = 
REMARK  12 active torsions:
REMARK  status: ('A' for Active; 'I' for Inactive)
REMARK    1  A    between atoms: C_1  and  C_2
REMARK    2  A    between atoms: C_2  and  O_3
REMARK    3  A    between atoms: O_3  and  C_4
REMARK    4  A    between atoms: C_7  and  C_8
REMARK    5  A    between atoms: C_8  and  N_9
REMARK    6  A    between atoms: C_10  and  C_12
REMARK    7  A    between atoms: C_12  and  N_13
REMARK    8  A    between atoms: C_15  and  C_16
REMARK    9  A    between atoms: N_19  and  C_20
REMARK   10  A    between atoms: C_27  and  C_28
REMARK   11  A    between atoms: C_33  and  O_34
REMARK   12  A    between atoms: O_34  and  C_35
REMARK                            x       y       z     vdW  Elec       q    Type
REMARK                         _______ _______ _______ _____ _____    ______ ____
ROOT
ATOM      1  N   UNL     1       1.296  10.018  19.255  0.00  0.00    +0.000 N 
ATOM      2  N   UNL     1       0.847   9.138  20.260  0.00  0.00    +0.000 NA
ATOM      3  C   UNL     1       0.171   9.605  21.278  0.00  0.00    +0.000 A 
ATOM      4  C   UNL     1      -0.322   8.671  22.346  0.00  0.00    +0.000 C 
ATOM      5  C   UNL     1      -0.116  11.020  21.353  0.00  0.00    +0.000 A 
ATOM      6  N   UNL     1      -0.711  11.662  22.358  0.00  0.00    +0.000 NA
ATOM      7  N   UNL     1      -0.823  12.956  21.920  0.00  0.00    +0.000 N 
ATOM      8  C   UNL     1      -0.173  13.137  20.699  0.00  0.00    +0.000 A 
ATOM      9  C   UNL     1       0.087  14.428  20.006  0.00  0.00    +0.000 C 
ATOM     10  C   UNL     1       0.265  11.879  20.328  0.00  0.00    +0.000 A 
ATOM     11  C   UNL     1       1.020  11.400  19.197  0.00  0.00    +0.000 A 
ATOM     12  O   UNL     1       1.406  12.145  18.302  0.00  0.00    +0.000 OA
ENDROOT
BRANCH   7  13
ATOM     13  C   UNL     1      -1.536  13.892  22.725  0.00  0.00    +0.000 A 
ATOM     14  C   UNL     1      -2.926  13.735  22.873  0.00  0.00    +0.000 A 
ATOM     15  C   UNL     1      -3.649  14.613  23.687  0.00  0.00    +0.000 A 
ATOM     16  C   UNL     1      -2.995  15.664  24.321  0.00  0.00    +0.000 A 
ATOM     17 CL   UNL     1      -3.883  16.744  25.329  0.00  0.00    +0.000 Cl
ATOM     18  C   UNL     1      -1.627  15.856  24.142  0.00  0.00    +0.000 A 
ATOM     19  C   UNL     1      -0.895  14.972  23.340  0.00  0.00    +0.000 A 
ENDBRANCH   7  13
BRANCH   1  20
ATOM     20  C   UNL     1       2.175   9.452  18.237  0.00  0.00    +0.000 C 
BRANCH  20  22
ATOM     21  N   UNL     1       3.196   7.366  18.995  0.00  0.00    +0.000 N 
ATOM     22  C   UNL     1       2.181   7.927  18.248  0.00  0.00    +0.000 C 
ATOM     23  O   UNL     1       1.447   7.265  17.518  0.00  0.00    +0.000 OA
ATOM     24  H   UNL     1       3.734   7.973  19.604  0.00  0.00    +0.000 HD
BRANCH  21  25
ATOM     25  C   UNL     1       3.428   5.942  19.023  0.00  0.00    +0.000 C 
BRANCH  25  29
ATOM     26  C   UNL     1       6.065   4.752  15.783  0.00  0.00    +0.000 A 
ATOM     27  C   UNL     1       4.860   4.074  16.046  0.00  0.00    +0.000 A 
ATOM     28  C   UNL     1       4.017   4.445  17.095  0.00  0.00    +0.000 A 
ATOM     29  C   UNL     1       4.360   5.503  17.930  0.00  0.00    +0.000 A 
ATOM     30  C   UNL     1       5.591   6.135  17.725  0.00  0.00    +0.000 A 
ATOM     31  C   UNL     1       6.449   5.778  16.665  0.00  0.00    +0.000 A 
BRANCH  31  32
ATOM     32  O   UNL     1       7.573   6.558  16.672  0.00  0.00    +0.000 OA
ATOM     33  C   UNL     1       7.639   7.693  17.514  0.00  0.00    +0.000 C 
ENDBRANCH  31  32
BRANCH  26  34
ATOM     34  O   UNL     1       6.863   4.409  14.711  0.00  0.00    +0.000 OA
BRANCH  34  36
ATOM     35  C   UNL     1       6.925   4.005  12.305  0.00  0.00    +0.000 C 
ATOM     36  C   UNL     1       6.163   3.819  13.604  0.00  0.00    +0.000 C 
ENDBRANCH  34  36
ENDBRANCH  26  34
ENDBRANCH  25  29
ENDBRANCH  21  25
ENDBRANCH  20  22
ENDBRANCH   1  20
TORSDOF 8
ENDMDL
MODEL 5
REMARK VINA RESULT:      -6.9      3.503      4.549
REMARK  Name = 
REMARK  12 active torsions:
REMARK  status: ('A' for Active; 'I' for Inactive)
REMARK    1  A    between atoms: C_1  and  C_2
REMARK    2  A    between atoms: C_2  and  O_3
REMARK    3  A    between atoms: O_3  and  C_4
REMARK    4  A    between atoms: C_7  and  C_8
REMARK    5  A    between atoms: C_8  and  N_9
REMARK    6  A    between atoms: C_10  and  C_12
REMARK    7  A    between atoms: C_12  and  N_13
REMARK    8  A    between atoms: C_15  and  C_16
REMARK    9  A    between atoms: N_19  and  C_20
REMARK   10  A    between atoms: C_27  and  C_28
REMARK   11  A    between atoms: C_33  and  O_34
REMARK   12  A    between atoms: O_34  and  C_35
REMARK                            x       y       z     vdW  Elec       q    Type
REMARK                         _______ _______ _______ _____ _____    ______ ____
ROOT
ATOM      1  N   UNL     1       0.839  10.303  19.122  0.00  0.00    +0.000 N 
ATOM      2  N   UNL     1      -0.043  10.143  18.035  0.00  0.00    +0.000 NA
ATOM      3  C   UNL     1      -1.246  10.654  18.094  0.00  0.00    +0.000 A 
ATOM      4  C   UNL     1      -2.187  10.498  16.934  0.00  0.00    +0.000 C 
ATOM      5  C   UNL     1      -1.653  11.384  19.274  0.00  0.00    +0.000 A 
ATOM      6  N   UNL     1      -2.863  11.883  19.526  0.00  0.00    +0.000 NA
ATOM      7  N   UNL     1      -2.718  12.546  20.717  0.00  0.00    +0.000 N 
ATOM      8  C   UNL     1      -1.452  12.338  21.263  0.00  0.00    +0.000 A 
ATOM      9  C   UNL     1      -0.988  12.730  22.622  0.00  0.00    +0.000 C 
ATOM     10  C   UNL     1      -0.761  11.602  20.318  0.00  0.00    +0.000 A 
ATOM     11  C   UNL     1       0.569  11.047  20.291  0.00  0.00    +0.000 A 
ATOM     12  O   UNL     1       1.359  11.188  21.218  0.00  0.00    +0.000 OA
ENDROOT
BRANCH   7  13
ATOM     13  C   UNL     1      -3.816  13.308  21.214  0.00  0.00    +0.000 A 
ATOM     14  C   UNL     1      -3.743  14.712  21.166  0.00  0.00    +0.000 A 
ATOM     15  C   UNL     1      -4.819  15.486  21.610  0.00  0.00    +0.000 A 
ATOM     16  C   UNL     1      -5.949  14.865  22.133  0.00  0.00    +0.000 A 
ATOM     17 CL   UNL     1      -7.278  15.817  22.676  0.00  0.00    +0.000 Cl
ATOM     18  C   UNL     1      -6.010  13.476  22.229  0.00  0.00    +0.000 A 
ATOM     19  C   UNL     1      -4.943  12.695  21.773  0.00  0.00    +0.000 A 
ENDBRANCH   7  13
BRANCH   1  20
ATOM     20  C   UNL     1       2.102   9.576  19.051  0.00  0.00    +0.000 C 
BRANCH  20  22
ATOM     21  N   UNL     1       2.258   7.302  19.929  0.00  0.00    +0.000 N 
ATOM     22  C   UNL     1       1.906   8.078  18.845  0.00  0.00    +0.000 C 
ATOM     23  O   UNL     1       1.620   7.601  17.749  0.00  0.00    +0.000 OA
ATOM     24  H   UNL     1       2.443   7.768  20.811  0.00  0.00    +0.000 HD
BRANCH  21  25
ATOM     25  C   UNL     1       2.253   5.861  19.872  0.00  0.00    +0.000 C 
BRANCH  25  29
ATOM     26  C   UNL     1       5.508   4.430  17.377  0.00  0.00    +0.000 A 
ATOM     27  C   UNL     1       4.161   4.290  16.992  0.00  0.00    +0.000 A 
ATOM     28  C   UNL     1       3.113   4.736  17.798  0.00  0.00    +0.000 A 
ATOM     29  C   UNL     1       3.376   5.327  19.030  0.00  0.00    +0.000 A 
ATOM     30  C   UNL     1       4.706   5.402  19.455  0.00  0.00    +0.000 A 
ATOM     31  C   UNL     1       5.776   4.964  18.650  0.00  0.00    +0.000 A 
BRANCH  31  32
ATOM     32  O   UNL     1       6.971   5.166  19.286  0.00  0.00    +0.000 OA
ATOM     33  C   UNL     1       7.823   6.217  18.870  0.00  0.00    +0.000 C 
ENDBRANCH  31  32
BRANCH  26  34
ATOM     34  O   UNL     1       6.536   4.033  16.548  0.00  0.00    +0.000 OA
BRANCH  34  36
ATOM     35  C   UNL     1       6.885   4.819  14.264  0.00  0.00    +0.000 C 
ATOM     36  C   UNL     1       6.163   3.843  15.173  0.00  0.00    +0.000 C 
ENDBRANCH  34  36
ENDBRANCH  26  34
ENDBRANCH  25  29
ENDBRANCH  21  25
ENDBRANCH  20  22
ENDBRANCH   1  20
TORSDOF 8
ENDMDL
MODEL 6
REMARK VINA RESULT:      -6.8      0.758      1.155
REMARK  Name = 
REMARK  12 active torsions:
REMARK  status: ('A' for Active; 'I' for Inactive)
REMARK    1  A    between atoms: C_1  and  C_2
REMARK    2  A    between atoms: C_2  and  O_3
REMARK    3  A    between atoms: O_3  and  C_4
REMARK    4  A    between atoms: C_7  and  C_8
REMARK    5  A    between atoms: C_8  and  N_9
REMARK    6  A    between atoms: C_10  and  C_12
REMARK    7  A    between atoms: C_12  and  N_13
REMARK    8  A    between atoms: C_15  and  C_16
REMARK    9  A    between atoms: N_19  and  C_20
REMARK   10  A    between atoms: C_27  and  C_28
REMARK   11  A    between atoms: C_33  and  O_34
REMARK   12  A    between atoms: O_34  and  C_35
REMARK                            x       y       z     vdW  Elec       q    Type
REMARK                         _______ _______ _______ _____ _____    ______ ____
ROOT
ATOM      1  N   UNL     1       1.790   6.900  20.302  0.00  0.00    +0.000 N 
ATOM      2  N   UNL     1       2.460   6.999  19.066  0.00  0.00    +0.000 NA
ATOM      3  C   UNL     1       2.488   8.143  18.432  0.00  0.00    +0.000 A 
ATOM      4  C   UNL     1       3.211   8.258  17.121  0.00  0.00    +0.000 C 
ATOM      5  C   UNL     1       1.837   9.296  19.013  0.00  0.00    +0.000 A 
ATOM      6  N   UNL     1       1.699  10.499  18.457  0.00  0.00    +0.000 NA
ATOM      7  N   UNL     1       1.093  11.256  19.426  0.00  0.00    +0.000 N 
ATOM      8  C   UNL     1       0.736  10.480  20.528  0.00  0.00    +0.000 A 
ATOM      9  C   UNL     1      -0.102  10.899  21.685  0.00  0.00    +0.000 C 
ATOM     10  C   UNL     1       1.236   9.218  20.265  0.00  0.00    +0.000 A 
ATOM     11  C   UNL     1       1.178   7.972  20.987  0.00  0.00    +0.000 A 
ATOM     12  O   UNL     1       0.616   7.868  22.072  0.00  0.00    +0.000 OA
ENDROOT
BRANCH   7  13
ATOM     13  C   UNL     1       0.911  12.651  19.191  0.00  0.00    +0.000 A 
ATOM     14  C   UNL     1       2.023  13.505  19.293  0.00  0.00    +0.000 A 
ATOM     15  C   UNL     1       1.885  14.873  19.030  0.00  0.00    +0.000 A 
ATOM     16  C   UNL     1       0.636  15.390  18.701  0.00  0.00    +0.000 A 
ATOM     17 CL   UNL     1       0.465  17.073  18.372  0.00  0.00    +0.000 Cl
ATOM     18  C   UNL     1      -0.481  14.559  18.644  0.00  0.00    +0.000 A 
ATOM     19  C   UNL     1      -0.346  13.188  18.892  0.00  0.00    +0.000 A 
ENDBRANCH   7  13
BRANCH   1  20
ATOM     20  C   UNL     1       1.665   5.564  20.873  0.00  0.00    +0.000 C 
BRANCH  20  22
ATOM     21  N   UNL     1       3.174   4.288  19.436  0.00  0.00    +0.000 N 
ATOM     22  C   UNL     1       1.866   4.463  19.837  0.00  0.00    +0.000 C 
ATOM     23  O   UNL     1       0.920   3.901  19.289  0.00  0.00    +0.000 OA
ATOM     24  H   UNL     1       3.902   4.756  19.963  0.00  0.00    +0.000 HD
BRANCH  21  25
ATOM     25  C   UNL     1       3.534   3.376  18.378  0.00  0.00    +0.000 C 
BRANCH  25  29
ATOM     26  C   UNL     1       6.578   5.059  15.777  0.00  0.00    +0.000 A 
ATOM     27  C   UNL     1       5.888   3.878  15.443  0.00  0.00    +0.000 A 
ATOM     28  C   UNL     1       4.919   3.328  16.284  0.00  0.00    +0.000 A 
ATOM     29  C   UNL     1       4.617   3.933  17.499  0.00  0.00    +0.000 A 
ATOM     30  C   UNL     1       5.351   5.063  17.874  0.00  0.00    +0.000 A 
ATOM     31  C   UNL     1       6.326   5.637  17.033  0.00  0.00    +0.000 A 
BRANCH  31  32
ATOM     32  O   UNL     1       6.880   6.741  17.622  0.00  0.00    +0.000 OA
ATOM     33  C   UNL     1       7.843   6.587  18.647  0.00  0.00    +0.000 C 
ENDBRANCH  31  32
BRANCH  26  34
ATOM     34  O   UNL     1       7.496   5.622  14.914  0.00  0.00    +0.000 OA
BRANCH  34  36
ATOM     35  C   UNL     1       8.531   5.712  12.705  0.00  0.00    +0.000 C 
ATOM     36  C   UNL     1       7.384   5.187  13.549  0.00  0.00    +0.000 C 
ENDBRANCH  34  36
ENDBRANCH  26  34
ENDBRANCH  25  29
ENDBRANCH  21  25
ENDBRANCH  20  22
ENDBRANCH   1  20
TORSDOF 8
ENDMDL
MODEL 7
REMARK VINA RESULT:      -6.8      4.632      9.268
REMARK  Name = 
REMARK  12 active torsions:
REMARK  status: ('A' for Active; 'I' for Inactive)
REMARK    1  A    between atoms: C_1  and  C_2
REMARK    2  A    between atoms: C_2  and  O_3
REMARK    3  A    between atoms: O_3  and  C_4
REMARK    4  A    between atoms: C_7  and  C_8
REMARK    5  A    between atoms: C_8  and  N_9
REMARK    6  A    between atoms: C_10  and  C_12
REMARK    7  A    between atoms: C_12  and  N_13
REMARK    8  A    between atoms: C_15  and  C_16
REMARK    9  A    between atoms: N_19  and  C_20
REMARK   10  A    between atoms: C_27  and  C_28
REMARK   11  A    between atoms: C_33  and  O_34
REMARK   12  A    between atoms: O_34  and  C_35
REMARK                            x       y       z     vdW  Elec       q    Type
REMARK                         _______ _______ _______ _____ _____    ______ ____
ROOT
ATOM      1  N   UNL     1       0.300  11.692  20.501  0.00  0.00    +0.000 N 
ATOM      2  N   UNL     1       0.016  11.218  21.798  0.00  0.00    +0.000 NA
ATOM      3  C   UNL     1       0.296   9.980  22.114  0.00  0.00    +0.000 A 
ATOM      4  C   UNL     1       0.007   9.473  23.498  0.00  0.00    +0.000 C 
ATOM      5  C   UNL     1       0.902   9.113  21.128  0.00  0.00    +0.000 A 
ATOM      6  N   UNL     1       1.164   7.814  21.261  0.00  0.00    +0.000 NA
ATOM      7  N   UNL     1       1.805   7.473  20.098  0.00  0.00    +0.000 N 
ATOM      8  C   UNL     1       1.815   8.534  19.194  0.00  0.00    +0.000 A 
ATOM      9  C   UNL     1       2.243   8.492  17.769  0.00  0.00    +0.000 C 
ATOM     10  C   UNL     1       1.247   9.598  19.871  0.00  0.00    +0.000 A 
ATOM     11  C   UNL     1       0.945  10.954  19.486  0.00  0.00    +0.000 A 
ATOM     12  O   UNL     1       1.199  11.391  18.369  0.00  0.00    +0.000 OA
ENDROOT
BRANCH   7  13
ATOM     13  C   UNL     1       2.337   6.156  19.970  0.00  0.00    +0.000 A 
ATOM     14  C   UNL     1       3.589   5.990  19.350  0.00  0.00    +0.000 A 
ATOM     15  C   UNL     1       4.156   4.715  19.244  0.00  0.00    +0.000 A 
ATOM     16  C   UNL     1       3.462   3.608  19.723  0.00  0.00    +0.000 A 
ATOM     17 CL   UNL     1       4.161   2.038  19.598  0.00  0.00    +0.000 Cl
ATOM     18  C   UNL     1       2.200   3.758  20.295  0.00  0.00    +0.000 A 
ATOM     19  C   UNL     1       1.634   5.032  20.417  0.00  0.00    +0.000 A 
ENDBRANCH   7  13
BRANCH   1  20
ATOM     20  C   UNL     1      -0.181  13.029  20.174  0.00  0.00    +0.000 C 
BRANCH  20  22
ATOM     21  N   UNL     1       1.055  15.095  19.758  0.00  0.00    +0.000 N 
ATOM     22  C   UNL     1       0.743  14.127  20.690  0.00  0.00    +0.000 C 
ATOM     23  O   UNL     1       1.292  14.058  21.787  0.00  0.00    +0.000 OA
ATOM     24  H   UNL     1       0.531  15.109  18.890  0.00  0.00    +0.000 HD
BRANCH  21  25
ATOM     25  C   UNL     1       2.009  16.141  20.032  0.00  0.00    +0.000 C 
BRANCH  25  29
ATOM     26  C   UNL     1       5.842  15.373  18.138  0.00  0.00    +0.000 A 
ATOM     27  C   UNL     1       4.799  14.427  18.113  0.00  0.00    +0.000 A 
ATOM     28  C   UNL     1       3.572  14.666  18.733  0.00  0.00    +0.000 A 
ATOM     29  C   UNL     1       3.349  15.857  19.415  0.00  0.00    +0.000 A 
ATOM     30  C   UNL     1       4.403  16.771  19.509  0.00  0.00    +0.000 A 
ATOM     31  C   UNL     1       5.646  16.549  18.882  0.00  0.00    +0.000 A 
BRANCH  31  32
ATOM     32  O   UNL     1       6.494  17.599  19.110  0.00  0.00    +0.000 OA
ATOM     33  C   UNL     1       6.550  18.196  20.391  0.00  0.00    +0.000 C 
ENDBRANCH  31  32
BRANCH  26  34
ATOM     34  O   UNL     1       7.031  15.147  17.476  0.00  0.00    +0.000 OA
BRANCH  34  36
ATOM     35  C   UNL     1       8.989  14.441  18.751  0.00  0.00    +0.000 C 
ATOM     36  C   UNL     1       7.776  14.012  17.947  0.00  0.00    +0.000 C 
ENDBRANCH  34  36
ENDBRANCH  26  34
ENDBRANCH  25  29
ENDBRANCH  21  25
ENDBRANCH  20  22
ENDBRANCH   1  20
TORSDOF 8
ENDMDL
MODEL 8
REMARK VINA RESULT:      -6.8      4.648      8.839
REMARK  Name = 
REMARK  12 active torsions:
REMARK  status: ('A' for Active; 'I' for Inactive)
REMARK    1  A    between atoms: C_1  and  C_2
REMARK    2  A    between atoms: C_2  and  O_3
REMARK    3  A    between atoms: O_3  and  C_4
REMARK    4  A    between atoms: C_7  and  C_8
REMARK    5  A    between atoms: C_8  and  N_9
REMARK    6  A    between atoms: C_10  and  C_12
REMARK    7  A    between atoms: C_12  and  N_13
REMARK    8  A    between atoms: C_15  and  C_16
REMARK    9  A    between atoms: N_19  and  C_20
REMARK   10  A    between atoms: C_27  and  C_28
REMARK   11  A    between atoms: C_33  and  O_34
REMARK   12  A    between atoms: O_34  and  C_35
REMARK                            x       y       z     vdW  Elec       q    Type
REMARK                         _______ _______ _______ _____ _____    ______ ____
ROOT
ATOM      1  N   UNL     1       0.496  11.672  20.737  0.00  0.00    +0.000 N 
ATOM      2  N   UNL     1       0.187  11.127  21.999  0.00  0.00    +0.000 NA
ATOM      3  C   UNL     1       0.409   9.858  22.231  0.00  0.00    +0.000 A 
ATOM      4  C   UNL     1       0.094   9.274  23.578  0.00  0.00    +0.000 C 
ATOM      5  C   UNL     1       0.979   9.033  21.189  0.00  0.00    +0.000 A 
ATOM      6  N   UNL     1       1.182   7.717  21.236  0.00  0.00    +0.000 NA
ATOM      7  N   UNL     1       1.811   7.426  20.053  0.00  0.00    +0.000 N 
ATOM      8  C   UNL     1       1.871   8.544  19.221  0.00  0.00    +0.000 A 
ATOM      9  C   UNL     1       2.301   8.578  17.796  0.00  0.00    +0.000 C 
ATOM     10  C   UNL     1       1.350   9.584  19.968  0.00  0.00    +0.000 A 
ATOM     11  C   UNL     1       1.110  10.976  19.675  0.00  0.00    +0.000 A 
ATOM     12  O   UNL     1       1.388  11.475  18.589  0.00  0.00    +0.000 OA
ENDROOT
BRANCH   7  13
ATOM     13  C   UNL     1       2.283   6.098  19.837  0.00  0.00    +0.000 A 
ATOM     14  C   UNL     1       1.482   5.019  20.252  0.00  0.00    +0.000 A 
ATOM     15  C   UNL     1       1.900   3.705  20.019  0.00  0.00    +0.000 A 
ATOM     16  C   UNL     1       3.127   3.467  19.408  0.00  0.00    +0.000 A 
ATOM     17 CL   UNL     1       3.640   1.848  19.117  0.00  0.00    +0.000 Cl
ATOM     18  C   UNL     1       3.949   4.529  19.038  0.00  0.00    +0.000 A 
ATOM     19  C   UNL     1       3.531   5.847  19.254  0.00  0.00    +0.000 A 
ENDBRANCH   7  13
BRANCH   1  20
ATOM     20  C   UNL     1       0.076  13.049  20.500  0.00  0.00    +0.000 C 
BRANCH  20  22
ATOM     21  N   UNL     1       2.128  14.370  20.378  0.00  0.00    +0.000 N 
ATOM     22  C   UNL     1       1.017  14.067  21.137  0.00  0.00    +0.000 C 
ATOM     23  O   UNL     1       0.877  14.450  22.296  0.00  0.00    +0.000 OA
ATOM     24  H   UNL     1       2.152  14.049  19.417  0.00  0.00    +0.000 HD
BRANCH  21  25
ATOM     25  C   UNL     1       3.184  15.219  20.874  0.00  0.00    +0.000 C 
BRANCH  25  29
ATOM     26  C   UNL     1       6.819  14.955  18.511  0.00  0.00    +0.000 A 
ATOM     27  C   UNL     1       5.544  14.822  17.929  0.00  0.00    +0.000 A 
ATOM     28  C   UNL     1       4.375  14.892  18.688  0.00  0.00    +0.000 A 
ATOM     29  C   UNL     1       4.442  15.083  20.063  0.00  0.00    +0.000 A 
ATOM     30  C   UNL     1       5.704  15.141  20.662  0.00  0.00    +0.000 A 
ATOM     31  C   UNL     1       6.894  15.079  19.910  0.00  0.00    +0.000 A 
BRANCH  31  32
ATOM     32  O   UNL     1       7.987  15.178  20.728  0.00  0.00    +0.000 OA
ATOM     33  C   UNL     1       7.820  15.527  22.089  0.00  0.00    +0.000 C 
ENDBRANCH  31  32
BRANCH  26  34
ATOM     34  O   UNL     1       7.965  14.936  17.743  0.00  0.00    +0.000 OA
BRANCH  34  36
ATOM     35  C   UNL     1       8.240  12.528  17.452  0.00  0.00    +0.000 C 
ATOM     36  C   UNL     1       8.835  13.818  17.986  0.00  0.00    +0.000 C 
ENDBRANCH  34  36
ENDBRANCH  26  34
ENDBRANCH  25  29
ENDBRANCH  21  25
ENDBRANCH  20  22
ENDBRANCH   1  20
TORSDOF 8
ENDMDL
MODEL 9
REMARK VINA RESULT:      -6.7      3.408      4.496
REMARK  Name = 
REMARK  12 active torsions:
REMARK  status: ('A' for Active; 'I' for Inactive)
REMARK    1  A    between atoms: C_1  and  C_2
REMARK    2  A    between atoms: C_2  and  O_3
REMARK    3  A    between atoms: O_3  and  C_4
REMARK    4  A    between atoms: C_7  and  C_8
REMARK    5  A    between atoms: C_8  and  N_9
REMARK    6  A    between atoms: C_10  and  C_12
REMARK    7  A    between atoms: C_12  and  N_13
REMARK    8  A    between atoms: C_15  and  C_16
REMARK    9  A    between atoms: N_19  and  C_20
REMARK   10  A    between atoms: C_27  and  C_28
REMARK   11  A    between atoms: C_33  and  O_34
REMARK   12  A    between atoms: O_34  and  C_35
REMARK                            x       y       z     vdW  Elec       q    Type
REMARK                         _______ _______ _______ _____ _____    ______ ____
ROOT
ATOM      1  N   UNL     1       1.104  10.185  19.635  0.00  0.00    +0.000 N 
ATOM      2  N   UNL     1       0.687   9.332  20.678  0.00  0.00    +0.000 NA
ATOM      3  C   UNL     1      -0.030   9.811  21.662  0.00  0.00    +0.000 A 
ATOM      4  C   UNL     1      -0.488   8.906  22.769  0.00  0.00    +0.000 C 
ATOM      5  C   UNL     1      -0.393  11.211  21.663  0.00  0.00    +0.000 A 
ATOM      6  N   UNL     1      -1.036  11.868  22.627  0.00  0.00    +0.000 NA
ATOM      7  N   UNL     1      -1.211  13.131  22.124  0.00  0.00    +0.000 N 
ATOM      8  C   UNL     1      -0.553  13.286  20.904  0.00  0.00    +0.000 A 
ATOM      9  C   UNL     1      -0.352  14.554  20.151  0.00  0.00    +0.000 C 
ATOM     10  C   UNL     1      -0.043  12.038  20.601  0.00  0.00    +0.000 A 
ATOM     11  C   UNL     1       0.755  11.546  19.505  0.00  0.00    +0.000 A 
ATOM     12  O   UNL     1       1.113  12.266  18.579  0.00  0.00    +0.000 OA
ENDROOT
BRANCH   7  13
ATOM     13  C   UNL     1      -1.986  14.065  22.872  0.00  0.00    +0.000 A 
ATOM     14  C   UNL     1      -1.410  14.670  24.003  0.00  0.00    +0.000 A 
ATOM     15  C   UNL     1      -2.131  15.619  24.735  0.00  0.00    +0.000 A 
ATOM     16  C   UNL     1      -3.432  15.937  24.361  0.00  0.00    +0.000 A 
ATOM     17 CL   UNL     1      -4.320  17.111  25.259  0.00  0.00    +0.000 Cl
ATOM     18  C   UNL     1      -4.028  15.308  23.270  0.00  0.00    +0.000 A 
ATOM     19  C   UNL     1      -3.308  14.368  22.525  0.00  0.00    +0.000 A 
ENDBRANCH   7  13
BRANCH   1  20
ATOM     20  C   UNL     1       2.027   9.618  18.658  0.00  0.00    +0.000 C 
BRANCH  20  22
ATOM     21  N   UNL     1       2.419   7.361  19.507  0.00  0.00    +0.000 N 
ATOM     22  C   UNL     1       1.858   8.112  18.495  0.00  0.00    +0.000 C 
ATOM     23  O   UNL     1       1.408   7.612  17.466  0.00  0.00    +0.000 OA
ATOM     24  H   UNL     1       2.733   7.844  20.342  0.00  0.00    +0.000 HD
BRANCH  21  25
ATOM     25  C   UNL     1       2.461   5.920  19.458  0.00  0.00    +0.000 C 
BRANCH  25  29
ATOM     26  C   UNL     1       5.558   4.562  16.733  0.00  0.00    +0.000 A 
ATOM     27  C   UNL     1       4.254   4.035  16.696  0.00  0.00    +0.000 A 
ATOM     28  C   UNL     1       3.260   4.459  17.579  0.00  0.00    +0.000 A 
ATOM     29  C   UNL     1       3.543   5.419  18.545  0.00  0.00    +0.000 A 
ATOM     30  C   UNL     1       4.855   5.894  18.640  0.00  0.00    +0.000 A 
ATOM     31  C   UNL     1       5.867   5.482  17.750  0.00  0.00    +0.000 A 
BRANCH  31  32
ATOM     32  O   UNL     1       7.049   6.108  18.043  0.00  0.00    +0.000 OA
ATOM     33  C   UNL     1       7.733   5.799  19.242  0.00  0.00    +0.000 C 
ENDBRANCH  31  32
BRANCH  26  34
ATOM     34  O   UNL     1       6.517   4.173  15.820  0.00  0.00    +0.000 OA
BRANCH  34  36
ATOM     35  C   UNL     1       6.267   3.815  13.419  0.00  0.00    +0.000 C 
ATOM     36  C   UNL     1       6.430   4.823  14.541  0.00  0.00    +0.000 C 
ENDBRANCH  34  36
ENDBRANCH  26  34
ENDBRANCH  25  29
ENDBRANCH  21  25
ENDBRANCH  20  22
ENDBRANCH   1  20
TORSDOF 8
ENDMDL
