MODEL 1
REMARK VINA RESULT:      -7.6      0.000      0.000
REMARK  Name = 
REMARK  5 active torsions:
REMARK  status: ('A' for Active; 'I' for Inactive)
REMARK    1  A    between atoms: C_1  and  C_2
REMARK    2  A    between atoms: C_2  and  O_3
REMARK    3  A    between atoms: O_3  and  C_4
REMARK    4  A    between atoms: C_4  and  C_6
REMARK    5  A    between atoms: N_8  and  C_9
REMARK                            x       y       z     vdW  Elec       q    Type
REMARK                         _______ _______ _______ _____ _____    ______ ____
ROOT
ATOM      1  C   UNL     1       5.656   5.298  15.413  0.00  0.00    +0.000 A 
ATOM      2  C   UNL     1       4.997   4.589  16.392  0.00  0.00    +0.000 A 
ATOM      3  N   UNL     1       4.321   5.530  17.130  0.00  0.00    +0.000 N 
ATOM      4  N   UNL     1       4.479   6.746  16.548  0.00  0.00    +0.000 NA
ATOM      5  N   UNL     1       5.311   6.619  15.523  0.00  0.00    +0.000 NA
ENDROOT
BRANCH   3   6
ATOM      6  C   UNL     1       3.639   5.309  18.354  0.00  0.00    +0.000 A 
ATOM      7  C   UNL     1       3.781   6.066  19.505  0.00  0.00    +0.000 A 
ATOM      8  N   UNL     1       2.878   5.595  20.424  0.00  0.00    +0.000 N 
ATOM      9  C   UNL     1       2.178   4.549  19.893  0.00  0.00    +0.000 A 
ATOM     10  N   UNL     1       1.194   3.903  20.542  0.00  0.00    +0.000 NA
ATOM     11  C   UNL     1       0.657   2.896  19.817  0.00  0.00    +0.000 A 
ATOM     12  C   UNL     1       1.062   2.511  18.547  0.00  0.00    +0.000 A 
ATOM     13  C   UNL     1       2.083   3.223  17.916  0.00  0.00    +0.000 A 
ATOM     14  C   UNL     1       2.658   4.305  18.608  0.00  0.00    +0.000 A 
ATOM     15  H   UNL     1       2.718   5.955  21.354  0.00  0.00    +0.000 HD
ENDBRANCH   3   6
BRANCH   1  16
ATOM     16  C   UNL     1       6.633   4.776  14.477  0.00  0.00    +0.000 C 
ATOM     17  O   UNL     1       7.700   5.334  14.245  0.00  0.00    +0.000 OA
BRANCH  16  18
ATOM     18  O   UNL     1       6.179   3.670  13.824  0.00  0.00    +0.000 OA
BRANCH  18  20
ATOM     19  C   UNL     1       5.468   2.665  11.770  0.00  0.00    +0.000 C 
ATOM     20  C   UNL     1       6.444   3.632  12.416  0.00  0.00    +0.000 C 
ENDBRANCH  18  20
ENDBRANCH  16  18
ENDBRANCH   1  16
TORSDOF 4
ENDMDL
MODEL 2
REMARK VINA RESULT:      -7.6      1.216      1.313
REMARK  Name = 
REMARK  5 active torsions:
REMARK  status: ('A' for Active; 'I' for Inactive)
REMARK    1  A    between atoms: C_1  and  C_2
REMARK    2  A    between atoms: C_2  and  O_3
REMARK    3  A    between atoms: O_3  and  C_4
REMARK    4  A    between atoms: C_4  and  C_6
REMARK    5  A    between atoms: N_8  and  C_9
REMARK                            x       y       z     vdW  Elec       q    Type
REMARK                         _______ _______ _______ _____ _____    ______ ____
ROOT
ATOM      1  C   UNL     1       6.652   4.750  15.871  0.00  0.00    +0.000 A 
ATOM      2  C   UNL     1       5.391   5.016  16.357  0.00  0.00    +0.000 A 
ATOM      3  N   UNL     1       5.475   4.816  17.713  0.00  0.00    +0.000 N 
ATOM      4  N   UNL     1       6.764   4.549  18.043  0.00  0.00    +0.000 NA
ATOM      5  N   UNL     1       7.480   4.478  16.928  0.00  0.00    +0.000 NA
ENDROOT
BRANCH   3   6
ATOM      6  C   UNL     1       4.392   4.795  18.629  0.00  0.00    +0.000 A 
ATOM      7  C   UNL     1       4.161   5.727  19.628  0.00  0.00    +0.000 A 
ATOM      8  N   UNL     1       2.965   5.411  20.220  0.00  0.00    +0.000 N 
ATOM      9  C   UNL     1       2.438   4.295  19.635  0.00  0.00    +0.000 A 
ATOM     10  N   UNL     1       1.251   3.763  19.975  0.00  0.00    +0.000 NA
ATOM     11  C   UNL     1       0.947   2.654  19.265  0.00  0.00    +0.000 A 
ATOM     12  C   UNL     1       1.751   2.070  18.296  0.00  0.00    +0.000 A 
ATOM     13  C   UNL     1       2.971   2.670  17.976  0.00  0.00    +0.000 A 
ATOM     14  C   UNL     1       3.326   3.848  18.659  0.00  0.00    +0.000 A 
ATOM     15  H   UNL     1       2.508   5.915  20.967  0.00  0.00    +0.000 HD
ENDBRANCH   3   6
BRANCH   1  16
ATOM     16  C   UNL     1       7.040   4.666  14.476  0.00  0.00    +0.000 C 
ATOM     17  O   UNL     1       7.832   5.443  13.955  0.00  0.00    +0.000 OA
BRANCH  16  18
ATOM     18  O   UNL     1       6.347   3.702  13.808  0.00  0.00    +0.000 OA
BRANCH  18  20
ATOM     19  C   UNL     1       5.342   2.960  11.765  0.00  0.00    +0.000 C 
ATOM     20  C   UNL     1       6.519   3.691  12.385  0.00  0.00    +0.000 C 
ENDBRANCH  18  20
ENDBRANCH  16  18
ENDBRANCH   1  16
TORSDOF 4
ENDMDL
MODEL 3
REMARK VINA RESULT:      -7.5      1.689      2.282
REMARK  Name = 
REMARK  5 active torsions:
REMARK  status: ('A' for Active; 'I' for Inactive)
REMARK    1  A    between atoms: C_1  and  C_2
REMARK    2  A    between atoms: C_2  and  O_3
REMARK    3  A    between atoms: O_3  and  C_4
REMARK    4  A    between atoms: C_4  and  C_6
REMARK    5  A    between atoms: N_8  and  C_9
REMARK                            x       y       z     vdW  Elec       q    Type
REMARK                         _______ _______ _______ _____ _____    ______ ____
ROOT
ATOM      1  C   UNL     1       6.587   4.523  15.779  0.00  0.00    +0.000 A 
ATOM      2  C   UNL     1       5.324   4.435  16.321  0.00  0.00    +0.000 A 
ATOM      3  N   UNL     1       5.518   4.321  17.676  0.00  0.00    +0.000 N 
ATOM      4  N   UNL     1       6.841   4.449  17.947  0.00  0.00    +0.000 NA
ATOM      5  N   UNL     1       7.501   4.541  16.800  0.00  0.00    +0.000 NA
ENDROOT
BRANCH   3   6
ATOM      6  C   UNL     1       4.525   4.027  18.646  0.00  0.00    +0.000 A 
ATOM      7  C   UNL     1       4.343   2.803  19.268  0.00  0.00    +0.000 A 
ATOM      8  N   UNL     1       3.356   2.960  20.208  0.00  0.00    +0.000 N 
ATOM      9  C   UNL     1       2.896   4.246  20.188  0.00  0.00    +0.000 A 
ATOM     10  N   UNL     1       1.953   4.715  21.024  0.00  0.00    +0.000 NA
ATOM     11  C   UNL     1       1.655   6.015  20.806  0.00  0.00    +0.000 A 
ATOM     12  C   UNL     1       2.213   6.817  19.821  0.00  0.00    +0.000 A 
ATOM     13  C   UNL     1       3.196   6.281  18.986  0.00  0.00    +0.000 A 
ATOM     14  C   UNL     1       3.573   4.940  19.188  0.00  0.00    +0.000 A 
ATOM     15  H   UNL     1       3.010   2.256  20.845  0.00  0.00    +0.000 HD
ENDBRANCH   3   6
BRANCH   1  16
ATOM     16  C   UNL     1       6.926   4.498  14.369  0.00  0.00    +0.000 C 
ATOM     17  O   UNL     1       7.621   5.355  13.834  0.00  0.00    +0.000 OA
BRANCH  16  18
ATOM     18  O   UNL     1       6.299   3.484  13.708  0.00  0.00    +0.000 OA
BRANCH  18  20
ATOM     19  C   UNL     1       4.979   3.236  11.726  0.00  0.00    +0.000 C 
ATOM     20  C   UNL     1       6.359   3.550  12.278  0.00  0.00    +0.000 C 
ENDBRANCH  18  20
ENDBRANCH  16  18
ENDBRANCH   1  16
TORSDOF 4
ENDMDL
MODEL 4
REMARK VINA RESULT:      -7.3      1.690      2.321
REMARK  Name = 
REMARK  5 active torsions:
REMARK  status: ('A' for Active; 'I' for Inactive)
REMARK    1  A    between atoms: C_1  and  C_2
REMARK    2  A    between atoms: C_2  and  O_3
REMARK    3  A    between atoms: O_3  and  C_4
REMARK    4  A    between atoms: C_4  and  C_6
REMARK    5  A    between atoms: N_8  and  C_9
REMARK                            x       y       z     vdW  Elec       q    Type
REMARK                         _______ _______ _______ _____ _____    ______ ____
ROOT
ATOM      1  C   UNL     1       6.199   4.557  15.815  0.00  0.00    +0.000 A 
ATOM      2  C   UNL     1       4.951   4.020  16.040  0.00  0.00    +0.000 A 
ATOM      3  N   UNL     1       4.891   3.796  17.394  0.00  0.00    +0.000 N 
ATOM      4  N   UNL     1       6.017   4.284  17.974  0.00  0.00    +0.000 NA
ATOM      5  N   UNL     1       6.828   4.721  17.020  0.00  0.00    +0.000 NA
ENDROOT
BRANCH   3   6
ATOM      6  C   UNL     1       3.873   3.091  18.086  0.00  0.00    +0.000 A 
ATOM      7  C   UNL     1       3.450   1.802  17.805  0.00  0.00    +0.000 A 
ATOM      8  N   UNL     1       2.531   1.450  18.760  0.00  0.00    +0.000 N 
ATOM      9  C   UNL     1       2.347   2.487  19.631  0.00  0.00    +0.000 A 
ATOM     10  N   UNL     1       1.533   2.429  20.699  0.00  0.00    +0.000 NA
ATOM     11  C   UNL     1       1.507   3.580  21.405  0.00  0.00    +0.000 A 
ATOM     12  C   UNL     1       2.205   4.738  21.089  0.00  0.00    +0.000 A 
ATOM     13  C   UNL     1       3.044   4.739  19.972  0.00  0.00    +0.000 A 
ATOM     14  C   UNL     1       3.138   3.556  19.216  0.00  0.00    +0.000 A 
ATOM     15  H   UNL     1       2.056   0.563  18.845  0.00  0.00    +0.000 HD
ENDBRANCH   3   6
BRANCH   1  16
ATOM     16  C   UNL     1       6.806   4.820  14.524  0.00  0.00    +0.000 C 
ATOM     17  O   UNL     1       7.867   5.420  14.396  0.00  0.00    +0.000 OA
BRANCH  16  18
ATOM     18  O   UNL     1       6.013   4.418  13.492  0.00  0.00    +0.000 OA
BRANCH  18  20
ATOM     19  C   UNL     1       5.676   2.725  11.833  0.00  0.00    +0.000 C 
ATOM     20  C   UNL     1       6.674   3.688  12.452  0.00  0.00    +0.000 C 
ENDBRANCH  18  20
ENDBRANCH  16  18
ENDBRANCH   1  16
TORSDOF 4
ENDMDL
MODEL 5
REMARK VINA RESULT:      -7.3      2.394      3.380
REMARK  Name = 
REMARK  5 active torsions:
REMARK  status: ('A' for Active; 'I' for Inactive)
REMARK    1  A    between atoms: C_1  and  C_2
REMARK    2  A    between atoms: C_2  and  O_3
REMARK    3  A    between atoms: O_3  and  C_4
REMARK    4  A    between atoms: C_4  and  C_6
REMARK    5  A    between atoms: N_8  and  C_9
REMARK                            x       y       z     vdW  Elec       q    Type
REMARK                         _______ _______ _______ _____ _____    ______ ____
ROOT
ATOM      1  C   UNL     1       6.563   4.113  13.252  0.00  0.00    +0.000 A 
ATOM      2  C   UNL     1       5.969   3.909  14.478  0.00  0.00    +0.000 A 
ATOM      3  N   UNL     1       6.654   4.717  15.352  0.00  0.00    +0.000 N 
ATOM      4  N   UNL     1       7.551   5.462  14.658  0.00  0.00    +0.000 NA
ATOM      5  N   UNL     1       7.523   5.081  13.387  0.00  0.00    +0.000 NA
ENDROOT
BRANCH   3   6
ATOM      6  C   UNL     1       6.529   4.724  16.766  0.00  0.00    +0.000 A 
ATOM      7  C   UNL     1       7.573   4.619  17.669  0.00  0.00    +0.000 A 
ATOM      8  N   UNL     1       7.049   4.773  18.927  0.00  0.00    +0.000 N 
ATOM      9  C   UNL     1       5.698   4.958  18.848  0.00  0.00    +0.000 A 
ATOM     10  N   UNL     1       4.910   5.177  19.915  0.00  0.00    +0.000 NA
ATOM     11  C   UNL     1       3.607   5.319  19.588  0.00  0.00    +0.000 A 
ATOM     12  C   UNL     1       3.082   5.230  18.305  0.00  0.00    +0.000 A 
ATOM     13  C   UNL     1       3.947   5.011  17.232  0.00  0.00    +0.000 A 
ATOM     14  C   UNL     1       5.322   4.889  17.508  0.00  0.00    +0.000 A 
ATOM     15  H   UNL     1       7.559   4.771  19.799  0.00  0.00    +0.000 HD
ENDBRANCH   3   6
BRANCH   1  16
ATOM     16  C   UNL     1       6.304   3.372  12.033  0.00  0.00    +0.000 C 
ATOM     17  O   UNL     1       7.019   2.455  11.644  0.00  0.00    +0.000 OA
BRANCH  16  18
ATOM     18  O   UNL     1       5.253   3.884  11.334  0.00  0.00    +0.000 OA
BRANCH  18  20
ATOM     19  C   UNL     1       3.187   3.579  10.161  0.00  0.00    +0.000 C 
ATOM     20  C   UNL     1       4.096   3.043  11.254  0.00  0.00    +0.000 C 
ENDBRANCH  18  20
ENDBRANCH  16  18
ENDBRANCH   1  16
TORSDOF 4
ENDMDL
MODEL 6
REMARK VINA RESULT:      -7.3      1.723      2.333
REMARK  Name = 
REMARK  5 active torsions:
REMARK  status: ('A' for Active; 'I' for Inactive)
REMARK    1  A    between atoms: C_1  and  C_2
REMARK    2  A    between atoms: C_2  and  O_3
REMARK    3  A    between atoms: O_3  and  C_4
REMARK    4  A    between atoms: C_4  and  C_6
REMARK    5  A    between atoms: N_8  and  C_9
REMARK                            x       y       z     vdW  Elec       q    Type
REMARK                         _______ _______ _______ _____ _____    ______ ____
ROOT
ATOM      1  C   UNL     1       6.688   4.447  13.902  0.00  0.00    +0.000 A 
ATOM      2  C   UNL     1       5.833   4.103  14.925  0.00  0.00    +0.000 A 
ATOM      3  N   UNL     1       6.239   4.850  16.004  0.00  0.00    +0.000 N 
ATOM      4  N   UNL     1       7.228   5.693  15.613  0.00  0.00    +0.000 NA
ATOM      5  N   UNL     1       7.527   5.435  14.347  0.00  0.00    +0.000 NA
ENDROOT
BRANCH   3   6
ATOM      6  C   UNL     1       5.780   4.717  17.340  0.00  0.00    +0.000 A 
ATOM      7  C   UNL     1       6.559   4.846  18.478  0.00  0.00    +0.000 A 
ATOM      8  N   UNL     1       5.725   4.752  19.563  0.00  0.00    +0.000 N 
ATOM      9  C   UNL     1       4.440   4.550  19.145  0.00  0.00    +0.000 A 
ATOM     10  N   UNL     1       3.390   4.456  19.978  0.00  0.00    +0.000 NA
ATOM     11  C   UNL     1       2.222   4.245  19.333  0.00  0.00    +0.000 A 
ATOM     12  C   UNL     1       2.071   4.105  17.960  0.00  0.00    +0.000 A 
ATOM     13  C   UNL     1       3.195   4.221  17.140  0.00  0.00    +0.000 A 
ATOM     14  C   UNL     1       4.436   4.475  17.754  0.00  0.00    +0.000 A 
ATOM     15  H   UNL     1       5.987   4.831  20.536  0.00  0.00    +0.000 HD
ENDBRANCH   3   6
BRANCH   1  16
ATOM     16  C   UNL     1       6.774   3.817  12.599  0.00  0.00    +0.000 C 
ATOM     17  O   UNL     1       7.381   4.313  11.656  0.00  0.00    +0.000 OA
BRANCH  16  18
ATOM     18  O   UNL     1       6.022   2.683  12.526  0.00  0.00    +0.000 OA
BRANCH  18  20
ATOM     19  C   UNL     1       4.033   3.383  11.391  0.00  0.00    +0.000 C 
ATOM     20  C   UNL     1       5.276   2.513  11.315  0.00  0.00    +0.000 C 
ENDBRANCH  18  20
ENDBRANCH  16  18
ENDBRANCH   1  16
TORSDOF 4
ENDMDL
MODEL 7
REMARK VINA RESULT:      -7.2      3.030      6.756
REMARK  Name = 
REMARK  5 active torsions:
REMARK  status: ('A' for Active; 'I' for Inactive)
REMARK    1  A    between atoms: C_1  and  C_2
REMARK    2  A    between atoms: C_2  and  O_3
REMARK    3  A    between atoms: O_3  and  C_4
REMARK    4  A    between atoms: C_4  and  C_6
REMARK    5  A    between atoms: N_8  and  C_9
REMARK                            x       y       z     vdW  Elec       q    Type
REMARK                         _______ _______ _______ _____ _____    ______ ____
ROOT
ATOM      1  C   UNL     1       3.305   3.192  18.327  0.00  0.00    +0.000 A 
ATOM      2  C   UNL     1       3.814   3.703  17.153  0.00  0.00    +0.000 A 
ATOM      3  N   UNL     1       5.121   4.020  17.432  0.00  0.00    +0.000 N 
ATOM      4  N   UNL     1       5.417   3.611  18.692  0.00  0.00    +0.000 NA
ATOM      5  N   UNL     1       4.313   3.135  19.252  0.00  0.00    +0.000 NA
ENDROOT
BRANCH   3   6
ATOM      6  C   UNL     1       6.010   4.739  16.592  0.00  0.00    +0.000 A 
ATOM      7  C   UNL     1       6.859   5.755  16.997  0.00  0.00    +0.000 A 
ATOM      8  N   UNL     1       7.621   6.114  15.915  0.00  0.00    +0.000 N 
ATOM      9  C   UNL     1       7.268   5.363  14.829  0.00  0.00    +0.000 A 
ATOM     10  N   UNL     1       7.866   5.459  13.629  0.00  0.00    +0.000 NA
ATOM     11  C   UNL     1       7.337   4.623  12.708  0.00  0.00    +0.000 A 
ATOM     12  C   UNL     1       6.271   3.759  12.920  0.00  0.00    +0.000 A 
ATOM     13  C   UNL     1       5.694   3.694  14.189  0.00  0.00    +0.000 A 
ATOM     14  C   UNL     1       6.226   4.517  15.199  0.00  0.00    +0.000 A 
ATOM     15  H   UNL     1       8.352   6.812  15.894  0.00  0.00    +0.000 HD
ENDBRANCH   3   6
BRANCH   1  16
ATOM     16  C   UNL     1       1.919   2.860  18.595  0.00  0.00    +0.000 C 
ATOM     17  O   UNL     1       0.991   3.252  17.896  0.00  0.00    +0.000 OA
BRANCH  16  18
ATOM     18  O   UNL     1       1.774   2.163  19.757  0.00  0.00    +0.000 OA
BRANCH  18  20
ATOM     19  C   UNL     1       2.131   3.222  21.875  0.00  0.00    +0.000 C 
ATOM     20  C   UNL     1       1.105   2.860  20.815  0.00  0.00    +0.000 C 
ENDBRANCH  18  20
ENDBRANCH  16  18
ENDBRANCH   1  16
TORSDOF 4
ENDMDL
MODEL 8
REMARK VINA RESULT:      -7.2      2.322      3.435
REMARK  Name = 
REMARK  5 active torsions:
REMARK  status: ('A' for Active; 'I' for Inactive)
REMARK    1  A    between atoms: C_1  and  C_2
REMARK    2  A    between atoms: C_2  and  O_3
REMARK    3  A    between atoms: O_3  and  C_4
REMARK    4  A    between atoms: C_4  and  C_6
REMARK    5  A    between atoms: N_8  and  C_9
REMARK                            x       y       z     vdW  Elec       q    Type
REMARK                         _______ _______ _______ _____ _____    ______ ____
ROOT
ATOM      1  C   UNL     1       5.577   4.835  16.932  0.00  0.00    +0.000 A 
ATOM      2  C   UNL     1       5.209   5.661  17.972  0.00  0.00    +0.000 A 
ATOM      3  N   UNL     1       3.878   5.401  18.189  0.00  0.00    +0.000 N 
ATOM      4  N   UNL     1       3.490   4.378  17.387  0.00  0.00    +0.000 NA
ATOM      5  N   UNL     1       4.505   4.048  16.600  0.00  0.00    +0.000 NA
ENDROOT
BRANCH   3   6
ATOM      6  C   UNL     1       3.007   6.128  19.041  0.00  0.00    +0.000 A 
ATOM      7  C   UNL     1       2.592   5.730  20.301  0.00  0.00    +0.000 A 
ATOM      8  N   UNL     1       1.848   6.752  20.832  0.00  0.00    +0.000 N 
ATOM      9  C   UNL     1       1.766   7.781  19.938  0.00  0.00    +0.000 A 
ATOM     10  N   UNL     1       1.132   8.940  20.189  0.00  0.00    +0.000 NA
ATOM     11  C   UNL     1       1.177   9.801  19.149  0.00  0.00    +0.000 A 
ATOM     12  C   UNL     1       1.774   9.554  17.921  0.00  0.00    +0.000 A 
ATOM     13  C   UNL     1       2.426   8.336  17.717  0.00  0.00    +0.000 A 
ATOM     14  C   UNL     1       2.443   7.412  18.778  0.00  0.00    +0.000 A 
ATOM     15  H   UNL     1       1.424   6.777  21.749  0.00  0.00    +0.000 HD
ENDBRANCH   3   6
BRANCH   1  16
ATOM     16  C   UNL     1       6.843   4.846  16.225  0.00  0.00    +0.000 C 
ATOM     17  O   UNL     1       7.880   4.404  16.706  0.00  0.00    +0.000 OA
BRANCH  16  18
ATOM     18  O   UNL     1       6.757   5.494  15.029  0.00  0.00    +0.000 OA
BRANCH  18  20
ATOM     19  C   UNL     1       6.039   3.898  13.395  0.00  0.00    +0.000 C 
ATOM     20  C   UNL     1       7.198   4.746  13.889  0.00  0.00    +0.000 C 
ENDBRANCH  18  20
ENDBRANCH  16  18
ENDBRANCH   1  16
TORSDOF 4
ENDMDL
MODEL 9
REMARK VINA RESULT:      -7.1      3.121      6.101
REMARK  Name = 
REMARK  5 active torsions:
REMARK  status: ('A' for Active; 'I' for Inactive)
REMARK    1  A    between atoms: C_1  and  C_2
REMARK    2  A    between atoms: C_2  and  O_3
REMARK    3  A    between atoms: O_3  and  C_4
REMARK    4  A    between atoms: C_4  and  C_6
REMARK    5  A    between atoms: N_8  and  C_9
REMARK                            x       y       z     vdW  Elec       q    Type
REMARK                         _______ _______ _______ _____ _____    ______ ____
ROOT
ATOM      1  C   UNL     1       3.251   4.436  20.042  0.00  0.00    +0.000 A 
ATOM      2  C   UNL     1       4.493   4.350  19.453  0.00  0.00    +0.000 A 
ATOM      3  N   UNL     1       4.619   5.493  18.702  0.00  0.00    +0.000 N 
ATOM      4  N   UNL     1       3.542   6.288  18.920  0.00  0.00    +0.000 NA
ATOM      5  N   UNL     1       2.693   5.642  19.709  0.00  0.00    +0.000 NA
ENDROOT
BRANCH   3   6
ATOM      6  C   UNL     1       5.652   5.779  17.772  0.00  0.00    +0.000 A 
ATOM      7  C   UNL     1       6.743   6.600  18.005  0.00  0.00    +0.000 A 
ATOM      8  N   UNL     1       7.555   6.530  16.902  0.00  0.00    +0.000 N 
ATOM      9  C   UNL     1       7.002   5.700  15.969  0.00  0.00    +0.000 A 
ATOM     10  N   UNL     1       7.585   5.402  14.795  0.00  0.00    +0.000 NA
ATOM     11  C   UNL     1       6.842   4.568  14.034  0.00  0.00    +0.000 A 
ATOM     12  C   UNL     1       5.591   4.068  14.369  0.00  0.00    +0.000 A 
ATOM     13  C   UNL     1       5.036   4.403  15.605  0.00  0.00    +0.000 A 
ATOM     14  C   UNL     1       5.780   5.241  16.457  0.00  0.00    +0.000 A 
ATOM     15  H   UNL     1       8.442   6.997  16.773  0.00  0.00    +0.000 HD
ENDBRANCH   3   6
BRANCH   1  16
ATOM     16  C   UNL     1       2.583   3.401  20.806  0.00  0.00    +0.000 C 
ATOM     17  O   UNL     1       2.247   3.545  21.976  0.00  0.00    +0.000 OA
BRANCH  16  18
ATOM     18  O   UNL     1       2.477   2.235  20.108  0.00  0.00    +0.000 OA
BRANCH  18  20
ATOM     19  C   UNL     1       2.283   2.076  17.726  0.00  0.00    +0.000 C 
ATOM     20  C   UNL     1       1.529   2.243  19.034  0.00  0.00    +0.000 C 
ENDBRANCH  18  20
ENDBRANCH  16  18
ENDBRANCH   1  16
TORSDOF 4
ENDMDL
