MODEL 1
REMARK VINA RESULT:      -8.3      0.000      0.000
REMARK  Name = 
REMARK  6 active torsions:
REMARK  status: ('A' for Active; 'I' for Inactive)
REMARK    1  A    between atoms: C_1  and  C_2
REMARK    2  A    between atoms: C_4  and  N_5
REMARK    3  A    between atoms: N_5  and  N_6
REMARK    4  A    between atoms: C_7  and  C_8
REMARK    5  A    between atoms: C_11  and  N_12
REMARK    6  A    between atoms: C_19  and  C_20
REMARK                            x       y       z     vdW  Elec       q    Type
REMARK                         _______ _______ _______ _____ _____    ______ ____
ROOT
ATOM      1  C   UNL     1       1.531   3.297  20.589  0.00  0.00    +0.000 C 
ATOM      2  C   UNL     1       2.426   4.202  19.781  0.00  0.00    +0.000 A 
ATOM      3  C   UNL     1       3.667   3.609  19.215  0.00  0.00    +0.000 A 
ATOM      4  C   UNL     1       4.478   4.433  18.527  0.00  0.00    +0.000 A 
ATOM      5  N   UNL     1       4.085   5.781  18.365  0.00  0.00    +0.000 N 
ATOM      6  N   UNL     1       4.751   6.757  17.679  0.00  0.00    +0.000 NA
ATOM      7  C   UNL     1       3.938   7.813  17.754  0.00  0.00    +0.000 A 
ATOM      8  C   UNL     1       2.759   7.573  18.496  0.00  0.00    +0.000 A 
ATOM      9  C   UNL     1       2.874   6.249  18.890  0.00  0.00    +0.000 A 
ATOM     10  N   UNL     1       2.054   5.437  19.631  0.00  0.00    +0.000 NA
ENDROOT
BRANCH   8  11
ATOM     11  C   UNL     1       1.660   8.469  18.841  0.00  0.00    +0.000 A 
ATOM     12  C   UNL     1       1.265   8.673  20.173  0.00  0.00    +0.000 A 
ATOM     13  C   UNL     1       0.245   9.574  20.492  0.00  0.00    +0.000 A 
ATOM     14  C   UNL     1      -0.406  10.275  19.482  0.00  0.00    +0.000 A 
ATOM     15  C   UNL     1      -0.045  10.067  18.153  0.00  0.00    +0.000 A 
ATOM     16  C   UNL     1       0.980   9.168  17.834  0.00  0.00    +0.000 A 
ENDBRANCH   8  11
BRANCH   4  17
ATOM     17  N   UNL     1       5.669   4.014  17.923  0.00  0.00    +0.000 N 
ATOM     18  H   UNL     1       6.466   4.526  18.326  0.00  0.00    +0.000 HD
BRANCH  17  19
ATOM     19  N   UNL     1       5.665   3.836  16.565  0.00  0.00    +0.000 NA
ATOM     20  C   UNL     1       6.701   4.262  15.917  0.00  0.00    +0.000 C 
BRANCH  20  21
ATOM     21  C   UNL     1       6.685   4.188  14.479  0.00  0.00    +0.000 A 
ATOM     22  C   UNL     1       7.416   4.882  13.529  0.00  0.00    +0.000 A 
ATOM     23  C   UNL     1       6.992   4.424  12.259  0.00  0.00    +0.000 A 
ATOM     24  C   UNL     1       6.032   3.478  12.521  0.00  0.00    +0.000 A 
ATOM     25  O   UNL     1       5.839   3.306  13.859  0.00  0.00    +0.000 OA
BRANCH  24  26
ATOM     26  N   UNL     1       5.231   2.685  11.640  0.00  0.00    +0.000 N 
ATOM     27  O   UNL     1       5.748   1.640  11.222  0.00  0.00    +0.000 OA
ATOM     28  O   UNL     1       4.099   3.098  11.371  0.00  0.00    +0.000 OA
ENDBRANCH  24  26
ENDBRANCH  20  21
ENDBRANCH  17  19
ENDBRANCH   4  17
TORSDOF 5
ENDMDL
MODEL 2
REMARK VINA RESULT:      -7.6      1.208      1.394
REMARK  Name = 
REMARK  6 active torsions:
REMARK  status: ('A' for Active; 'I' for Inactive)
REMARK    1  A    between atoms: C_1  and  C_2
REMARK    2  A    between atoms: C_4  and  N_5
REMARK    3  A    between atoms: N_5  and  N_6
REMARK    4  A    between atoms: C_7  and  C_8
REMARK    5  A    between atoms: C_11  and  N_12
REMARK    6  A    between atoms: C_19  and  C_20
REMARK                            x       y       z     vdW  Elec       q    Type
REMARK                         _______ _______ _______ _____ _____    ______ ____
ROOT
ATOM      1  C   UNL     1       1.169   2.811  18.949  0.00  0.00    +0.000 C 
ATOM      2  C   UNL     1       2.240   3.778  18.513  0.00  0.00    +0.000 A 
ATOM      3  C   UNL     1       3.480   3.204  17.922  0.00  0.00    +0.000 A 
ATOM      4  C   UNL     1       4.445   4.071  17.570  0.00  0.00    +0.000 A 
ATOM      5  N   UNL     1       4.208   5.453  17.755  0.00  0.00    +0.000 N 
ATOM      6  N   UNL     1       5.045   6.483  17.433  0.00  0.00    +0.000 NA
ATOM      7  C   UNL     1       4.335   7.576  17.724  0.00  0.00    +0.000 A 
ATOM      8  C   UNL     1       3.056   7.298  18.257  0.00  0.00    +0.000 A 
ATOM      9  C   UNL     1       2.992   5.914  18.275  0.00  0.00    +0.000 A 
ATOM     10  N   UNL     1       2.012   5.045  18.680  0.00  0.00    +0.000 NA
ENDROOT
BRANCH   8  11
ATOM     11  C   UNL     1       2.013   8.202  18.735  0.00  0.00    +0.000 A 
ATOM     12  C   UNL     1       1.659   8.267  20.091  0.00  0.00    +0.000 A 
ATOM     13  C   UNL     1       0.696   9.175  20.542  0.00  0.00    +0.000 A 
ATOM     14  C   UNL     1       0.062  10.022  19.639  0.00  0.00    +0.000 A 
ATOM     15  C   UNL     1       0.383   9.955  18.285  0.00  0.00    +0.000 A 
ATOM     16  C   UNL     1       1.350   9.049  17.835  0.00  0.00    +0.000 A 
ENDBRANCH   8  11
BRANCH   4  17
ATOM     17  N   UNL     1       5.656   3.681  16.986  0.00  0.00    +0.000 N 
ATOM     18  H   UNL     1       6.405   4.331  17.263  0.00  0.00    +0.000 HD
BRANCH  17  19
ATOM     19  N   UNL     1       5.631   3.281  15.677  0.00  0.00    +0.000 NA
ATOM     20  C   UNL     1       5.870   4.186  14.784  0.00  0.00    +0.000 C 
BRANCH  20  21
ATOM     21  C   UNL     1       5.748   3.825  13.395  0.00  0.00    +0.000 A 
ATOM     22  C   UNL     1       6.713   3.492  12.459  0.00  0.00    +0.000 A 
ATOM     23  C   UNL     1       6.041   3.237  11.241  0.00  0.00    +0.000 A 
ATOM     24  C   UNL     1       4.710   3.428  11.517  0.00  0.00    +0.000 A 
ATOM     25  O   UNL     1       4.506   3.770  12.820  0.00  0.00    +0.000 OA
BRANCH  24  26
ATOM     26  N   UNL     1       3.554   3.336  10.679  0.00  0.00    +0.000 N 
ATOM     27  O   UNL     1       3.314   4.322   9.969  0.00  0.00    +0.000 OA
ATOM     28  O   UNL     1       2.895   2.294  10.728  0.00  0.00    +0.000 OA
ENDBRANCH  24  26
ENDBRANCH  20  21
ENDBRANCH  17  19
ENDBRANCH   4  17
TORSDOF 5
ENDMDL
MODEL 3
REMARK VINA RESULT:      -7.6      3.880      6.705
REMARK  Name = 
REMARK  6 active torsions:
REMARK  status: ('A' for Active; 'I' for Inactive)
REMARK    1  A    between atoms: C_1  and  C_2
REMARK    2  A    between atoms: C_4  and  N_5
REMARK    3  A    between atoms: N_5  and  N_6
REMARK    4  A    between atoms: C_7  and  C_8
REMARK    5  A    between atoms: C_11  and  N_12
REMARK    6  A    between atoms: C_19  and  C_20
REMARK                            x       y       z     vdW  Elec       q    Type
REMARK                         _______ _______ _______ _____ _____    ______ ____
ROOT
ATOM      1  C   UNL     1      -3.099   9.790  17.132  0.00  0.00    +0.000 C 
ATOM      2  C   UNL     1      -1.922  10.226  17.969  0.00  0.00    +0.000 A 
ATOM      3  C   UNL     1      -0.564   9.885  17.469  0.00  0.00    +0.000 A 
ATOM      4  C   UNL     1       0.478  10.244  18.239  0.00  0.00    +0.000 A 
ATOM      5  N   UNL     1       0.216  10.939  19.442  0.00  0.00    +0.000 N 
ATOM      6  N   UNL     1       1.133  11.412  20.337  0.00  0.00    +0.000 NA
ATOM      7  C   UNL     1       0.393  12.054  21.244  0.00  0.00    +0.000 A 
ATOM      8  C   UNL     1      -0.996  11.997  20.990  0.00  0.00    +0.000 A 
ATOM      9  C   UNL     1      -1.094  11.264  19.818  0.00  0.00    +0.000 A 
ATOM     10  N   UNL     1      -2.172  10.870  19.069  0.00  0.00    +0.000 NA
ENDROOT
BRANCH   8  11
ATOM     11  C   UNL     1      -2.121  12.525  21.757  0.00  0.00    +0.000 A 
ATOM     12  C   UNL     1      -2.940  13.548  21.256  0.00  0.00    +0.000 A 
ATOM     13  C   UNL     1      -4.045  14.007  21.979  0.00  0.00    +0.000 A 
ATOM     14  C   UNL     1      -4.340  13.457  23.223  0.00  0.00    +0.000 A 
ATOM     15  C   UNL     1      -3.525  12.457  23.747  0.00  0.00    +0.000 A 
ATOM     16  C   UNL     1      -2.421  11.995  23.020  0.00  0.00    +0.000 A 
ENDBRANCH   8  11
BRANCH   4  17
ATOM     17  N   UNL     1       1.812  10.007  17.891  0.00  0.00    +0.000 N 
ATOM     18  H   UNL     1       2.157  10.763  17.284  0.00  0.00    +0.000 HD
BRANCH  17  19
ATOM     19  N   UNL     1       2.164   8.727  17.553  0.00  0.00    +0.000 NA
ATOM     20  C   UNL     1       2.345   7.894  18.527  0.00  0.00    +0.000 C 
BRANCH  20  21
ATOM     21  C   UNL     1       2.818   6.570  18.214  0.00  0.00    +0.000 A 
ATOM     22  C   UNL     1       2.124   5.396  17.968  0.00  0.00    +0.000 A 
ATOM     23  C   UNL     1       3.086   4.387  17.726  0.00  0.00    +0.000 A 
ATOM     24  C   UNL     1       4.302   5.015  17.837  0.00  0.00    +0.000 A 
ATOM     25  O   UNL     1       4.165   6.342  18.118  0.00  0.00    +0.000 OA
BRANCH  24  26
ATOM     26  N   UNL     1       5.635   4.509  17.719  0.00  0.00    +0.000 N 
ATOM     27  O   UNL     1       6.244   4.318  18.781  0.00  0.00    +0.000 OA
ATOM     28  O   UNL     1       6.068   4.303  16.582  0.00  0.00    +0.000 OA
ENDBRANCH  24  26
ENDBRANCH  20  21
ENDBRANCH  17  19
ENDBRANCH   4  17
TORSDOF 5
ENDMDL
MODEL 4
REMARK VINA RESULT:      -7.5      3.968      8.098
REMARK  Name = 
REMARK  6 active torsions:
REMARK  status: ('A' for Active; 'I' for Inactive)
REMARK    1  A    between atoms: C_1  and  C_2
REMARK    2  A    between atoms: C_4  and  N_5
REMARK    3  A    between atoms: N_5  and  N_6
REMARK    4  A    between atoms: C_7  and  C_8
REMARK    5  A    between atoms: C_11  and  N_12
REMARK    6  A    between atoms: C_19  and  C_20
REMARK                            x       y       z     vdW  Elec       q    Type
REMARK                         _______ _______ _______ _____ _____    ______ ____
ROOT
ATOM      1  C   UNL     1       2.818   1.844  17.912  0.00  0.00    +0.000 C 
ATOM      2  C   UNL     1       3.361   3.247  17.821  0.00  0.00    +0.000 A 
ATOM      3  C   UNL     1       3.068   4.169  18.952  0.00  0.00    +0.000 A 
ATOM      4  C   UNL     1       3.524   5.430  18.845  0.00  0.00    +0.000 A 
ATOM      5  N   UNL     1       4.267   5.780  17.694  0.00  0.00    +0.000 N 
ATOM      6  N   UNL     1       4.836   6.991  17.418  0.00  0.00    +0.000 NA
ATOM      7  C   UNL     1       5.484   6.786  16.270  0.00  0.00    +0.000 A 
ATOM      8  C   UNL     1       5.338   5.475  15.760  0.00  0.00    +0.000 A 
ATOM      9  C   UNL     1       4.540   4.837  16.695  0.00  0.00    +0.000 A 
ATOM     10  N   UNL     1       4.048   3.559  16.764  0.00  0.00    +0.000 NA
ENDROOT
BRANCH   8  11
ATOM     11  C   UNL     1       5.844   4.877  14.527  0.00  0.00    +0.000 A 
ATOM     12  C   UNL     1       7.143   5.133  14.063  0.00  0.00    +0.000 A 
ATOM     13  C   UNL     1       7.631   4.512  12.909  0.00  0.00    +0.000 A 
ATOM     14  C   UNL     1       6.821   3.635  12.194  0.00  0.00    +0.000 A 
ATOM     15  C   UNL     1       5.521   3.389  12.626  0.00  0.00    +0.000 A 
ATOM     16  C   UNL     1       5.033   4.007  13.784  0.00  0.00    +0.000 A 
ENDBRANCH   8  11
BRANCH   4  17
ATOM     17  N   UNL     1       3.341   6.401  19.835  0.00  0.00    +0.000 N 
ATOM     18  H   UNL     1       3.656   6.039  20.746  0.00  0.00    +0.000 HD
BRANCH  17  19
ATOM     19  N   UNL     1       2.173   7.115  19.818  0.00  0.00    +0.000 NA
ATOM     20  C   UNL     1       2.208   8.280  19.254  0.00  0.00    +0.000 C 
BRANCH  20  21
ATOM     21  C   UNL     1       1.027   9.102  19.311  0.00  0.00    +0.000 A 
ATOM     22  C   UNL     1       0.363   9.657  20.394  0.00  0.00    +0.000 A 
ATOM     23  C   UNL     1      -0.749  10.366  19.881  0.00  0.00    +0.000 A 
ATOM     24  C   UNL     1      -0.686  10.200  18.520  0.00  0.00    +0.000 A 
ATOM     25  O   UNL     1       0.391   9.450  18.150  0.00  0.00    +0.000 OA
BRANCH  24  26
ATOM     26  N   UNL     1      -1.546  10.665  17.476  0.00  0.00    +0.000 N 
ATOM     27  O   UNL     1      -1.774  11.882  17.457  0.00  0.00    +0.000 OA
ATOM     28  O   UNL     1      -1.987   9.827  16.685  0.00  0.00    +0.000 OA
ENDBRANCH  24  26
ENDBRANCH  20  21
ENDBRANCH  17  19
ENDBRANCH   4  17
TORSDOF 5
ENDMDL
MODEL 5
REMARK VINA RESULT:      -7.5      4.542      8.594
REMARK  Name = 
REMARK  6 active torsions:
REMARK  status: ('A' for Active; 'I' for Inactive)
REMARK    1  A    between atoms: C_1  and  C_2
REMARK    2  A    between atoms: C_4  and  N_5
REMARK    3  A    between atoms: N_5  and  N_6
REMARK    4  A    between atoms: C_7  and  C_8
REMARK    5  A    between atoms: C_11  and  N_12
REMARK    6  A    between atoms: C_19  and  C_20
REMARK                            x       y       z     vdW  Elec       q    Type
REMARK                         _______ _______ _______ _____ _____    ______ ____
ROOT
ATOM      1  C   UNL     1       2.526   1.989  17.778  0.00  0.00    +0.000 C 
ATOM      2  C   UNL     1       3.154   3.359  17.739  0.00  0.00    +0.000 A 
ATOM      3  C   UNL     1       2.858   4.280  18.869  0.00  0.00    +0.000 A 
ATOM      4  C   UNL     1       3.390   5.513  18.807  0.00  0.00    +0.000 A 
ATOM      5  N   UNL     1       4.210   5.836  17.701  0.00  0.00    +0.000 N 
ATOM      6  N   UNL     1       4.862   7.015  17.475  0.00  0.00    +0.000 NA
ATOM      7  C   UNL     1       5.555   6.788  16.357  0.00  0.00    +0.000 A 
ATOM      8  C   UNL     1       5.360   5.496  15.818  0.00  0.00    +0.000 A 
ATOM      9  C   UNL     1       4.479   4.893  16.701  0.00  0.00    +0.000 A 
ATOM     10  N   UNL     1       3.911   3.646  16.723  0.00  0.00    +0.000 NA
ENDROOT
BRANCH   8  11
ATOM     11  C   UNL     1       5.892   4.887  14.602  0.00  0.00    +0.000 A 
ATOM     12  C   UNL     1       5.137   3.986  13.836  0.00  0.00    +0.000 A 
ATOM     13  C   UNL     1       5.640   3.452  12.647  0.00  0.00    +0.000 A 
ATOM     14  C   UNL     1       6.915   3.801  12.211  0.00  0.00    +0.000 A 
ATOM     15  C   UNL     1       7.689   4.675  12.971  0.00  0.00    +0.000 A 
ATOM     16  C   UNL     1       7.183   5.214  14.160  0.00  0.00    +0.000 A 
ENDBRANCH   8  11
BRANCH   4  17
ATOM     17  N   UNL     1       3.215   6.480  19.803  0.00  0.00    +0.000 N 
ATOM     18  H   UNL     1       3.471   6.090  20.721  0.00  0.00    +0.000 HD
BRANCH  17  19
ATOM     19  N   UNL     1       2.085   7.252  19.748  0.00  0.00    +0.000 NA
ATOM     20  C   UNL     1       2.179   8.382  19.123  0.00  0.00    +0.000 C 
BRANCH  20  21
ATOM     21  C   UNL     1       1.043   9.266  19.137  0.00  0.00    +0.000 A 
ATOM     22  C   UNL     1       0.234   9.717  18.105  0.00  0.00    +0.000 A 
ATOM     23  C   UNL     1      -0.729  10.580  18.678  0.00  0.00    +0.000 A 
ATOM     24  C   UNL     1      -0.446  10.595  20.021  0.00  0.00    +0.000 A 
ATOM     25  O   UNL     1       0.614   9.794  20.326  0.00  0.00    +0.000 OA
BRANCH  24  26
ATOM     26  N   UNL     1      -1.062  11.300  21.103  0.00  0.00    +0.000 N 
ATOM     27  O   UNL     1      -1.825  12.223  20.790  0.00  0.00    +0.000 OA
ATOM     28  O   UNL     1      -0.788  10.937  22.250  0.00  0.00    +0.000 OA
ENDBRANCH  24  26
ENDBRANCH  20  21
ENDBRANCH  17  19
ENDBRANCH   4  17
TORSDOF 5
ENDMDL
MODEL 6
REMARK VINA RESULT:      -7.5      3.585      6.197
REMARK  Name = 
REMARK  6 active torsions:
REMARK  status: ('A' for Active; 'I' for Inactive)
REMARK    1  A    between atoms: C_1  and  C_2
REMARK    2  A    between atoms: C_4  and  N_5
REMARK    3  A    between atoms: N_5  and  N_6
REMARK    4  A    between atoms: C_7  and  C_8
REMARK    5  A    between atoms: C_11  and  N_12
REMARK    6  A    between atoms: C_19  and  C_20
REMARK                            x       y       z     vdW  Elec       q    Type
REMARK                         _______ _______ _______ _____ _____    ______ ____
ROOT
ATOM      1  C   UNL     1       1.459  11.614  18.183  0.00  0.00    +0.000 C 
ATOM      2  C   UNL     1       1.098  10.756  19.369  0.00  0.00    +0.000 A 
ATOM      3  C   UNL     1       1.633   9.368  19.397  0.00  0.00    +0.000 A 
ATOM      4  C   UNL     1       1.276   8.597  20.439  0.00  0.00    +0.000 A 
ATOM      5  N   UNL     1       0.452   9.161  21.441  0.00  0.00    +0.000 N 
ATOM      6  N   UNL     1       0.010   8.555  22.582  0.00  0.00    +0.000 NA
ATOM      7  C   UNL     1      -0.654   9.520  23.221  0.00  0.00    +0.000 A 
ATOM      8  C   UNL     1      -0.689  10.747  22.520  0.00  0.00    +0.000 A 
ATOM      9  C   UNL     1       0.029  10.494  21.363  0.00  0.00    +0.000 A 
ATOM     10  N   UNL     1       0.347  11.283  20.288  0.00  0.00    +0.000 NA
ENDROOT
BRANCH   8  11
ATOM     11  C   UNL     1      -1.343  12.010  22.854  0.00  0.00    +0.000 A 
ATOM     12  C   UNL     1      -2.677  12.058  23.285  0.00  0.00    +0.000 A 
ATOM     13  C   UNL     1      -3.273  13.269  23.652  0.00  0.00    +0.000 A 
ATOM     14  C   UNL     1      -2.546  14.453  23.578  0.00  0.00    +0.000 A 
ATOM     15  C   UNL     1      -1.228  14.427  23.129  0.00  0.00    +0.000 A 
ATOM     16  C   UNL     1      -0.630  13.215  22.767  0.00  0.00    +0.000 A 
ENDBRANCH   8  11
BRANCH   4  17
ATOM     17  N   UNL     1       1.714   7.279  20.610  0.00  0.00    +0.000 N 
ATOM     18  H   UNL     1       2.179   7.179  21.523  0.00  0.00    +0.000 HD
BRANCH  17  19
ATOM     19  N   UNL     1       2.304   6.662  19.539  0.00  0.00    +0.000 NA
ATOM     20  C   UNL     1       3.365   5.960  19.780  0.00  0.00    +0.000 C 
BRANCH  20  21
ATOM     21  C   UNL     1       4.071   5.385  18.666  0.00  0.00    +0.000 A 
ATOM     22  C   UNL     1       3.601   4.795  17.503  0.00  0.00    +0.000 A 
ATOM     23  C   UNL     1       4.731   4.389  16.755  0.00  0.00    +0.000 A 
ATOM     24  C   UNL     1       5.815   4.762  17.510  0.00  0.00    +0.000 A 
ATOM     25  O   UNL     1       5.441   5.381  18.665  0.00  0.00    +0.000 OA
BRANCH  24  26
ATOM     26  N   UNL     1       7.218   4.598  17.283  0.00  0.00    +0.000 N 
ATOM     27  O   UNL     1       7.913   4.393  18.287  0.00  0.00    +0.000 OA
ATOM     28  O   UNL     1       7.621   4.672  16.119  0.00  0.00    +0.000 OA
ENDBRANCH  24  26
ENDBRANCH  20  21
ENDBRANCH  17  19
ENDBRANCH   4  17
TORSDOF 5
ENDMDL
MODEL 7
REMARK VINA RESULT:      -7.4      4.072      8.184
REMARK  Name = 
REMARK  6 active torsions:
REMARK  status: ('A' for Active; 'I' for Inactive)
REMARK    1  A    between atoms: C_1  and  C_2
REMARK    2  A    between atoms: C_4  and  N_5
REMARK    3  A    between atoms: N_5  and  N_6
REMARK    4  A    between atoms: C_7  and  C_8
REMARK    5  A    between atoms: C_11  and  N_12
REMARK    6  A    between atoms: C_19  and  C_20
REMARK                            x       y       z     vdW  Elec       q    Type
REMARK                         _______ _______ _______ _____ _____    ______ ____
ROOT
ATOM      1  C   UNL     1       2.340   2.055  17.879  0.00  0.00    +0.000 C 
ATOM      2  C   UNL     1       2.990   3.415  17.858  0.00  0.00    +0.000 A 
ATOM      3  C   UNL     1       2.693   4.332  18.991  0.00  0.00    +0.000 A 
ATOM      4  C   UNL     1       3.247   5.557  18.946  0.00  0.00    +0.000 A 
ATOM      5  N   UNL     1       4.088   5.874  17.854  0.00  0.00    +0.000 N 
ATOM      6  N   UNL     1       4.762   7.043  17.646  0.00  0.00    +0.000 NA
ATOM      7  C   UNL     1       5.467   6.814  16.537  0.00  0.00    +0.000 A 
ATOM      8  C   UNL     1       5.258   5.529  15.985  0.00  0.00    +0.000 A 
ATOM      9  C   UNL     1       4.355   4.934  16.851  0.00  0.00    +0.000 A 
ATOM     10  N   UNL     1       3.766   3.696  16.856  0.00  0.00    +0.000 NA
ENDROOT
BRANCH   8  11
ATOM     11  C   UNL     1       5.798   4.920  14.773  0.00  0.00    +0.000 A 
ATOM     12  C   UNL     1       5.078   3.960  14.046  0.00  0.00    +0.000 A 
ATOM     13  C   UNL     1       5.585   3.425  12.858  0.00  0.00    +0.000 A 
ATOM     14  C   UNL     1       6.829   3.833  12.386  0.00  0.00    +0.000 A 
ATOM     15  C   UNL     1       7.568   4.768  13.106  0.00  0.00    +0.000 A 
ATOM     16  C   UNL     1       7.058   5.307  14.293  0.00  0.00    +0.000 A 
ENDBRANCH   8  11
BRANCH   4  17
ATOM     17  N   UNL     1       3.073   6.519  19.947  0.00  0.00    +0.000 N 
ATOM     18  H   UNL     1       3.341   6.128  20.861  0.00  0.00    +0.000 HD
BRANCH  17  19
ATOM     19  N   UNL     1       1.936   7.282  19.905  0.00  0.00    +0.000 NA
ATOM     20  C   UNL     1       2.070   8.510  19.520  0.00  0.00    +0.000 C 
BRANCH  20  21
ATOM     21  C   UNL     1       0.916   9.370  19.565  0.00  0.00    +0.000 A 
ATOM     22  C   UNL     1       0.399  10.136  20.598  0.00  0.00    +0.000 A 
ATOM     23  C   UNL     1      -0.759  10.778  20.101  0.00  0.00    +0.000 A 
ATOM     24  C   UNL     1      -0.869  10.364  18.797  0.00  0.00    +0.000 A 
ATOM     25  O   UNL     1       0.144   9.522  18.445  0.00  0.00    +0.000 OA
BRANCH  24  26
ATOM     26  N   UNL     1      -1.847  10.660  17.796  0.00  0.00    +0.000 N 
ATOM     27  O   UNL     1      -2.615   9.738  17.492  0.00  0.00    +0.000 OA
ATOM     28  O   UNL     1      -1.849  11.799  17.320  0.00  0.00    +0.000 OA
ENDBRANCH  24  26
ENDBRANCH  20  21
ENDBRANCH  17  19
ENDBRANCH   4  17
TORSDOF 5
ENDMDL
MODEL 8
REMARK VINA RESULT:      -7.4      6.154      9.497
REMARK  Name = 
REMARK  6 active torsions:
REMARK  status: ('A' for Active; 'I' for Inactive)
REMARK    1  A    between atoms: C_1  and  C_2
REMARK    2  A    between atoms: C_4  and  N_5
REMARK    3  A    between atoms: N_5  and  N_6
REMARK    4  A    between atoms: C_7  and  C_8
REMARK    5  A    between atoms: C_11  and  N_12
REMARK    6  A    between atoms: C_19  and  C_20
REMARK                            x       y       z     vdW  Elec       q    Type
REMARK                         _______ _______ _______ _____ _____    ______ ____
ROOT
ATOM      1  C   UNL     1       0.225   9.186  23.071  0.00  0.00    +0.000 C 
ATOM      2  C   UNL     1       0.667   9.294  21.633  0.00  0.00    +0.000 A 
ATOM      3  C   UNL     1       0.386  10.572  20.925  0.00  0.00    +0.000 A 
ATOM      4  C   UNL     1       0.750  10.646  19.633  0.00  0.00    +0.000 A 
ATOM      5  N   UNL     1       1.394   9.530  19.051  0.00  0.00    +0.000 N 
ATOM      6  N   UNL     1       1.864   9.423  17.773  0.00  0.00    +0.000 NA
ATOM      7  C   UNL     1       2.450   8.224  17.746  0.00  0.00    +0.000 A 
ATOM      8  C   UNL     1       2.359   7.518  18.968  0.00  0.00    +0.000 A 
ATOM      9  C   UNL     1       1.665   8.379  19.803  0.00  0.00    +0.000 A 
ATOM     10  N   UNL     1       1.264   8.267  21.109  0.00  0.00    +0.000 NA
ENDROOT
BRANCH   8  11
ATOM     11  C   UNL     1       2.824   6.181  19.325  0.00  0.00    +0.000 A 
ATOM     12  C   UNL     1       2.047   5.315  20.109  0.00  0.00    +0.000 A 
ATOM     13  C   UNL     1       2.483   4.019  20.399  0.00  0.00    +0.000 A 
ATOM     14  C   UNL     1       3.711   3.573  19.920  0.00  0.00    +0.000 A 
ATOM     15  C   UNL     1       4.507   4.427  19.160  0.00  0.00    +0.000 A 
ATOM     16  C   UNL     1       4.068   5.724  18.866  0.00  0.00    +0.000 A 
ENDBRANCH   8  11
BRANCH   4  17
ATOM     17  N   UNL     1       0.567  11.787  18.845  0.00  0.00    +0.000 N 
ATOM     18  H   UNL     1       1.038  12.593  19.278  0.00  0.00    +0.000 HD
BRANCH  17  19
ATOM     19  N   UNL     1      -0.679  12.003  18.317  0.00  0.00    +0.000 NA
ATOM     20  C   UNL     1      -1.405  10.957  18.085  0.00  0.00    +0.000 C 
BRANCH  20  21
ATOM     21  C   UNL     1      -2.675  11.139  17.433  0.00  0.00    +0.000 A 
ATOM     22  C   UNL     1      -3.038  10.996  16.103  0.00  0.00    +0.000 A 
ATOM     23  C   UNL     1      -4.414  11.311  16.011  0.00  0.00    +0.000 A 
ATOM     24  C   UNL     1      -4.799  11.621  17.291  0.00  0.00    +0.000 A 
ATOM     25  O   UNL     1      -3.766  11.509  18.173  0.00  0.00    +0.000 OA
BRANCH  24  26
ATOM     26  N   UNL     1      -6.063  12.036  17.818  0.00  0.00    +0.000 N 
ATOM     27  O   UNL     1      -6.206  13.252  18.003  0.00  0.00    +0.000 OA
ATOM     28  O   UNL     1      -6.903  11.160  18.043  0.00  0.00    +0.000 OA
ENDBRANCH  24  26
ENDBRANCH  20  21
ENDBRANCH  17  19
ENDBRANCH   4  17
TORSDOF 5
ENDMDL
MODEL 9
REMARK VINA RESULT:      -7.4      5.767      8.850
REMARK  Name = 
REMARK  6 active torsions:
REMARK  status: ('A' for Active; 'I' for Inactive)
REMARK    1  A    between atoms: C_1  and  C_2
REMARK    2  A    between atoms: C_4  and  N_5
REMARK    3  A    between atoms: N_5  and  N_6
REMARK    4  A    between atoms: C_7  and  C_8
REMARK    5  A    between atoms: C_11  and  N_12
REMARK    6  A    between atoms: C_19  and  C_20
REMARK                            x       y       z     vdW  Elec       q    Type
REMARK                         _______ _______ _______ _____ _____    ______ ____
ROOT
ATOM      1  C   UNL     1       0.060   9.466  22.753  0.00  0.00    +0.000 C 
ATOM      2  C   UNL     1       0.652   9.367  21.370  0.00  0.00    +0.000 A 
ATOM      3  C   UNL     1       0.629  10.592  20.527  0.00  0.00    +0.000 A 
ATOM      4  C   UNL     1       1.126  10.485  19.282  0.00  0.00    +0.000 A 
ATOM      5  N   UNL     1       1.656   9.239  18.875  0.00  0.00    +0.000 N 
ATOM      6  N   UNL     1       2.229   8.941  17.671  0.00  0.00    +0.000 NA
ATOM      7  C   UNL     1       2.636   7.678  17.814  0.00  0.00    +0.000 A 
ATOM      8  C   UNL     1       2.324   7.119  19.074  0.00  0.00    +0.000 A 
ATOM      9  C   UNL     1       1.683   8.145  19.748  0.00  0.00    +0.000 A 
ATOM     10  N   UNL     1       1.143   8.221  21.007  0.00  0.00    +0.000 NA
ENDROOT
BRANCH   8  11
ATOM     11  C   UNL     1       2.554   5.774  19.596  0.00  0.00    +0.000 A 
ATOM     12  C   UNL     1       3.646   4.998  19.178  0.00  0.00    +0.000 A 
ATOM     13  C   UNL     1       3.882   3.733  19.725  0.00  0.00    +0.000 A 
ATOM     14  C   UNL     1       3.021   3.220  20.690  0.00  0.00    +0.000 A 
ATOM     15  C   UNL     1       1.919   3.966  21.100  0.00  0.00    +0.000 A 
ATOM     16  C   UNL     1       1.685   5.234  20.555  0.00  0.00    +0.000 A 
ENDBRANCH   8  11
BRANCH   4  17
ATOM     17  N   UNL     1       1.187  11.555  18.382  0.00  0.00    +0.000 N 
ATOM     18  H   UNL     1       0.943  11.233  17.435  0.00  0.00    +0.000 HD
BRANCH  17  19
ATOM     19  N   UNL     1       2.244  12.419  18.493  0.00  0.00    +0.000 NA
ATOM     20  C   UNL     1       2.017  13.660  18.205  0.00  0.00    +0.000 C 
BRANCH  20  21
ATOM     21  C   UNL     1       3.128  14.576  18.207  0.00  0.00    +0.000 A 
ATOM     22  C   UNL     1       3.165  15.953  18.364  0.00  0.00    +0.000 A 
ATOM     23  C   UNL     1       4.521  16.346  18.269  0.00  0.00    +0.000 A 
ATOM     24  C   UNL     1       5.220  15.183  18.065  0.00  0.00    +0.000 A 
ATOM     25  O   UNL     1       4.399  14.095  18.038  0.00  0.00    +0.000 OA
BRANCH  24  26
ATOM     26  N   UNL     1       6.618  14.948  17.873  0.00  0.00    +0.000 N 
ATOM     27  O   UNL     1       6.928  13.842  17.411  0.00  0.00    +0.000 OA
ATOM     28  O   UNL     1       7.396  15.855  18.179  0.00  0.00    +0.000 OA
ENDBRANCH  24  26
ENDBRANCH  20  21
ENDBRANCH  17  19
ENDBRANCH   4  17
TORSDOF 5
ENDMDL
