MODEL 1
REMARK VINA RESULT:      -5.7      0.000      0.000
REMARK  Name = 
REMARK  4 active torsions:
REMARK  status: ('A' for Active; 'I' for Inactive)
REMARK    1  A    between atoms: C_2  and  C_4
REMARK    2  A    between atoms: C_4  and  N_5
REMARK    3  A    between atoms: C_9  and  C_10
REMARK    4  A    between atoms: C_10  and  O_12
REMARK                            x       y       z     vdW  Elec       q    Type
REMARK                         _______ _______ _______ _____ _____    ______ ____
ROOT
ATOM      1  N   UNL     1       5.126   4.356  18.429  0.00  0.00    +0.000 N 
ATOM      2  C   UNL     1       5.905   5.142  19.205  0.00  0.00    +0.000 A 
ATOM      3  C   UNL     1       7.023   5.776  18.676  0.00  0.00    +0.000 A 
ATOM      4  C   UNL     1       7.352   5.575  17.341  0.00  0.00    +0.000 A 
ATOM      5  C   UNL     1       6.556   4.743  16.555  0.00  0.00    +0.000 A 
ATOM      6  C   UNL     1       5.422   4.166  17.115  0.00  0.00    +0.000 A 
ENDROOT
BRANCH   5   7
ATOM      7  C   UNL     1       6.885   4.576  15.129  0.00  0.00    +0.000 C 
ATOM      8  O   UNL     1       7.648   5.342  14.564  0.00  0.00    +0.000 OA
BRANCH   7   9
ATOM      9  O   UNL     1       6.318   3.517  14.521  0.00  0.00    +0.000 OA
ATOM     10  H   UNL     1       6.882   2.838  14.095  0.00  0.00    +0.000 HD
ENDBRANCH   7   9
ENDBRANCH   5   7
BRANCH   1  11
ATOM     11  C   UNL     1       3.919   3.723  19.035  0.00  0.00    +0.000 C 
BRANCH  11  13
ATOM     12  O   UNL     1       4.898   2.018  20.311  0.00  0.00    +0.000 OA
ATOM     13  C   UNL     1       4.166   2.246  19.309  0.00  0.00    +0.000 C 
ATOM     14  O   UNL     1       3.465   1.460  18.619  0.00  0.00    +0.000 OA
ENDBRANCH  11  13
ENDBRANCH   1  11
TORSDOF 4
ENDMDL
MODEL 2
REMARK VINA RESULT:      -5.6      1.651      1.783
REMARK  Name = 
REMARK  4 active torsions:
REMARK  status: ('A' for Active; 'I' for Inactive)
REMARK    1  A    between atoms: C_2  and  C_4
REMARK    2  A    between atoms: C_4  and  N_5
REMARK    3  A    between atoms: C_9  and  C_10
REMARK    4  A    between atoms: C_10  and  O_12
REMARK                            x       y       z     vdW  Elec       q    Type
REMARK                         _______ _______ _______ _____ _____    ______ ____
ROOT
ATOM      1  N   UNL     1       4.191   4.031  17.370  0.00  0.00    +0.000 N 
ATOM      2  C   UNL     1       3.834   5.294  17.693  0.00  0.00    +0.000 A 
ATOM      3  C   UNL     1       4.386   6.380  17.022  0.00  0.00    +0.000 A 
ATOM      4  C   UNL     1       5.332   6.159  16.029  0.00  0.00    +0.000 A 
ATOM      5  C   UNL     1       5.712   4.852  15.721  0.00  0.00    +0.000 A 
ATOM      6  C   UNL     1       5.100   3.796  16.386  0.00  0.00    +0.000 A 
ENDROOT
BRANCH   5   7
ATOM      7  C   UNL     1       6.679   4.626  14.633  0.00  0.00    +0.000 C 
ATOM      8  O   UNL     1       7.653   5.348  14.495  0.00  0.00    +0.000 OA
BRANCH   7   9
ATOM      9  O   UNL     1       6.428   3.566  13.843  0.00  0.00    +0.000 OA
ATOM     10  H   UNL     1       5.597   3.529  13.323  0.00  0.00    +0.000 HD
ENDBRANCH   7   9
ENDBRANCH   5   7
BRANCH   1  11
ATOM     11  C   UNL     1       3.547   2.898  18.096  0.00  0.00    +0.000 C 
BRANCH  11  13
ATOM     12  O   UNL     1       2.839   3.097  20.321  0.00  0.00    +0.000 OA
ATOM     13  C   UNL     1       3.856   2.968  19.585  0.00  0.00    +0.000 C 
ATOM     14  O   UNL     1       5.049   2.706  19.887  0.00  0.00    +0.000 OA
ENDBRANCH  11  13
ENDBRANCH   1  11
TORSDOF 4
ENDMDL
MODEL 3
REMARK VINA RESULT:      -5.6      1.875      4.832
REMARK  Name = 
REMARK  4 active torsions:
REMARK  status: ('A' for Active; 'I' for Inactive)
REMARK    1  A    between atoms: C_2  and  C_4
REMARK    2  A    between atoms: C_4  and  N_5
REMARK    3  A    between atoms: C_9  and  C_10
REMARK    4  A    between atoms: C_10  and  O_12
REMARK                            x       y       z     vdW  Elec       q    Type
REMARK                         _______ _______ _______ _____ _____    ______ ____
ROOT
ATOM      1  N   UNL     1       4.788   4.929  16.646  0.00  0.00    +0.000 N 
ATOM      2  C   UNL     1       4.191   5.995  17.222  0.00  0.00    +0.000 A 
ATOM      3  C   UNL     1       3.155   5.822  18.133  0.00  0.00    +0.000 A 
ATOM      4  C   UNL     1       2.717   4.537  18.431  0.00  0.00    +0.000 A 
ATOM      5  C   UNL     1       3.324   3.444  17.813  0.00  0.00    +0.000 A 
ATOM      6  C   UNL     1       4.387   3.664  16.944  0.00  0.00    +0.000 A 
ENDROOT
BRANCH   5   7
ATOM      7  C   UNL     1       2.887   2.084  18.173  0.00  0.00    +0.000 C 
ATOM      8  O   UNL     1       3.697   1.194  18.376  0.00  0.00    +0.000 OA
BRANCH   7   9
ATOM      9  O   UNL     1       1.558   1.913  18.290  0.00  0.00    +0.000 OA
ATOM     10  H   UNL     1       1.120   2.055  19.157  0.00  0.00    +0.000 HD
ENDBRANCH   7   9
ENDBRANCH   5   7
BRANCH   1  11
ATOM     11  C   UNL     1       5.916   5.165  15.700  0.00  0.00    +0.000 C 
BRANCH  11  13
ATOM     12  O   UNL     1       7.847   4.423  16.801  0.00  0.00    +0.000 OA
ATOM     13  C   UNL     1       7.205   5.453  16.458  0.00  0.00    +0.000 C 
ATOM     14  O   UNL     1       7.542   6.666  16.477  0.00  0.00    +0.000 OA
ENDBRANCH  11  13
ENDBRANCH   1  11
TORSDOF 4
ENDMDL
MODEL 4
REMARK VINA RESULT:      -5.6      2.508      5.613
REMARK  Name = 
REMARK  4 active torsions:
REMARK  status: ('A' for Active; 'I' for Inactive)
REMARK    1  A    between atoms: C_2  and  C_4
REMARK    2  A    between atoms: C_4  and  N_5
REMARK    3  A    between atoms: C_9  and  C_10
REMARK    4  A    between atoms: C_10  and  O_12
REMARK                            x       y       z     vdW  Elec       q    Type
REMARK                         _______ _______ _______ _____ _____    ______ ____
ROOT
ATOM      1  N   UNL     1       4.278   4.141  18.407  0.00  0.00    +0.000 N 
ATOM      2  C   UNL     1       3.379   4.637  17.528  0.00  0.00    +0.000 A 
ATOM      3  C   UNL     1       2.017   4.584  17.801  0.00  0.00    +0.000 A 
ATOM      4  C   UNL     1       1.580   3.991  18.979  0.00  0.00    +0.000 A 
ATOM      5  C   UNL     1       2.515   3.460  19.868  0.00  0.00    +0.000 A 
ATOM      6  C   UNL     1       3.869   3.577  19.575  0.00  0.00    +0.000 A 
ENDROOT
BRANCH   5   7
ATOM      7  C   UNL     1       2.045   2.878  21.137  0.00  0.00    +0.000 C 
ATOM      8  O   UNL     1       2.834   2.509  21.992  0.00  0.00    +0.000 OA
BRANCH   7   9
ATOM      9  O   UNL     1       0.710   2.819  21.290  0.00  0.00    +0.000 OA
ATOM     10  H   UNL     1       0.194   2.126  20.825  0.00  0.00    +0.000 HD
ENDBRANCH   7   9
ENDBRANCH   5   7
BRANCH   1  11
ATOM     11  C   UNL     1       5.730   4.250  18.083  0.00  0.00    +0.000 C 
BRANCH  11  13
ATOM     12  O   UNL     1       6.869   5.301  19.841  0.00  0.00    +0.000 OA
ATOM     13  C   UNL     1       6.331   5.497  18.717  0.00  0.00    +0.000 C 
ATOM     14  O   UNL     1       6.371   6.503  17.961  0.00  0.00    +0.000 OA
ENDBRANCH  11  13
ENDBRANCH   1  11
TORSDOF 4
ENDMDL
MODEL 5
REMARK VINA RESULT:      -5.6      1.740      4.779
REMARK  Name = 
REMARK  4 active torsions:
REMARK  status: ('A' for Active; 'I' for Inactive)
REMARK    1  A    between atoms: C_2  and  C_4
REMARK    2  A    between atoms: C_4  and  N_5
REMARK    3  A    between atoms: C_9  and  C_10
REMARK    4  A    between atoms: C_10  and  O_12
REMARK                            x       y       z     vdW  Elec       q    Type
REMARK                         _______ _______ _______ _____ _____    ______ ____
ROOT
ATOM      1  N   UNL     1       4.854   5.195  18.027  0.00  0.00    +0.000 N 
ATOM      2  C   UNL     1       3.867   6.111  17.908  0.00  0.00    +0.000 A 
ATOM      3  C   UNL     1       2.532   5.723  17.927  0.00  0.00    +0.000 A 
ATOM      4  C   UNL     1       2.216   4.375  18.042  0.00  0.00    +0.000 A 
ATOM      5  C   UNL     1       3.241   3.434  18.139  0.00  0.00    +0.000 A 
ATOM      6  C   UNL     1       4.560   3.874  18.163  0.00  0.00    +0.000 A 
ENDROOT
BRANCH   5   7
ATOM      7  C   UNL     1       2.895   2.013  18.312  0.00  0.00    +0.000 C 
ATOM      8  O   UNL     1       3.762   1.159  18.395  0.00  0.00    +0.000 OA
BRANCH   7   9
ATOM      9  O   UNL     1       1.580   1.742  18.402  0.00  0.00    +0.000 OA
ATOM     10  H   UNL     1       1.202   0.983  17.909  0.00  0.00    +0.000 HD
ENDBRANCH   7   9
ENDBRANCH   5   7
BRANCH   1  11
ATOM     11  C   UNL     1       6.269   5.664  18.034  0.00  0.00    +0.000 C 
BRANCH  11  13
ATOM     12  O   UNL     1       6.689   5.748  15.730  0.00  0.00    +0.000 OA
ATOM     13  C   UNL     1       7.009   5.163  16.801  0.00  0.00    +0.000 C 
ATOM     14  O   UNL     1       7.958   4.373  17.044  0.00  0.00    +0.000 OA
ENDBRANCH  11  13
ENDBRANCH   1  11
TORSDOF 4
ENDMDL
MODEL 6
REMARK VINA RESULT:      -5.6      1.799      4.874
REMARK  Name = 
REMARK  4 active torsions:
REMARK  status: ('A' for Active; 'I' for Inactive)
REMARK    1  A    between atoms: C_2  and  C_4
REMARK    2  A    between atoms: C_4  and  N_5
REMARK    3  A    between atoms: C_9  and  C_10
REMARK    4  A    between atoms: C_10  and  O_12
REMARK                            x       y       z     vdW  Elec       q    Type
REMARK                         _______ _______ _______ _____ _____    ______ ____
ROOT
ATOM      1  N   UNL     1       5.346   4.656  16.921  0.00  0.00    +0.000 N 
ATOM      2  C   UNL     1       5.043   5.955  17.143  0.00  0.00    +0.000 A 
ATOM      3  C   UNL     1       3.795   6.317  17.639  0.00  0.00    +0.000 A 
ATOM      4  C   UNL     1       2.846   5.332  17.882  0.00  0.00    +0.000 A 
ATOM      5  C   UNL     1       3.160   3.997  17.626  0.00  0.00    +0.000 A 
ATOM      6  C   UNL     1       4.436   3.678  17.174  0.00  0.00    +0.000 A 
ENDROOT
BRANCH   5   7
ATOM      7  C   UNL     1       2.165   2.956  17.933  0.00  0.00    +0.000 C 
ATOM      8  O   UNL     1       1.052   3.248  18.341  0.00  0.00    +0.000 OA
BRANCH   7   9
ATOM      9  O   UNL     1       2.558   1.690  17.703  0.00  0.00    +0.000 OA
ATOM     10  H   UNL     1       3.514   1.472  17.671  0.00  0.00    +0.000 HD
ENDBRANCH   7   9
ENDBRANCH   5   7
BRANCH   1  11
ATOM     11  C   UNL     1       6.709   4.316  16.420  0.00  0.00    +0.000 C 
BRANCH  11  13
ATOM     12  O   UNL     1       7.654   5.503  14.634  0.00  0.00    +0.000 OA
ATOM     13  C   UNL     1       6.821   4.602  14.929  0.00  0.00    +0.000 C 
ATOM     14  O   UNL     1       6.212   3.785  14.190  0.00  0.00    +0.000 OA
ENDBRANCH  11  13
ENDBRANCH   1  11
TORSDOF 4
ENDMDL
MODEL 7
REMARK VINA RESULT:      -5.6      1.595      1.973
REMARK  Name = 
REMARK  4 active torsions:
REMARK  status: ('A' for Active; 'I' for Inactive)
REMARK    1  A    between atoms: C_2  and  C_4
REMARK    2  A    between atoms: C_4  and  N_5
REMARK    3  A    between atoms: C_9  and  C_10
REMARK    4  A    between atoms: C_10  and  O_12
REMARK                            x       y       z     vdW  Elec       q    Type
REMARK                         _______ _______ _______ _____ _____    ______ ____
ROOT
ATOM      1  N   UNL     1       4.359   4.487  17.754  0.00  0.00    +0.000 N 
ATOM      2  C   UNL     1       3.962   5.773  17.876  0.00  0.00    +0.000 A 
ATOM      3  C   UNL     1       4.389   6.736  16.969  0.00  0.00    +0.000 A 
ATOM      4  C   UNL     1       5.254   6.372  15.944  0.00  0.00    +0.000 A 
ATOM      5  C   UNL     1       5.678   5.047  15.841  0.00  0.00    +0.000 A 
ATOM      6  C   UNL     1       5.188   4.109  16.744  0.00  0.00    +0.000 A 
ENDROOT
BRANCH   5   7
ATOM      7  C   UNL     1       6.554   4.660  14.722  0.00  0.00    +0.000 C 
ATOM      8  O   UNL     1       6.247   3.754  13.965  0.00  0.00    +0.000 OA
BRANCH   7   9
ATOM      9  O   UNL     1       7.677   5.389  14.585  0.00  0.00    +0.000 OA
ATOM     10  H   UNL     1       8.270   5.234  13.819  0.00  0.00    +0.000 HD
ENDBRANCH   7   9
ENDBRANCH   5   7
BRANCH   1  11
ATOM     11  C   UNL     1       3.849   3.485  18.733  0.00  0.00    +0.000 C 
BRANCH  11  13
ATOM     12  O   UNL     1       3.652   1.190  18.299  0.00  0.00    +0.000 OA
ATOM     13  C   UNL     1       3.176   2.323  18.014  0.00  0.00    +0.000 C 
ATOM     14  O   UNL     1       2.131   2.631  17.384  0.00  0.00    +0.000 OA
ENDBRANCH  11  13
ENDBRANCH   1  11
TORSDOF 4
ENDMDL
MODEL 8
REMARK VINA RESULT:      -5.5      1.954      2.408
REMARK  Name = 
REMARK  4 active torsions:
REMARK  status: ('A' for Active; 'I' for Inactive)
REMARK    1  A    between atoms: C_2  and  C_4
REMARK    2  A    between atoms: C_4  and  N_5
REMARK    3  A    between atoms: C_9  and  C_10
REMARK    4  A    between atoms: C_10  and  O_12
REMARK                            x       y       z     vdW  Elec       q    Type
REMARK                         _______ _______ _______ _____ _____    ______ ____
ROOT
ATOM      1  N   UNL     1       3.583   3.888  17.390  0.00  0.00    +0.000 N 
ATOM      2  C   UNL     1       3.048   5.068  17.776  0.00  0.00    +0.000 A 
ATOM      3  C   UNL     1       3.799   6.237  17.725  0.00  0.00    +0.000 A 
ATOM      4  C   UNL     1       5.120   6.181  17.298  0.00  0.00    +0.000 A 
ATOM      5  C   UNL     1       5.670   4.954  16.926  0.00  0.00    +0.000 A 
ATOM      6  C   UNL     1       4.867   3.819  16.948  0.00  0.00    +0.000 A 
ENDROOT
BRANCH   5   7
ATOM      7  C   UNL     1       7.055   4.913  16.427  0.00  0.00    +0.000 C 
ATOM      8  O   UNL     1       7.399   5.581  15.466  0.00  0.00    +0.000 OA
BRANCH   7   9
ATOM      9  O   UNL     1       7.899   4.125  17.118  0.00  0.00    +0.000 OA
ATOM     10  H   UNL     1       8.864   4.176  16.952  0.00  0.00    +0.000 HD
ENDBRANCH   7   9
ENDBRANCH   5   7
BRANCH   1  11
ATOM     11  C   UNL     1       2.727   2.667  17.431  0.00  0.00    +0.000 C 
BRANCH  11  13
ATOM     12  O   UNL     1       0.833   2.500  18.801  0.00  0.00    +0.000 OA
ATOM     13  C   UNL     1       2.095   2.499  18.806  0.00  0.00    +0.000 C 
ATOM     14  O   UNL     1       2.904   2.200  19.723  0.00  0.00    +0.000 OA
ENDBRANCH  11  13
ENDBRANCH   1  11
TORSDOF 4
ENDMDL
MODEL 9
REMARK VINA RESULT:      -5.5      1.949      2.375
REMARK  Name = 
REMARK  4 active torsions:
REMARK  status: ('A' for Active; 'I' for Inactive)
REMARK    1  A    between atoms: C_2  and  C_4
REMARK    2  A    between atoms: C_4  and  N_5
REMARK    3  A    between atoms: C_9  and  C_10
REMARK    4  A    between atoms: C_10  and  O_12
REMARK                            x       y       z     vdW  Elec       q    Type
REMARK                         _______ _______ _______ _____ _____    ______ ____
ROOT
ATOM      1  N   UNL     1       3.957   4.389  18.412  0.00  0.00    +0.000 N 
ATOM      2  C   UNL     1       3.347   5.590  18.296  0.00  0.00    +0.000 A 
ATOM      3  C   UNL     1       3.950   6.626  17.591  0.00  0.00    +0.000 A 
ATOM      4  C   UNL     1       5.204   6.427  17.025  0.00  0.00    +0.000 A 
ATOM      5  C   UNL     1       5.835   5.192  17.172  0.00  0.00    +0.000 A 
ATOM      6  C   UNL     1       5.174   4.171  17.846  0.00  0.00    +0.000 A 
ENDROOT
BRANCH   5   7
ATOM      7  C   UNL     1       7.141   4.975  16.527  0.00  0.00    +0.000 C 
ATOM      8  O   UNL     1       7.429   5.535  15.482  0.00  0.00    +0.000 OA
BRANCH   7   9
ATOM      9  O   UNL     1       7.984   4.155  17.182  0.00  0.00    +0.000 OA
ATOM     10  H   UNL     1       7.774   3.865  18.095  0.00  0.00    +0.000 HD
ENDBRANCH   7   9
ENDBRANCH   5   7
BRANCH   1  11
ATOM     11  C   UNL     1       3.255   3.300  19.150  0.00  0.00    +0.000 C 
BRANCH  11  13
ATOM     12  O   UNL     1       2.132   2.401  17.301  0.00  0.00    +0.000 OA
ATOM     13  C   UNL     1       1.965   2.913  18.442  0.00  0.00    +0.000 C 
ATOM     14  O   UNL     1       0.931   2.986  19.157  0.00  0.00    +0.000 OA
ENDBRANCH  11  13
ENDBRANCH   1  11
TORSDOF 4
ENDMDL
