MODEL 1
REMARK VINA RESULT:      -8.7      0.000      0.000
REMARK  Name = 
REMARK  10 active torsions:
REMARK  status: ('A' for Active; 'I' for Inactive)
REMARK    1  A    between atoms: N_4  and  C_5
REMARK    2  A    between atoms: C_8  and  C_9
REMARK    3  A    between atoms: C_9  and  O_11
REMARK    4  A    between atoms: O_11  and  C_12
REMARK    5  A    between atoms: C_17  and  C_18
REMARK    6  A    between atoms: N_20  and  C_21
REMARK    7  A    between atoms: C_21  and  C_22
REMARK    8  A    between atoms: C_21  and  C_26
REMARK    9  A    between atoms: C_22  and  C_23
REMARK   10  A    between atoms: C_23  and  O_25
REMARK                            x       y       z     vdW  Elec       q    Type
REMARK                         _______ _______ _______ _____ _____    ______ ____
ROOT
ATOM      1  C   UNL     1       0.801  10.196  20.040  0.00  0.00    +0.000 A 
ATOM      2  C   UNL     1       1.293  11.460  19.746  0.00  0.00    +0.000 A 
ATOM      3  C   UNL     1       0.614  12.578  20.228  0.00  0.00    +0.000 A 
ATOM      4  C   UNL     1      -0.475  12.431  21.065  0.00  0.00    +0.000 A 
ATOM      5  N   UNL     1      -1.406  13.401  21.198  0.00  0.00    +0.000 NA
ATOM      6  C   UNL     1      -2.426  13.138  22.056  0.00  0.00    +0.000 A 
ATOM      7  C   UNL     1      -2.262  12.279  23.126  0.00  0.00    +0.000 A 
ATOM      8  C   UNL     1      -1.468  11.177  22.841  0.00  0.00    +0.000 A 
ATOM      9  C   UNL     1      -0.663  11.191  21.695  0.00  0.00    +0.000 A 
ATOM     10  C   UNL     1      -0.093  10.045  21.098  0.00  0.00    +0.000 A 
ENDROOT
BRANCH   6  11
ATOM     11  C   UNL     1      -3.747  12.790  21.363  0.00  0.00    +0.000 C 
ATOM     12  O   UNL     1      -4.664  12.254  21.974  0.00  0.00    +0.000 OA
ATOM     13  N   UNL     1      -3.774  12.963  19.981  0.00  0.00    +0.000 N 
ATOM     14  H   UNL     1      -2.924  13.341  19.568  0.00  0.00    +0.000 HD
BRANCH  13  15
ATOM     15  C   UNL     1      -4.697  12.171  19.133  0.00  0.00    +0.000 C 
BRANCH  15  16
ATOM     16  C   UNL     1      -3.995  11.413  17.993  0.00  0.00    +0.000 A 
ATOM     17  C   UNL     1      -4.554  11.345  16.704  0.00  0.00    +0.000 A 
ATOM     18  C   UNL     1      -3.907  10.664  15.664  0.00  0.00    +0.000 A 
ATOM     19  C   UNL     1      -2.668  10.071  15.873  0.00  0.00    +0.000 A 
ATOM     20  C   UNL     1      -2.067  10.166  17.120  0.00  0.00    +0.000 A 
ATOM     21  C   UNL     1      -2.722  10.839  18.164  0.00  0.00    +0.000 A 
ENDBRANCH  15  16
BRANCH  15  22
ATOM     22  C   UNL     1      -5.875  13.051  18.696  0.00  0.00    +0.000 C 
BRANCH  22  23
ATOM     23  C   UNL     1      -7.110  12.789  19.517  0.00  0.00    +0.000 C 
ATOM     24  O   UNL     1      -7.646  11.696  19.607  0.00  0.00    +0.000 OA
BRANCH  23  25
ATOM     25  O   UNL     1      -7.549  13.868  20.202  0.00  0.00    +0.000 OA
ATOM     26  H   UNL     1      -7.239  14.705  19.794  0.00  0.00    +0.000 HD
ENDBRANCH  23  25
ENDBRANCH  22  23
ENDBRANCH  15  22
ENDBRANCH  13  15
ENDBRANCH   6  11
BRANCH   1  27
ATOM     27  O   UNL     1       1.150   9.048  19.294  0.00  0.00    +0.000 OA
BRANCH  27  28
ATOM     28  C   UNL     1       1.712   7.952  19.957  0.00  0.00    +0.000 C 
ATOM     29  O   UNL     1       1.477   7.581  21.098  0.00  0.00    +0.000 OA
BRANCH  28  33
ATOM     30  C   UNL     1       4.515   5.921  17.368  0.00  0.00    +0.000 A 
ATOM     31  C   UNL     1       3.977   7.166  17.042  0.00  0.00    +0.000 A 
ATOM     32  C   UNL     1       3.089   7.828  17.896  0.00  0.00    +0.000 A 
ATOM     33  C   UNL     1       2.713   7.245  19.117  0.00  0.00    +0.000 A 
ATOM     34  C   UNL     1       3.250   6.005  19.469  0.00  0.00    +0.000 A 
ATOM     35  C   UNL     1       4.151   5.360  18.610  0.00  0.00    +0.000 A 
BRANCH  30  39
ATOM     36  N   UNL     1       7.402   6.631  16.808  0.00  0.00    +0.000 NA
ATOM     37  C   UNL     1       6.766   5.620  16.334  0.00  0.00    +0.000 C 
ATOM     38  N   UNL     1       7.404   4.716  15.549  0.00  0.00    +0.000 N 
ATOM     39  N   UNL     1       5.448   5.328  16.500  0.00  0.00    +0.000 N 
ATOM     40  H   UNL     1       8.378   6.602  16.524  0.00  0.00    +0.000 HD
ATOM     41  H   UNL     1       8.304   5.020  15.197  0.00  0.00    +0.000 HD
ATOM     42  H   UNL     1       6.847   4.305  14.811  0.00  0.00    +0.000 HD
ATOM     43  H   UNL     1       5.114   4.468  16.093  0.00  0.00    +0.000 HD
ENDBRANCH  30  39
ENDBRANCH  28  33
ENDBRANCH  27  28
ENDBRANCH   1  27
TORSDOF 10
ENDMDL
MODEL 2
REMARK VINA RESULT:      -8.6      0.792      1.104
REMARK  Name = 
REMARK  10 active torsions:
REMARK  status: ('A' for Active; 'I' for Inactive)
REMARK    1  A    between atoms: N_4  and  C_5
REMARK    2  A    between atoms: C_8  and  C_9
REMARK    3  A    between atoms: C_9  and  O_11
REMARK    4  A    between atoms: O_11  and  C_12
REMARK    5  A    between atoms: C_17  and  C_18
REMARK    6  A    between atoms: N_20  and  C_21
REMARK    7  A    between atoms: C_21  and  C_22
REMARK    8  A    between atoms: C_21  and  C_26
REMARK    9  A    between atoms: C_22  and  C_23
REMARK   10  A    between atoms: C_23  and  O_25
REMARK                            x       y       z     vdW  Elec       q    Type
REMARK                         _______ _______ _______ _____ _____    ______ ____
ROOT
ATOM      1  C   UNL     1       0.722  10.066  20.568  0.00  0.00    +0.000 A 
ATOM      2  C   UNL     1       1.220  11.266  20.079  0.00  0.00    +0.000 A 
ATOM      3  C   UNL     1       0.521  12.444  20.338  0.00  0.00    +0.000 A 
ATOM      4  C   UNL     1      -0.597  12.432  21.150  0.00  0.00    +0.000 A 
ATOM      5  N   UNL     1      -1.535  13.403  21.083  0.00  0.00    +0.000 NA
ATOM      6  C   UNL     1      -2.583  13.281  21.939  0.00  0.00    +0.000 A 
ATOM      7  C   UNL     1      -2.454  12.619  23.144  0.00  0.00    +0.000 A 
ATOM      8  C   UNL     1      -1.647  11.492  23.080  0.00  0.00    +0.000 A 
ATOM      9  C   UNL     1      -0.803  11.317  21.977  0.00  0.00    +0.000 A 
ATOM     10  C   UNL     1      -0.209  10.091  21.605  0.00  0.00    +0.000 A 
ENDROOT
BRANCH   6  11
ATOM     11  C   UNL     1      -3.878  12.808  21.271  0.00  0.00    +0.000 C 
ATOM     12  O   UNL     1      -4.719  12.170  21.894  0.00  0.00    +0.000 OA
ATOM     13  N   UNL     1      -3.958  12.998  19.893  0.00  0.00    +0.000 N 
ATOM     14  H   UNL     1      -3.161  13.468  19.467  0.00  0.00    +0.000 HD
BRANCH  13  15
ATOM     15  C   UNL     1      -4.814  12.126  19.053  0.00  0.00    +0.000 C 
BRANCH  15  16
ATOM     16  C   UNL     1      -4.041  11.360  17.965  0.00  0.00    +0.000 A 
ATOM     17  C   UNL     1      -4.462  11.368  16.623  0.00  0.00    +0.000 A 
ATOM     18  C   UNL     1      -3.751  10.679  15.631  0.00  0.00    +0.000 A 
ATOM     19  C   UNL     1      -2.580  10.002  15.946  0.00  0.00    +0.000 A 
ATOM     20  C   UNL     1      -2.110  10.020  17.252  0.00  0.00    +0.000 A 
ATOM     21  C   UNL     1      -2.831  10.701  18.246  0.00  0.00    +0.000 A 
ENDBRANCH  15  16
BRANCH  15  22
ATOM     22  C   UNL     1      -6.021  12.927  18.548  0.00  0.00    +0.000 C 
BRANCH  22  23
ATOM     23  C   UNL     1      -6.379  14.056  19.477  0.00  0.00    +0.000 C 
ATOM     24  O   UNL     1      -6.096  15.225  19.266  0.00  0.00    +0.000 OA
BRANCH  23  25
ATOM     25  O   UNL     1      -7.102  13.670  20.553  0.00  0.00    +0.000 OA
ATOM     26  H   UNL     1      -7.857  13.100  20.293  0.00  0.00    +0.000 HD
ENDBRANCH  23  25
ENDBRANCH  22  23
ENDBRANCH  15  22
ENDBRANCH  13  15
ENDBRANCH   6  11
BRANCH   1  27
ATOM     27  O   UNL     1       1.101   8.812  20.042  0.00  0.00    +0.000 OA
BRANCH  27  28
ATOM     28  C   UNL     1       1.497   8.728  18.703  0.00  0.00    +0.000 C 
ATOM     29  O   UNL     1       1.011   9.322  17.751  0.00  0.00    +0.000 OA
BRANCH  28  33
ATOM     30  C   UNL     1       4.688   5.906  17.966  0.00  0.00    +0.000 A 
ATOM     31  C   UNL     1       4.446   6.987  17.117  0.00  0.00    +0.000 A 
ATOM     32  C   UNL     1       3.427   7.909  17.375  0.00  0.00    +0.000 A 
ATOM     33  C   UNL     1       2.612   7.766  18.510  0.00  0.00    +0.000 A 
ATOM     34  C   UNL     1       2.845   6.698  19.380  0.00  0.00    +0.000 A 
ATOM     35  C   UNL     1       3.880   5.790  19.117  0.00  0.00    +0.000 A 
BRANCH  30  39
ATOM     36  N   UNL     1       7.399   6.475  16.751  0.00  0.00    +0.000 NA
ATOM     37  C   UNL     1       7.001   5.346  17.220  0.00  0.00    +0.000 C 
ATOM     38  N   UNL     1       7.846   4.285  17.257  0.00  0.00    +0.000 N 
ATOM     39  N   UNL     1       5.762   5.043  17.690  0.00  0.00    +0.000 N 
ATOM     40  H   UNL     1       8.374   6.419  16.467  0.00  0.00    +0.000 HD
ATOM     41  H   UNL     1       8.683   4.389  16.696  0.00  0.00    +0.000 HD
ATOM     42  H   UNL     1       7.419   3.380  17.105  0.00  0.00    +0.000 HD
ATOM     43  H   UNL     1       5.627   4.117  18.063  0.00  0.00    +0.000 HD
ENDBRANCH  30  39
ENDBRANCH  28  33
ENDBRANCH  27  28
ENDBRANCH   1  27
TORSDOF 10
ENDMDL
MODEL 3
REMARK VINA RESULT:      -8.6      0.661      1.387
REMARK  Name = 
REMARK  10 active torsions:
REMARK  status: ('A' for Active; 'I' for Inactive)
REMARK    1  A    between atoms: N_4  and  C_5
REMARK    2  A    between atoms: C_8  and  C_9
REMARK    3  A    between atoms: C_9  and  O_11
REMARK    4  A    between atoms: O_11  and  C_12
REMARK    5  A    between atoms: C_17  and  C_18
REMARK    6  A    between atoms: N_20  and  C_21
REMARK    7  A    between atoms: C_21  and  C_22
REMARK    8  A    between atoms: C_21  and  C_26
REMARK    9  A    between atoms: C_22  and  C_23
REMARK   10  A    between atoms: C_23  and  O_25
REMARK                            x       y       z     vdW  Elec       q    Type
REMARK                         _______ _______ _______ _____ _____    ______ ____
ROOT
ATOM      1  C   UNL     1       0.681  10.373  20.161  0.00  0.00    +0.000 A 
ATOM      2  C   UNL     1       1.168  11.652  19.925  0.00  0.00    +0.000 A 
ATOM      3  C   UNL     1       0.477  12.744  20.447  0.00  0.00    +0.000 A 
ATOM      4  C   UNL     1      -0.618  12.555  21.268  0.00  0.00    +0.000 A 
ATOM      5  N   UNL     1      -1.557  13.514  21.433  0.00  0.00    +0.000 NA
ATOM      6  C   UNL     1      -2.582  13.208  22.270  0.00  0.00    +0.000 A 
ATOM      7  C   UNL     1      -2.422  12.306  23.304  0.00  0.00    +0.000 A 
ATOM      8  C   UNL     1      -1.619  11.222  22.981  0.00  0.00    +0.000 A 
ATOM      9  C   UNL     1      -0.804  11.289  21.843  0.00  0.00    +0.000 A 
ATOM     10  C   UNL     1      -0.222  10.172  21.204  0.00  0.00    +0.000 A 
ENDROOT
BRANCH   6  11
ATOM     11  C   UNL     1      -3.895  12.882  21.551  0.00  0.00    +0.000 C 
ATOM     12  O   UNL     1      -4.781  12.242  22.105  0.00  0.00    +0.000 OA
ATOM     13  N   UNL     1      -3.945  13.207  20.197  0.00  0.00    +0.000 N 
ATOM     14  H   UNL     1      -3.116  13.665  19.824  0.00  0.00    +0.000 HD
BRANCH  13  15
ATOM     15  C   UNL     1      -4.843  12.474  19.272  0.00  0.00    +0.000 C 
BRANCH  15  16
ATOM     16  C   UNL     1      -4.098  11.677  18.187  0.00  0.00    +0.000 A 
ATOM     17  C   UNL     1      -2.810  11.158  18.412  0.00  0.00    +0.000 A 
ATOM     18  C   UNL     1      -2.137  10.422  17.427  0.00  0.00    +0.000 A 
ATOM     19  C   UNL     1      -2.749  10.150  16.210  0.00  0.00    +0.000 A 
ATOM     20  C   UNL     1      -4.040  10.604  15.979  0.00  0.00    +0.000 A 
ATOM     21  C   UNL     1      -4.708  11.351  16.962  0.00  0.00    +0.000 A 
ENDBRANCH  15  16
BRANCH  15  22
ATOM     22  C   UNL     1      -5.926  13.425  18.748  0.00  0.00    +0.000 C 
BRANCH  22  23
ATOM     23  C   UNL     1      -6.147  14.593  19.672  0.00  0.00    +0.000 C 
ATOM     24  O   UNL     1      -6.817  14.536  20.691  0.00  0.00    +0.000 OA
BRANCH  23  25
ATOM     25  O   UNL     1      -5.484  15.713  19.304  0.00  0.00    +0.000 OA
ATOM     26  H   UNL     1      -5.342  16.314  20.067  0.00  0.00    +0.000 HD
ENDBRANCH  23  25
ENDBRANCH  22  23
ENDBRANCH  15  22
ENDBRANCH  13  15
ENDBRANCH   6  11
BRANCH   1  27
ATOM     27  O   UNL     1       1.044   9.261  19.371  0.00  0.00    +0.000 OA
BRANCH  27  28
ATOM     28  C   UNL     1       1.630   8.151  19.988  0.00  0.00    +0.000 C 
ATOM     29  O   UNL     1       1.456   7.769  21.137  0.00  0.00    +0.000 OA
BRANCH  28  33
ATOM     30  C   UNL     1       4.488   6.064  17.507  0.00  0.00    +0.000 A 
ATOM     31  C   UNL     1       4.035   5.536  18.717  0.00  0.00    +0.000 A 
ATOM     32  C   UNL     1       3.092   6.206  19.502  0.00  0.00    +0.000 A 
ATOM     33  C   UNL     1       2.574   7.443  19.086  0.00  0.00    +0.000 A 
ATOM     34  C   UNL     1       3.005   7.984  17.872  0.00  0.00    +0.000 A 
ATOM     35  C   UNL     1       3.939   7.294  17.088  0.00  0.00    +0.000 A 
BRANCH  30  39
ATOM     36  N   UNL     1       7.340   6.668  16.697  0.00  0.00    +0.000 NA
ATOM     37  C   UNL     1       6.698   5.582  16.453  0.00  0.00    +0.000 C 
ATOM     38  N   UNL     1       7.315   4.548  15.829  0.00  0.00    +0.000 N 
ATOM     39  N   UNL     1       5.393   5.320  16.729  0.00  0.00    +0.000 N 
ATOM     40  H   UNL     1       8.303   6.590  16.382  0.00  0.00    +0.000 HD
ATOM     41  H   UNL     1       8.195   4.783  15.387  0.00  0.00    +0.000 HD
ATOM     42  H   UNL     1       6.734   4.000  15.208  0.00  0.00    +0.000 HD
ATOM     43  H   UNL     1       5.053   4.396  16.509  0.00  0.00    +0.000 HD
ENDBRANCH  30  39
ENDBRANCH  28  33
ENDBRANCH  27  28
ENDBRANCH   1  27
TORSDOF 10
ENDMDL
MODEL 4
REMARK VINA RESULT:      -8.3      1.897      2.345
REMARK  Name = 
REMARK  10 active torsions:
REMARK  status: ('A' for Active; 'I' for Inactive)
REMARK    1  A    between atoms: N_4  and  C_5
REMARK    2  A    between atoms: C_8  and  C_9
REMARK    3  A    between atoms: C_9  and  O_11
REMARK    4  A    between atoms: O_11  and  C_12
REMARK    5  A    between atoms: C_17  and  C_18
REMARK    6  A    between atoms: N_20  and  C_21
REMARK    7  A    between atoms: C_21  and  C_22
REMARK    8  A    between atoms: C_21  and  C_26
REMARK    9  A    between atoms: C_22  and  C_23
REMARK   10  A    between atoms: C_23  and  O_25
REMARK                            x       y       z     vdW  Elec       q    Type
REMARK                         _______ _______ _______ _____ _____    ______ ____
ROOT
ATOM      1  C   UNL     1       1.359  11.878  19.124  0.00  0.00    +0.000 A 
ATOM      2  C   UNL     1       1.242  13.083  18.444  0.00  0.00    +0.000 A 
ATOM      3  C   UNL     1       0.241  13.977  18.821  0.00  0.00    +0.000 A 
ATOM      4  C   UNL     1      -0.560  13.713  19.915  0.00  0.00    +0.000 A 
ATOM      5  N   UNL     1      -1.778  14.282  20.059  0.00  0.00    +0.000 NA
ATOM      6  C   UNL     1      -2.466  13.947  21.181  0.00  0.00    +0.000 A 
ATOM      7  C   UNL     1      -1.813  13.567  22.338  0.00  0.00    +0.000 A 
ATOM      8  C   UNL     1      -0.687  12.788  22.115  0.00  0.00    +0.000 A 
ATOM      9  C   UNL     1      -0.132  12.740  20.830  0.00  0.00    +0.000 A 
ATOM     10  C   UNL     1       0.766  11.747  20.379  0.00  0.00    +0.000 A 
ENDROOT
BRANCH   6  11
ATOM     11  C   UNL     1      -3.613  12.961  20.936  0.00  0.00    +0.000 C 
ATOM     12  O   UNL     1      -4.017  12.221  21.825  0.00  0.00    +0.000 OA
ATOM     13  N   UNL     1      -4.042  12.843  19.615  0.00  0.00    +0.000 N 
ATOM     14  H   UNL     1      -3.576  13.451  18.945  0.00  0.00    +0.000 HD
BRANCH  13  15
ATOM     15  C   UNL     1      -4.683  11.596  19.133  0.00  0.00    +0.000 C 
BRANCH  15  16
ATOM     16  C   UNL     1      -4.093  11.065  17.815  0.00  0.00    +0.000 A 
ATOM     17  C   UNL     1      -4.434  11.637  16.575  0.00  0.00    +0.000 A 
ATOM     18  C   UNL     1      -3.887  11.160  15.376  0.00  0.00    +0.000 A 
ATOM     19  C   UNL     1      -2.954  10.131  15.388  0.00  0.00    +0.000 A 
ATOM     20  C   UNL     1      -2.558   9.582  16.600  0.00  0.00    +0.000 A 
ATOM     21  C   UNL     1      -3.116  10.053  17.799  0.00  0.00    +0.000 A 
ENDBRANCH  15  16
BRANCH  15  22
ATOM     22  C   UNL     1      -6.207  11.768  19.137  0.00  0.00    +0.000 C 
BRANCH  22  23
ATOM     23  C   UNL     1      -6.904  10.611  19.801  0.00  0.00    +0.000 C 
ATOM     24  O   UNL     1      -7.131  10.552  21.000  0.00  0.00    +0.000 OA
BRANCH  23  25
ATOM     25  O   UNL     1      -7.317   9.654  18.940  0.00  0.00    +0.000 OA
ATOM     26  H   UNL     1      -7.900  10.024  18.243  0.00  0.00    +0.000 HD
ENDBRANCH  23  25
ENDBRANCH  22  23
ENDBRANCH  15  22
ENDBRANCH  13  15
ENDBRANCH   6  11
BRANCH   1  27
ATOM     27  O   UNL     1       2.037  10.762  18.587  0.00  0.00    +0.000 OA
BRANCH  27  28
ATOM     28  C   UNL     1       1.297   9.640  18.200  0.00  0.00    +0.000 C 
ATOM     29  O   UNL     1       0.175   9.628  17.711  0.00  0.00    +0.000 OA
BRANCH  28  33
ATOM     30  C   UNL     1       3.435   6.015  19.185  0.00  0.00    +0.000 A 
ATOM     31  C   UNL     1       2.473   6.560  20.036  0.00  0.00    +0.000 A 
ATOM     32  C   UNL     1       1.768   7.720  19.699  0.00  0.00    +0.000 A 
ATOM     33  C   UNL     1       2.018   8.372  18.480  0.00  0.00    +0.000 A 
ATOM     34  C   UNL     1       2.968   7.837  17.609  0.00  0.00    +0.000 A 
ATOM     35  C   UNL     1       3.656   6.664  17.952  0.00  0.00    +0.000 A 
BRANCH  30  39
ATOM     36  N   UNL     1       3.686   3.398  17.689  0.00  0.00    +0.000 NA
ATOM     37  C   UNL     1       4.238   3.682  18.814  0.00  0.00    +0.000 C 
ATOM     38  N   UNL     1       5.068   2.792  19.413  0.00  0.00    +0.000 N 
ATOM     39  N   UNL     1       4.071   4.815  19.547  0.00  0.00    +0.000 N 
ATOM     40  H   UNL     1       3.987   2.481  17.367  0.00  0.00    +0.000 HD
ATOM     41  H   UNL     1       5.026   1.852  19.039  0.00  0.00    +0.000 HD
ATOM     42  H   UNL     1       5.041   2.780  20.425  0.00  0.00    +0.000 HD
ATOM     43  H   UNL     1       4.613   4.898  20.393  0.00  0.00    +0.000 HD
ENDBRANCH  30  39
ENDBRANCH  28  33
ENDBRANCH  27  28
ENDBRANCH   1  27
TORSDOF 10
ENDMDL
MODEL 5
REMARK VINA RESULT:      -8.2      3.999      6.185
REMARK  Name = 
REMARK  10 active torsions:
REMARK  status: ('A' for Active; 'I' for Inactive)
REMARK    1  A    between atoms: N_4  and  C_5
REMARK    2  A    between atoms: C_8  and  C_9
REMARK    3  A    between atoms: C_9  and  O_11
REMARK    4  A    between atoms: O_11  and  C_12
REMARK    5  A    between atoms: C_17  and  C_18
REMARK    6  A    between atoms: N_20  and  C_21
REMARK    7  A    between atoms: C_21  and  C_22
REMARK    8  A    between atoms: C_21  and  C_26
REMARK    9  A    between atoms: C_22  and  C_23
REMARK   10  A    between atoms: C_23  and  O_25
REMARK                            x       y       z     vdW  Elec       q    Type
REMARK                         _______ _______ _______ _____ _____    ______ ____
ROOT
ATOM      1  C   UNL     1       2.213   7.376  19.722  0.00  0.00    +0.000 A 
ATOM      2  C   UNL     1       1.520   7.313  20.924  0.00  0.00    +0.000 A 
ATOM      3  C   UNL     1       0.775   8.419  21.332  0.00  0.00    +0.000 A 
ATOM      4  C   UNL     1       0.648   9.522  20.510  0.00  0.00    +0.000 A 
ATOM      5  N   UNL     1       0.335  10.742  21.001  0.00  0.00    +0.000 NA
ATOM      6  C   UNL     1       0.233  11.745  20.089  0.00  0.00    +0.000 A 
ATOM      7  C   UNL     1      -0.116  11.491  18.777  0.00  0.00    +0.000 A 
ATOM      8  C   UNL     1       0.433  10.322  18.269  0.00  0.00    +0.000 A 
ATOM      9  C   UNL     1       0.968   9.376  19.152  0.00  0.00    +0.000 A 
ATOM     10  C   UNL     1       1.854   8.340  18.782  0.00  0.00    +0.000 A 
ENDROOT
BRANCH   6  11
ATOM     11  C   UNL     1       1.425  12.706  20.089  0.00  0.00    +0.000 C 
ATOM     12  O   UNL     1       2.126  12.851  21.084  0.00  0.00    +0.000 OA
ATOM     13  N   UNL     1       1.554  13.517  18.963  0.00  0.00    +0.000 N 
ATOM     14  H   UNL     1       0.863  13.365  18.230  0.00  0.00    +0.000 HD
BRANCH  13  15
ATOM     15  C   UNL     1       2.243  14.827  19.043  0.00  0.00    +0.000 C 
BRANCH  15  16
ATOM     16  C   UNL     1       1.428  15.993  18.459  0.00  0.00    +0.000 A 
ATOM     17  C   UNL     1       0.038  16.089  18.657  0.00  0.00    +0.000 A 
ATOM     18  C   UNL     1      -0.701  17.158  18.134  0.00  0.00    +0.000 A 
ATOM     19  C   UNL     1      -0.067  18.180  17.438  0.00  0.00    +0.000 A 
ATOM     20  C   UNL     1       1.310  18.141  17.272  0.00  0.00    +0.000 A 
ATOM     21  C   UNL     1       2.048  17.063  17.786  0.00  0.00    +0.000 A 
ENDBRANCH  15  16
BRANCH  15  22
ATOM     22  C   UNL     1       3.668  14.692  18.490  0.00  0.00    +0.000 C 
BRANCH  22  23
ATOM     23  C   UNL     1       4.710  14.956  19.544  0.00  0.00    +0.000 C 
ATOM     24  O   UNL     1       5.840  15.351  19.298  0.00  0.00    +0.000 OA
BRANCH  23  25
ATOM     25  O   UNL     1       4.268  14.773  20.808  0.00  0.00    +0.000 OA
ATOM     26  H   UNL     1       3.288  14.777  20.851  0.00  0.00    +0.000 HD
ENDBRANCH  23  25
ENDBRANCH  22  23
ENDBRANCH  15  22
ENDBRANCH  13  15
ENDBRANCH   6  11
BRANCH   1  27
ATOM     27  O   UNL     1       3.289   6.514  19.416  0.00  0.00    +0.000 OA
BRANCH  27  28
ATOM     28  C   UNL     1       3.062   5.414  18.583  0.00  0.00    +0.000 C 
ATOM     29  O   UNL     1       2.237   4.525  18.743  0.00  0.00    +0.000 OA
BRANCH  28  33
ATOM     30  C   UNL     1       5.882   5.228  15.312  0.00  0.00    +0.000 A 
ATOM     31  C   UNL     1       5.419   4.079  15.955  0.00  0.00    +0.000 A 
ATOM     32  C   UNL     1       4.488   4.147  16.996  0.00  0.00    +0.000 A 
ATOM     33  C   UNL     1       3.993   5.389  17.426  0.00  0.00    +0.000 A 
ATOM     34  C   UNL     1       4.435   6.550  16.789  0.00  0.00    +0.000 A 
ATOM     35  C   UNL     1       5.356   6.467  15.735  0.00  0.00    +0.000 A 
BRANCH  30  39
ATOM     36  N   UNL     1       5.869   3.305  12.977  0.00  0.00    +0.000 NA
ATOM     37  C   UNL     1       6.691   4.278  13.152  0.00  0.00    +0.000 C 
ATOM     38  N   UNL     1       7.628   4.559  12.213  0.00  0.00    +0.000 N 
ATOM     39  N   UNL     1       6.772   5.099  14.232  0.00  0.00    +0.000 N 
ATOM     40  H   UNL     1       6.035   2.857  12.080  0.00  0.00    +0.000 HD
ATOM     41  H   UNL     1       7.769   3.832  11.522  0.00  0.00    +0.000 HD
ATOM     42  H   UNL     1       8.515   4.898  12.566  0.00  0.00    +0.000 HD
ATOM     43  H   UNL     1       7.451   5.844  14.193  0.00  0.00    +0.000 HD
ENDBRANCH  30  39
ENDBRANCH  28  33
ENDBRANCH  27  28
ENDBRANCH   1  27
TORSDOF 10
ENDMDL
MODEL 6
REMARK VINA RESULT:      -8.2      1.692      2.245
REMARK  Name = 
REMARK  10 active torsions:
REMARK  status: ('A' for Active; 'I' for Inactive)
REMARK    1  A    between atoms: N_4  and  C_5
REMARK    2  A    between atoms: C_8  and  C_9
REMARK    3  A    between atoms: C_9  and  O_11
REMARK    4  A    between atoms: O_11  and  C_12
REMARK    5  A    between atoms: C_17  and  C_18
REMARK    6  A    between atoms: N_20  and  C_21
REMARK    7  A    between atoms: C_21  and  C_22
REMARK    8  A    between atoms: C_21  and  C_26
REMARK    9  A    between atoms: C_22  and  C_23
REMARK   10  A    between atoms: C_23  and  O_25
REMARK                            x       y       z     vdW  Elec       q    Type
REMARK                         _______ _______ _______ _____ _____    ______ ____
ROOT
ATOM      1  C   UNL     1       1.086   9.712  19.589  0.00  0.00    +0.000 A 
ATOM      2  C   UNL     1       1.606  10.890  19.072  0.00  0.00    +0.000 A 
ATOM      3  C   UNL     1       1.079  12.107  19.503  0.00  0.00    +0.000 A 
ATOM      4  C   UNL     1       0.122  12.144  20.499  0.00  0.00    +0.000 A 
ATOM      5  N   UNL     1      -0.715  13.196  20.642  0.00  0.00    +0.000 NA
ATOM      6  C   UNL     1      -1.608  13.115  21.663  0.00  0.00    +0.000 A 
ATOM      7  C   UNL     1      -1.338  12.373  22.797  0.00  0.00    +0.000 A 
ATOM      8  C   UNL     1      -0.667  11.186  22.541  0.00  0.00    +0.000 A 
ATOM      9  C   UNL     1      -0.046  11.004  21.299  0.00  0.00    +0.000 A 
ATOM     10  C   UNL     1       0.354   9.755  20.775  0.00  0.00    +0.000 A 
ENDROOT
BRANCH   6  11
ATOM     11  C   UNL     1      -3.038  12.798  21.215  0.00  0.00    +0.000 C 
ATOM     12  O   UNL     1      -3.859  12.328  21.994  0.00  0.00    +0.000 OA
ATOM     13  N   UNL     1      -3.289  12.916  19.849  0.00  0.00    +0.000 N 
ATOM     14  H   UNL     1      -2.505  13.238  19.285  0.00  0.00    +0.000 HD
BRANCH  13  15
ATOM     15  C   UNL     1      -4.368  12.131  19.204  0.00  0.00    +0.000 C 
BRANCH  15  16
ATOM     16  C   UNL     1      -3.902  11.326  17.979  0.00  0.00    +0.000 A 
ATOM     17  C   UNL     1      -4.487  11.511  16.713  0.00  0.00    +0.000 A 
ATOM     18  C   UNL     1      -4.053  10.785  15.595  0.00  0.00    +0.000 A 
ATOM     19  C   UNL     1      -2.998   9.888  15.704  0.00  0.00    +0.000 A 
ATOM     20  C   UNL     1      -2.365   9.723  16.928  0.00  0.00    +0.000 A 
ATOM     21  C   UNL     1      -2.809  10.443  18.049  0.00  0.00    +0.000 A 
ENDBRANCH  15  16
BRANCH  15  22
ATOM     22  C   UNL     1      -5.584  13.035  18.960  0.00  0.00    +0.000 C 
BRANCH  22  23
ATOM     23  C   UNL     1      -6.804  12.551  19.698  0.00  0.00    +0.000 C 
ATOM     24  O   UNL     1      -7.122  12.938  20.812  0.00  0.00    +0.000 OA
BRANCH  23  25
ATOM     25  O   UNL     1      -7.562  11.684  18.990  0.00  0.00    +0.000 OA
ATOM     26  H   UNL     1      -8.113  11.125  19.578  0.00  0.00    +0.000 HD
ENDBRANCH  23  25
ENDBRANCH  22  23
ENDBRANCH  15  22
ENDBRANCH  13  15
ENDBRANCH   6  11
BRANCH   1  27
ATOM     27  O   UNL     1       1.245   8.462  18.949  0.00  0.00    +0.000 OA
BRANCH  27  28
ATOM     28  C   UNL     1       2.275   8.303  18.016  0.00  0.00    +0.000 C 
ATOM     29  O   UNL     1       2.737   9.160  17.275  0.00  0.00    +0.000 OA
BRANCH  28  33
ATOM     30  C   UNL     1       3.653   4.207  18.045  0.00  0.00    +0.000 A 
ATOM     31  C   UNL     1       2.330   4.544  18.337  0.00  0.00    +0.000 A 
ATOM     32  C   UNL     1       1.887   5.869  18.302  0.00  0.00    +0.000 A 
ATOM     33  C   UNL     1       2.775   6.905  17.969  0.00  0.00    +0.000 A 
ATOM     34  C   UNL     1       4.100   6.589  17.663  0.00  0.00    +0.000 A 
ATOM     35  C   UNL     1       4.527   5.254  17.686  0.00  0.00    +0.000 A 
BRANCH  30  39
ATOM     36  N   UNL     1       4.077   2.275  20.334  0.00  0.00    +0.000 NA
ATOM     37  C   UNL     1       4.131   1.989  19.082  0.00  0.00    +0.000 C 
ATOM     38  N   UNL     1       4.337   0.709  18.681  0.00  0.00    +0.000 N 
ATOM     39  N   UNL     1       4.031   2.853  18.038  0.00  0.00    +0.000 N 
ATOM     40  H   UNL     1       4.185   1.434  20.896  0.00  0.00    +0.000 HD
ATOM     41  H   UNL     1       4.663   0.084  19.408  0.00  0.00    +0.000 HD
ATOM     42  H   UNL     1       4.881   0.597  17.836  0.00  0.00    +0.000 HD
ATOM     43  H   UNL     1       4.053   2.457  17.111  0.00  0.00    +0.000 HD
ENDBRANCH  30  39
ENDBRANCH  28  33
ENDBRANCH  27  28
ENDBRANCH   1  27
TORSDOF 10
ENDMDL
MODEL 7
REMARK VINA RESULT:      -8.1      2.381      3.804
REMARK  Name = 
REMARK  10 active torsions:
REMARK  status: ('A' for Active; 'I' for Inactive)
REMARK    1  A    between atoms: N_4  and  C_5
REMARK    2  A    between atoms: C_8  and  C_9
REMARK    3  A    between atoms: C_9  and  O_11
REMARK    4  A    between atoms: O_11  and  C_12
REMARK    5  A    between atoms: C_17  and  C_18
REMARK    6  A    between atoms: N_20  and  C_21
REMARK    7  A    between atoms: C_21  and  C_22
REMARK    8  A    between atoms: C_21  and  C_26
REMARK    9  A    between atoms: C_22  and  C_23
REMARK   10  A    between atoms: C_23  and  O_25
REMARK                            x       y       z     vdW  Elec       q    Type
REMARK                         _______ _______ _______ _____ _____    ______ ____
ROOT
ATOM      1  C   UNL     1       1.764   7.386  20.231  0.00  0.00    +0.000 A 
ATOM      2  C   UNL     1       2.285   7.577  18.959  0.00  0.00    +0.000 A 
ATOM      3  C   UNL     1       1.900   8.704  18.234  0.00  0.00    +0.000 A 
ATOM      4  C   UNL     1       1.090   9.665  18.808  0.00  0.00    +0.000 A 
ATOM      5  N   UNL     1       0.349  10.511  18.058  0.00  0.00    +0.000 NA
ATOM      6  C   UNL     1      -0.401  11.415  18.741  0.00  0.00    +0.000 A 
ATOM      7  C   UNL     1      -0.029  11.855  19.996  0.00  0.00    +0.000 A 
ATOM      8  C   UNL     1       0.523  10.865  20.796  0.00  0.00    +0.000 A 
ATOM      9  C   UNL     1       0.959   9.672  20.205  0.00  0.00    +0.000 A 
ATOM     10  C   UNL     1       1.203   8.470  20.905  0.00  0.00    +0.000 A 
ENDROOT
BRANCH   6  11
ATOM     11  C   UNL     1      -1.896  11.081  18.775  0.00  0.00    +0.000 C 
ATOM     12  O   UNL     1      -2.296   9.995  19.178  0.00  0.00    +0.000 OA
ATOM     13  N   UNL     1      -2.741  12.009  18.171  0.00  0.00    +0.000 N 
ATOM     14  H   UNL     1      -2.287  12.840  17.797  0.00  0.00    +0.000 HD
BRANCH  13  15
ATOM     15  C   UNL     1      -4.055  11.597  17.621  0.00  0.00    +0.000 C 
BRANCH  15  16
ATOM     16  C   UNL     1      -5.171  11.515  18.676  0.00  0.00    +0.000 A 
ATOM     17  C   UNL     1      -5.277  12.466  19.708  0.00  0.00    +0.000 A 
ATOM     18  C   UNL     1      -6.301  12.397  20.662  0.00  0.00    +0.000 A 
ATOM     19  C   UNL     1      -7.268  11.403  20.586  0.00  0.00    +0.000 A 
ATOM     20  C   UNL     1      -7.221  10.482  19.549  0.00  0.00    +0.000 A 
ATOM     21  C   UNL     1      -6.188  10.546  18.601  0.00  0.00    +0.000 A 
ENDBRANCH  15  16
BRANCH  15  22
ATOM     22  C   UNL     1      -3.879  10.336  16.765  0.00  0.00    +0.000 C 
BRANCH  22  23
ATOM     23  C   UNL     1      -3.408  10.660  15.372  0.00  0.00    +0.000 C 
ATOM     24  O   UNL     1      -3.856  10.136  14.364  0.00  0.00    +0.000 OA
BRANCH  23  25
ATOM     25  O   UNL     1      -2.475  11.637  15.325  0.00  0.00    +0.000 OA
ATOM     26  H   UNL     1      -2.022  11.745  16.188  0.00  0.00    +0.000 HD
ENDBRANCH  23  25
ENDBRANCH  22  23
ENDBRANCH  15  22
ENDBRANCH  13  15
ENDBRANCH   6  11
BRANCH   1  27
ATOM     27  O   UNL     1       1.755   6.127  20.871  0.00  0.00    +0.000 OA
BRANCH  27  28
ATOM     28  C   UNL     1       1.697   4.968  20.090  0.00  0.00    +0.000 C 
ATOM     29  O   UNL     1       0.809   4.126  20.084  0.00  0.00    +0.000 OA
BRANCH  28  33
ATOM     30  C   UNL     1       5.126   4.355  17.531  0.00  0.00    +0.000 A 
ATOM     31  C   UNL     1       3.819   4.266  17.049  0.00  0.00    +0.000 A 
ATOM     32  C   UNL     1       2.715   4.490  17.879  0.00  0.00    +0.000 A 
ATOM     33  C   UNL     1       2.900   4.812  19.233  0.00  0.00    +0.000 A 
ATOM     34  C   UNL     1       4.200   4.917  19.732  0.00  0.00    +0.000 A 
ATOM     35  C   UNL     1       5.297   4.706  18.886  0.00  0.00    +0.000 A 
BRANCH  30  39
ATOM     36  N   UNL     1       5.976   5.993  15.134  0.00  0.00    +0.000 NA
ATOM     37  C   UNL     1       6.604   4.982  15.621  0.00  0.00    +0.000 C 
ATOM     38  N   UNL     1       7.793   4.596  15.095  0.00  0.00    +0.000 N 
ATOM     39  N   UNL     1       6.199   4.178  16.640  0.00  0.00    +0.000 N 
ATOM     40  H   UNL     1       6.509   6.409  14.374  0.00  0.00    +0.000 HD
ATOM     41  H   UNL     1       8.009   4.999  14.192  0.00  0.00    +0.000 HD
ATOM     42  H   UNL     1       7.971   3.600  15.098  0.00  0.00    +0.000 HD
ATOM     43  H   UNL     1       6.833   3.449  16.929  0.00  0.00    +0.000 HD
ENDBRANCH  30  39
ENDBRANCH  28  33
ENDBRANCH  27  28
ENDBRANCH   1  27
TORSDOF 10
ENDMDL
MODEL 8
REMARK VINA RESULT:      -8.1      2.367      3.968
REMARK  Name = 
REMARK  10 active torsions:
REMARK  status: ('A' for Active; 'I' for Inactive)
REMARK    1  A    between atoms: N_4  and  C_5
REMARK    2  A    between atoms: C_8  and  C_9
REMARK    3  A    between atoms: C_9  and  O_11
REMARK    4  A    between atoms: O_11  and  C_12
REMARK    5  A    between atoms: C_17  and  C_18
REMARK    6  A    between atoms: N_20  and  C_21
REMARK    7  A    between atoms: C_21  and  C_22
REMARK    8  A    between atoms: C_21  and  C_26
REMARK    9  A    between atoms: C_22  and  C_23
REMARK   10  A    between atoms: C_23  and  O_25
REMARK                            x       y       z     vdW  Elec       q    Type
REMARK                         _______ _______ _______ _____ _____    ______ ____
ROOT
ATOM      1  C   UNL     1       0.526  10.766  20.334  0.00  0.00    +0.000 A 
ATOM      2  C   UNL     1       1.103  11.387  19.234  0.00  0.00    +0.000 A 
ATOM      3  C   UNL     1       0.891  12.751  19.040  0.00  0.00    +0.000 A 
ATOM      4  C   UNL     1       0.201  13.494  19.977  0.00  0.00    +0.000 A 
ATOM      5  N   UNL     1      -0.401  14.661  19.657  0.00  0.00    +0.000 NA
ATOM      6  C   UNL     1      -1.043  15.301  20.670  0.00  0.00    +0.000 A 
ATOM      7  C   UNL     1      -0.650  15.141  21.984  0.00  0.00    +0.000 A 
ATOM      8  C   UNL     1      -0.256  13.847  22.297  0.00  0.00    +0.000 A 
ATOM      9  C   UNL     1       0.033  12.951  21.260  0.00  0.00    +0.000 A 
ATOM     10  C   UNL     1       0.096  11.547  21.405  0.00  0.00    +0.000 A 
ENDROOT
BRANCH   6  11
ATOM     11  C   UNL     1      -2.569  15.184  20.609  0.00  0.00    +0.000 C 
ATOM     12  O   UNL     1      -3.293  16.026  21.127  0.00  0.00    +0.000 OA
ATOM     13  N   UNL     1      -3.069  13.992  20.087  0.00  0.00    +0.000 N 
ATOM     14  H   UNL     1      -2.370  13.328  19.760  0.00  0.00    +0.000 HD
BRANCH  13  15
ATOM     15  C   UNL     1      -4.410  13.495  20.475  0.00  0.00    +0.000 C 
BRANCH  15  16
ATOM     16  C   UNL     1      -4.513  13.079  21.952  0.00  0.00    +0.000 A 
ATOM     17  C   UNL     1      -3.421  12.508  22.632  0.00  0.00    +0.000 A 
ATOM     18  C   UNL     1      -3.513  12.140  23.981  0.00  0.00    +0.000 A 
ATOM     19  C   UNL     1      -4.681  12.371  24.697  0.00  0.00    +0.000 A 
ATOM     20  C   UNL     1      -5.758  12.982  24.068  0.00  0.00    +0.000 A 
ATOM     21  C   UNL     1      -5.668  13.339  22.713  0.00  0.00    +0.000 A 
ENDBRANCH  15  16
BRANCH  15  22
ATOM     22  C   UNL     1      -4.874  12.434  19.470  0.00  0.00    +0.000 C 
BRANCH  22  23
ATOM     23  C   UNL     1      -3.739  11.923  18.623  0.00  0.00    +0.000 C 
ATOM     24  O   UNL     1      -2.733  11.401  19.079  0.00  0.00    +0.000 OA
BRANCH  23  25
ATOM     25  O   UNL     1      -3.954  12.037  17.293  0.00  0.00    +0.000 OA
ATOM     26  H   UNL     1      -4.206  12.953  17.046  0.00  0.00    +0.000 HD
ENDBRANCH  23  25
ENDBRANCH  22  23
ENDBRANCH  15  22
ENDBRANCH  13  15
ENDBRANCH   6  11
BRANCH   1  27
ATOM     27  O   UNL     1       0.333   9.369  20.407  0.00  0.00    +0.000 OA
BRANCH  27  28
ATOM     28  C   UNL     1       1.273   8.588  21.087  0.00  0.00    +0.000 C 
ATOM     29  O   UNL     1       1.727   8.787  22.206  0.00  0.00    +0.000 OA
BRANCH  28  33
ATOM     30  C   UNL     1       2.711   5.171  18.864  0.00  0.00    +0.000 A 
ATOM     31  C   UNL     1       2.105   5.038  20.114  0.00  0.00    +0.000 A 
ATOM     32  C   UNL     1       1.621   6.146  20.816  0.00  0.00    +0.000 A 
ATOM     33  C   UNL     1       1.736   7.436  20.272  0.00  0.00    +0.000 A 
ATOM     34  C   UNL     1       2.328   7.590  19.017  0.00  0.00    +0.000 A 
ATOM     35  C   UNL     1       2.796   6.469  18.317  0.00  0.00    +0.000 A 
BRANCH  30  39
ATOM     36  N   UNL     1       5.169   3.447  19.231  0.00  0.00    +0.000 NA
ATOM     37  C   UNL     1       4.197   3.217  18.422  0.00  0.00    +0.000 C 
ATOM     38  N   UNL     1       4.181   2.084  17.676  0.00  0.00    +0.000 N 
ATOM     39  N   UNL     1       3.127   4.018  18.176  0.00  0.00    +0.000 N 
ATOM     40  H   UNL     1       5.835   2.678  19.213  0.00  0.00    +0.000 HD
ATOM     41  H   UNL     1       5.062   1.588  17.638  0.00  0.00    +0.000 HD
ATOM     42  H   UNL     1       3.775   2.173  16.752  0.00  0.00    +0.000 HD
ATOM     43  H   UNL     1       2.428   3.668  17.539  0.00  0.00    +0.000 HD
ENDBRANCH  30  39
ENDBRANCH  28  33
ENDBRANCH  27  28
ENDBRANCH   1  27
TORSDOF 10
ENDMDL
MODEL 9
REMARK VINA RESULT:      -8.1      2.547      3.191
REMARK  Name = 
REMARK  10 active torsions:
REMARK  status: ('A' for Active; 'I' for Inactive)
REMARK    1  A    between atoms: N_4  and  C_5
REMARK    2  A    between atoms: C_8  and  C_9
REMARK    3  A    between atoms: C_9  and  O_11
REMARK    4  A    between atoms: O_11  and  C_12
REMARK    5  A    between atoms: C_17  and  C_18
REMARK    6  A    between atoms: N_20  and  C_21
REMARK    7  A    between atoms: C_21  and  C_22
REMARK    8  A    between atoms: C_21  and  C_26
REMARK    9  A    between atoms: C_22  and  C_23
REMARK   10  A    between atoms: C_23  and  O_25
REMARK                            x       y       z     vdW  Elec       q    Type
REMARK                         _______ _______ _______ _____ _____    ______ ____
ROOT
ATOM      1  C   UNL     1       0.201  11.108  19.353  0.00  0.00    +0.000 A 
ATOM      2  C   UNL     1       0.565  12.431  19.146  0.00  0.00    +0.000 A 
ATOM      3  C   UNL     1       0.015  13.418  19.963  0.00  0.00    +0.000 A 
ATOM      4  C   UNL     1      -0.802  13.077  21.023  0.00  0.00    +0.000 A 
ATOM      5  N   UNL     1      -1.685  13.953  21.551  0.00  0.00    +0.000 NA
ATOM      6  C   UNL     1      -2.427  13.499  22.595  0.00  0.00    +0.000 A 
ATOM      7  C   UNL     1      -1.959  12.504  23.431  0.00  0.00    +0.000 A 
ATOM      8  C   UNL     1      -1.246  11.512  22.774  0.00  0.00    +0.000 A 
ATOM      9  C   UNL     1      -0.783  11.748  21.473  0.00  0.00    +0.000 A 
ATOM     10  C   UNL     1      -0.369  10.743  20.572  0.00  0.00    +0.000 A 
ENDROOT
BRANCH   6  11
ATOM     11  C   UNL     1      -3.878  13.171  22.229  0.00  0.00    +0.000 C 
ATOM     12  O   UNL     1      -4.538  12.379  22.891  0.00  0.00    +0.000 OA
ATOM     13  N   UNL     1      -4.334  13.690  21.018  0.00  0.00    +0.000 N 
ATOM     14  H   UNL     1      -3.668  14.270  20.511  0.00  0.00    +0.000 HD
BRANCH  13  15
ATOM     15  C   UNL     1      -5.431  13.030  20.272  0.00  0.00    +0.000 C 
BRANCH  15  16
ATOM     16  C   UNL     1      -4.968  12.322  18.987  0.00  0.00    +0.000 A 
ATOM     17  C   UNL     1      -5.787  12.266  17.844  0.00  0.00    +0.000 A 
ATOM     18  C   UNL     1      -5.360  11.631  16.670  0.00  0.00    +0.000 A 
ATOM     19  C   UNL     1      -4.090  11.073  16.593  0.00  0.00    +0.000 A 
ATOM     20  C   UNL     1      -3.239  11.158  17.687  0.00  0.00    +0.000 A 
ATOM     21  C   UNL     1      -3.673  11.785  18.866  0.00  0.00    +0.000 A 
ENDBRANCH  15  16
BRANCH  15  22
ATOM     22  C   UNL     1      -6.591  14.016  20.087  0.00  0.00    +0.000 C 
BRANCH  22  23
ATOM     23  C   UNL     1      -6.167  15.440  20.329  0.00  0.00    +0.000 C 
ATOM     24  O   UNL     1      -5.676  16.158  19.472  0.00  0.00    +0.000 OA
BRANCH  23  25
ATOM     25  O   UNL     1      -6.432  15.883  21.578  0.00  0.00    +0.000 OA
ATOM     26  H   UNL     1      -7.189  15.404  21.978  0.00  0.00    +0.000 HD
ENDBRANCH  23  25
ENDBRANCH  22  23
ENDBRANCH  15  22
ENDBRANCH  13  15
ENDBRANCH   6  11
BRANCH   1  27
ATOM     27  O   UNL     1       0.362  10.109  18.367  0.00  0.00    +0.000 OA
BRANCH  27  28
ATOM     28  C   UNL     1       1.637   9.581  18.137  0.00  0.00    +0.000 C 
ATOM     29  O   UNL     1       2.515  10.055  17.429  0.00  0.00    +0.000 OA
BRANCH  28  33
ATOM     30  C   UNL     1       2.314   5.918  20.329  0.00  0.00    +0.000 A 
ATOM     31  C   UNL     1       1.728   7.036  20.923  0.00  0.00    +0.000 A 
ATOM     32  C   UNL     1       1.490   8.210  20.200  0.00  0.00    +0.000 A 
ATOM     33  C   UNL     1       1.842   8.290  18.843  0.00  0.00    +0.000 A 
ATOM     34  C   UNL     1       2.419   7.178  18.226  0.00  0.00    +0.000 A 
ATOM     35  C   UNL     1       2.638   6.003  18.958  0.00  0.00    +0.000 A 
BRANCH  30  39
ATOM     36  N   UNL     1       0.605   3.426  20.478  0.00  0.00    +0.000 NA
ATOM     37  C   UNL     1       1.733   3.606  21.067  0.00  0.00    +0.000 C 
ATOM     38  N   UNL     1       2.294   2.606  21.791  0.00  0.00    +0.000 N 
ATOM     39  N   UNL     1       2.476   4.744  21.086  0.00  0.00    +0.000 N 
ATOM     40  H   UNL     1       0.272   2.478  20.632  0.00  0.00    +0.000 HD
ATOM     41  H   UNL     1       1.671   1.839  22.011  0.00  0.00    +0.000 HD
ATOM     42  H   UNL     1       2.813   2.896  22.610  0.00  0.00    +0.000 HD
ATOM     43  H   UNL     1       3.364   4.705  21.563  0.00  0.00    +0.000 HD
ENDBRANCH  30  39
ENDBRANCH  28  33
ENDBRANCH  27  28
ENDBRANCH   1  27
TORSDOF 10
ENDMDL
