MODEL 1
REMARK VINA RESULT:      -6.8      0.000      0.000
REMARK  Name = 
REMARK  11 active torsions:
REMARK  status: ('A' for Active; 'I' for Inactive)
REMARK    1  A    between atoms: C_1  and  O_2
REMARK    2  A    between atoms: O_2  and  C_3
REMARK    3  A    between atoms: C_7  and  O_8
REMARK    4  A    between atoms: O_8  and  C_9
REMARK    5  A    between atoms: C_10  and  C_11
REMARK    6  A    between atoms: C_13  and  C_14
REMARK    7  A    between atoms: N_17  and  C_18
REMARK    8  A    between atoms: C_18  and  C_19
REMARK    9  A    between atoms: C_22  and  O_23
REMARK   10  A    between atoms: O_23  and  C_24
REMARK   11  A    between atoms: C_24  and  C_25
REMARK                            x       y       z     vdW  Elec       q    Type
REMARK                         _______ _______ _______ _____ _____    ______ ____
ROOT
ATOM      1  C   UNL     1      -0.970  12.448  19.102  0.00  0.00    +0.000 C 
ATOM      2  C   UNL     1      -0.532  13.897  18.908  0.00  0.00    +0.000 C 
ATOM      3  C   UNL     1       0.903  13.900  19.438  0.00  0.00    +0.000 C 
ATOM      4  C   UNL     1       1.943  13.747  18.335  0.00  0.00    +0.000 C 
ATOM      5  C   UNL     1       0.947  12.701  20.373  0.00  0.00    +0.000 C 
ATOM      6  O   UNL     1       1.944  12.384  21.004  0.00  0.00    +0.000 OA
ATOM      7  N   UNL     1      -0.272  12.015  20.302  0.00  0.00    +0.000 N 
ENDROOT
BRANCH   1  13
ATOM      8  C   UNL     1      -2.997  11.454  17.950  0.00  0.00    +0.000 A 
ATOM      9  C   UNL     1      -4.357  11.123  17.872  0.00  0.00    +0.000 A 
ATOM     10  C   UNL     1      -5.241  11.596  18.824  0.00  0.00    +0.000 A 
ATOM     11  C   UNL     1      -4.756  12.375  19.863  0.00  0.00    +0.000 A 
ATOM     12  C   UNL     1      -3.386  12.677  20.005  0.00  0.00    +0.000 A 
ATOM     13  C   UNL     1      -2.464  12.201  19.044  0.00  0.00    +0.000 A 
BRANCH   8  15
ATOM     14  C   UNL     1      -2.719  10.854  15.680  0.00  0.00    +0.000 C 
ATOM     15  O   UNL     1      -2.125  11.041  16.965  0.00  0.00    +0.000 OA
ENDBRANCH   8  15
BRANCH  12  16
ATOM     16  O   UNL     1      -3.241  13.441  21.128  0.00  0.00    +0.000 OA
ATOM     17  C   UNL     1      -3.405  14.840  21.185  0.00  0.00    +0.000 C 
ENDBRANCH  12  16
ENDBRANCH   1  13
BRANCH   7  18
ATOM     18  C   UNL     1      -0.415  10.631  20.738  0.00  0.00    +0.000 C 
BRANCH  18  19
ATOM     19  C   UNL     1       0.534   9.624  20.141  0.00  0.00    +0.000 A 
ATOM     20  C   UNL     1       1.069   8.596  20.923  0.00  0.00    +0.000 A 
ATOM     21  C   UNL     1       1.891   7.622  20.351  0.00  0.00    +0.000 A 
ATOM     22  C   UNL     1       2.200   7.657  18.989  0.00  0.00    +0.000 A 
ATOM     23  C   UNL     1       1.696   8.697  18.208  0.00  0.00    +0.000 A 
ATOM     24  C   UNL     1       0.868   9.672  18.780  0.00  0.00    +0.000 A 
BRANCH  22  25
ATOM     25  O   UNL     1       2.978   6.736  18.331  0.00  0.00    +0.000 OA
BRANCH  25  26
ATOM     26  C   UNL     1       3.142   5.482  19.005  0.00  0.00    +0.000 C 
BRANCH  26  27
ATOM     27  C   UNL     1       2.106   4.465  18.562  0.00  0.00    +0.000 C 
ATOM     28  F   UNL     1       1.164   4.346  19.538  0.00  0.00    +0.000 F 
ATOM     29  F   UNL     1       1.450   4.911  17.459  0.00  0.00    +0.000 F 
ENDBRANCH  26  27
ENDBRANCH  25  26
ENDBRANCH  22  25
ENDBRANCH  18  19
ENDBRANCH   7  18
TORSDOF 8
ENDMDL
MODEL 2
REMARK VINA RESULT:      -6.7      0.606      1.136
REMARK  Name = 
REMARK  11 active torsions:
REMARK  status: ('A' for Active; 'I' for Inactive)
REMARK    1  A    between atoms: C_1  and  O_2
REMARK    2  A    between atoms: O_2  and  C_3
REMARK    3  A    between atoms: C_7  and  O_8
REMARK    4  A    between atoms: O_8  and  C_9
REMARK    5  A    between atoms: C_10  and  C_11
REMARK    6  A    between atoms: C_13  and  C_14
REMARK    7  A    between atoms: N_17  and  C_18
REMARK    8  A    between atoms: C_18  and  C_19
REMARK    9  A    between atoms: C_22  and  O_23
REMARK   10  A    between atoms: O_23  and  C_24
REMARK   11  A    between atoms: C_24  and  C_25
REMARK                            x       y       z     vdW  Elec       q    Type
REMARK                         _______ _______ _______ _____ _____    ______ ____
ROOT
ATOM      1  C   UNL     1      -0.927  12.229  18.932  0.00  0.00    +0.000 C 
ATOM      2  C   UNL     1      -0.428  13.643  18.647  0.00  0.00    +0.000 C 
ATOM      3  C   UNL     1       0.982  13.640  19.237  0.00  0.00    +0.000 C 
ATOM      4  C   UNL     1       2.061  13.368  18.196  0.00  0.00    +0.000 C 
ATOM      5  C   UNL     1       0.945  12.516  20.263  0.00  0.00    +0.000 C 
ATOM      6  O   UNL     1       1.903  12.217  20.958  0.00  0.00    +0.000 OA
ATOM      7  N   UNL     1      -0.295  11.868  20.191  0.00  0.00    +0.000 N 
ENDROOT
BRANCH   1  13
ATOM      8  C   UNL     1      -2.949  11.319  17.704  0.00  0.00    +0.000 A 
ATOM      9  C   UNL     1      -4.315  11.031  17.583  0.00  0.00    +0.000 A 
ATOM     10  C   UNL     1      -5.211  11.511  18.519  0.00  0.00    +0.000 A 
ATOM     11  C   UNL     1      -4.733  12.254  19.587  0.00  0.00    +0.000 A 
ATOM     12  C   UNL     1      -3.359  12.512  19.773  0.00  0.00    +0.000 A 
ATOM     13  C   UNL     1      -2.425  12.028  18.828  0.00  0.00    +0.000 A 
BRANCH   8  15
ATOM     14  C   UNL     1      -2.670  10.363  15.560  0.00  0.00    +0.000 C 
ATOM     15  O   UNL     1      -2.062  10.900  16.735  0.00  0.00    +0.000 OA
ENDBRANCH   8  15
BRANCH  12  16
ATOM     16  O   UNL     1      -3.224  13.249  20.915  0.00  0.00    +0.000 OA
ATOM     17  C   UNL     1      -3.261  14.657  20.983  0.00  0.00    +0.000 C 
ENDBRANCH  12  16
ENDBRANCH   1  13
BRANCH   7  18
ATOM     18  C   UNL     1      -0.505  10.528  20.724  0.00  0.00    +0.000 C 
BRANCH  18  19
ATOM     19  C   UNL     1       0.434   9.447  20.253  0.00  0.00    +0.000 A 
ATOM     20  C   UNL     1       0.957   9.472  18.958  0.00  0.00    +0.000 A 
ATOM     21  C   UNL     1       1.884   8.510  18.545  0.00  0.00    +0.000 A 
ATOM     22  C   UNL     1       2.302   7.502  19.418  0.00  0.00    +0.000 A 
ATOM     23  C   UNL     1       1.761   7.452  20.702  0.00  0.00    +0.000 A 
ATOM     24  C   UNL     1       0.836   8.418  21.117  0.00  0.00    +0.000 A 
BRANCH  22  25
ATOM     25  O   UNL     1       3.222   6.528  19.116  0.00  0.00    +0.000 OA
BRANCH  25  26
ATOM     26  C   UNL     1       3.086   5.942  17.816  0.00  0.00    +0.000 C 
BRANCH  26  27
ATOM     27  C   UNL     1       2.346   4.618  17.869  0.00  0.00    +0.000 C 
ATOM     28  F   UNL     1       1.109   4.785  17.325  0.00  0.00    +0.000 F 
ATOM     29  F   UNL     1       2.975   3.695  17.096  0.00  0.00    +0.000 F 
ENDBRANCH  26  27
ENDBRANCH  25  26
ENDBRANCH  22  25
ENDBRANCH  18  19
ENDBRANCH   7  18
TORSDOF 8
ENDMDL
MODEL 3
REMARK VINA RESULT:      -6.6      0.665      2.688
REMARK  Name = 
REMARK  11 active torsions:
REMARK  status: ('A' for Active; 'I' for Inactive)
REMARK    1  A    between atoms: C_1  and  O_2
REMARK    2  A    between atoms: O_2  and  C_3
REMARK    3  A    between atoms: C_7  and  O_8
REMARK    4  A    between atoms: O_8  and  C_9
REMARK    5  A    between atoms: C_10  and  C_11
REMARK    6  A    between atoms: C_13  and  C_14
REMARK    7  A    between atoms: N_17  and  C_18
REMARK    8  A    between atoms: C_18  and  C_19
REMARK    9  A    between atoms: C_22  and  O_23
REMARK   10  A    between atoms: O_23  and  C_24
REMARK   11  A    between atoms: C_24  and  C_25
REMARK                            x       y       z     vdW  Elec       q    Type
REMARK                         _______ _______ _______ _____ _____    ______ ____
ROOT
ATOM      1  C   UNL     1      -0.771  12.218  18.753  0.00  0.00    +0.000 C 
ATOM      2  C   UNL     1      -0.398  13.685  18.556  0.00  0.00    +0.000 C 
ATOM      3  C   UNL     1       0.981  13.784  19.211  0.00  0.00    +0.000 C 
ATOM      4  C   UNL     1       2.123  13.665  18.210  0.00  0.00    +0.000 C 
ATOM      5  C   UNL     1       1.006  12.613  20.182  0.00  0.00    +0.000 C 
ATOM      6  O   UNL     1       1.958  12.370  20.908  0.00  0.00    +0.000 OA
ATOM      7  N   UNL     1      -0.162  11.857  20.023  0.00  0.00    +0.000 N 
ENDROOT
BRANCH   1  13
ATOM      8  C   UNL     1      -3.183  12.392  19.513  0.00  0.00    +0.000 A 
ATOM      9  C   UNL     1      -4.561  12.187  19.362  0.00  0.00    +0.000 A 
ATOM     10  C   UNL     1      -5.037  11.401  18.329  0.00  0.00    +0.000 A 
ATOM     11  C   UNL     1      -4.133  10.848  17.436  0.00  0.00    +0.000 A 
ATOM     12  C   UNL     1      -2.745  11.082  17.521  0.00  0.00    +0.000 A 
ATOM     13  C   UNL     1      -2.238  11.884  18.570  0.00  0.00    +0.000 A 
BRANCH   8  15
ATOM     14  C   UNL     1      -3.679  13.914  21.253  0.00  0.00    +0.000 C 
ATOM     15  O   UNL     1      -2.701  13.118  20.582  0.00  0.00    +0.000 OA
ENDBRANCH   8  15
BRANCH  12  16
ATOM     16  O   UNL     1      -2.144  10.412  16.495  0.00  0.00    +0.000 OA
ATOM     17  C   UNL     1      -2.764  10.066  15.276  0.00  0.00    +0.000 C 
ENDBRANCH  12  16
ENDBRANCH   1  13
BRANCH   7  18
ATOM     18  C   UNL     1      -0.266  10.478  20.485  0.00  0.00    +0.000 C 
BRANCH  18  19
ATOM     19  C   UNL     1       0.634   9.464  19.826  0.00  0.00    +0.000 A 
ATOM     20  C   UNL     1       0.959   9.573  18.472  0.00  0.00    +0.000 A 
ATOM     21  C   UNL     1       1.851   8.674  17.879  0.00  0.00    +0.000 A 
ATOM     22  C   UNL     1       2.430   7.646  18.627  0.00  0.00    +0.000 A 
ATOM     23  C   UNL     1       2.086   7.511  19.972  0.00  0.00    +0.000 A 
ATOM     24  C   UNL     1       1.196   8.415  20.567  0.00  0.00    +0.000 A 
BRANCH  22  25
ATOM     25  O   UNL     1       3.332   6.729  18.145  0.00  0.00    +0.000 OA
BRANCH  25  26
ATOM     26  C   UNL     1       3.315   5.454  18.799  0.00  0.00    +0.000 C 
BRANCH  26  27
ATOM     27  C   UNL     1       2.697   4.380  17.923  0.00  0.00    +0.000 C 
ATOM     28  F   UNL     1       1.486   4.819  17.481  0.00  0.00    +0.000 F 
ATOM     29  F   UNL     1       3.455   4.184  16.813  0.00  0.00    +0.000 F 
ENDBRANCH  26  27
ENDBRANCH  25  26
ENDBRANCH  22  25
ENDBRANCH  18  19
ENDBRANCH   7  18
TORSDOF 8
ENDMDL
MODEL 4
REMARK VINA RESULT:      -6.5      6.714      9.910
REMARK  Name = 
REMARK  11 active torsions:
REMARK  status: ('A' for Active; 'I' for Inactive)
REMARK    1  A    between atoms: C_1  and  O_2
REMARK    2  A    between atoms: O_2  and  C_3
REMARK    3  A    between atoms: C_7  and  O_8
REMARK    4  A    between atoms: O_8  and  C_9
REMARK    5  A    between atoms: C_10  and  C_11
REMARK    6  A    between atoms: C_13  and  C_14
REMARK    7  A    between atoms: N_17  and  C_18
REMARK    8  A    between atoms: C_18  and  C_19
REMARK    9  A    between atoms: C_22  and  O_23
REMARK   10  A    between atoms: O_23  and  C_24
REMARK   11  A    between atoms: C_24  and  C_25
REMARK                            x       y       z     vdW  Elec       q    Type
REMARK                         _______ _______ _______ _____ _____    ______ ____
ROOT
ATOM      1  C   UNL     1       5.090   4.605  16.919  0.00  0.00    +0.000 C 
ATOM      2  C   UNL     1       4.423   4.530  15.548  0.00  0.00    +0.000 C 
ATOM      3  C   UNL     1       5.600   4.664  14.581  0.00  0.00    +0.000 C 
ATOM      4  C   UNL     1       6.112   3.320  14.078  0.00  0.00    +0.000 C 
ATOM      5  C   UNL     1       6.672   5.360  15.408  0.00  0.00    +0.000 C 
ATOM      6  O   UNL     1       7.770   5.654  14.962  0.00  0.00    +0.000 OA
ATOM      7  N   UNL     1       6.218   5.502  16.725  0.00  0.00    +0.000 N 
ENDROOT
BRANCH   1  13
ATOM      8  C   UNL     1       3.856   3.847  18.999  0.00  0.00    +0.000 A 
ATOM      9  C   UNL     1       3.070   4.066  20.139  0.00  0.00    +0.000 A 
ATOM     10  C   UNL     1       2.497   5.304  20.358  0.00  0.00    +0.000 A 
ATOM     11  C   UNL     1       2.734   6.325  19.450  0.00  0.00    +0.000 A 
ATOM     12  C   UNL     1       3.568   6.157  18.325  0.00  0.00    +0.000 A 
ATOM     13  C   UNL     1       4.166   4.898  18.083  0.00  0.00    +0.000 A 
BRANCH   8  15
ATOM     14  C   UNL     1       3.400   1.604  18.406  0.00  0.00    +0.000 C 
ATOM     15  O   UNL     1       4.373   2.595  18.742  0.00  0.00    +0.000 OA
ENDBRANCH   8  15
BRANCH  12  16
ATOM     16  O   UNL     1       3.603   7.343  17.651  0.00  0.00    +0.000 OA
ATOM     17  C   UNL     1       2.616   8.348  17.720  0.00  0.00    +0.000 C 
ENDBRANCH  12  16
ENDBRANCH   1  13
BRANCH   7  18
ATOM     18  C   UNL     1       7.126   5.741  17.840  0.00  0.00    +0.000 C 
BRANCH  18  19
ATOM     19  C   UNL     1       7.589   7.160  18.055  0.00  0.00    +0.000 A 
ATOM     20  C   UNL     1       8.543   7.459  19.030  0.00  0.00    +0.000 A 
ATOM     21  C   UNL     1       9.024   8.763  19.180  0.00  0.00    +0.000 A 
ATOM     22  C   UNL     1       8.556   9.794  18.361  0.00  0.00    +0.000 A 
ATOM     23  C   UNL     1       7.580   9.510  17.406  0.00  0.00    +0.000 A 
ATOM     24  C   UNL     1       7.102   8.202  17.253  0.00  0.00    +0.000 A 
BRANCH  22  25
ATOM     25  O   UNL     1       8.980  11.099  18.414  0.00  0.00    +0.000 OA
BRANCH  25  26
ATOM     26  C   UNL     1      10.060  11.354  19.320  0.00  0.00    +0.000 C 
BRANCH  26  27
ATOM     27  C   UNL     1      11.174  12.147  18.661  0.00  0.00    +0.000 C 
ATOM     28  F   UNL     1      11.887  11.314  17.854  0.00  0.00    +0.000 F 
ATOM     29  F   UNL     1      10.653  13.104  17.849  0.00  0.00    +0.000 F 
ENDBRANCH  26  27
ENDBRANCH  25  26
ENDBRANCH  22  25
ENDBRANCH  18  19
ENDBRANCH   7  18
TORSDOF 8
ENDMDL
MODEL 5
REMARK VINA RESULT:      -6.4      3.725      8.953
REMARK  Name = 
REMARK  11 active torsions:
REMARK  status: ('A' for Active; 'I' for Inactive)
REMARK    1  A    between atoms: C_1  and  O_2
REMARK    2  A    between atoms: O_2  and  C_3
REMARK    3  A    between atoms: C_7  and  O_8
REMARK    4  A    between atoms: O_8  and  C_9
REMARK    5  A    between atoms: C_10  and  C_11
REMARK    6  A    between atoms: C_13  and  C_14
REMARK    7  A    between atoms: N_17  and  C_18
REMARK    8  A    between atoms: C_18  and  C_19
REMARK    9  A    between atoms: C_22  and  O_23
REMARK   10  A    between atoms: O_23  and  C_24
REMARK   11  A    between atoms: C_24  and  C_25
REMARK                            x       y       z     vdW  Elec       q    Type
REMARK                         _______ _______ _______ _____ _____    ______ ____
ROOT
ATOM      1  C   UNL     1       4.169   4.071  18.427  0.00  0.00    +0.000 C 
ATOM      2  C   UNL     1       4.217   3.285  17.119  0.00  0.00    +0.000 C 
ATOM      3  C   UNL     1       4.933   4.241  16.165  0.00  0.00    +0.000 C 
ATOM      4  C   UNL     1       6.425   3.955  16.047  0.00  0.00    +0.000 C 
ATOM      5  C   UNL     1       4.706   5.612  16.786  0.00  0.00    +0.000 C 
ATOM      6  O   UNL     1       5.127   6.646  16.290  0.00  0.00    +0.000 OA
ATOM      7  N   UNL     1       4.046   5.459  18.011  0.00  0.00    +0.000 N 
ENDROOT
BRANCH   1  13
ATOM      8  C   UNL     1       3.660   2.763  20.538  0.00  0.00    +0.000 A 
ATOM      9  C   UNL     1       2.816   2.328  21.568  0.00  0.00    +0.000 A 
ATOM     10  C   UNL     1       1.461   2.598  21.516  0.00  0.00    +0.000 A 
ATOM     11  C   UNL     1       0.963   3.326  20.446  0.00  0.00    +0.000 A 
ATOM     12  C   UNL     1       1.792   3.831  19.423  0.00  0.00    +0.000 A 
ATOM     13  C   UNL     1       3.181   3.567  19.459  0.00  0.00    +0.000 A 
BRANCH   8  15
ATOM     14  C   UNL     1       5.276   1.056  20.791  0.00  0.00    +0.000 C 
ATOM     15  O   UNL     1       5.000   2.437  20.553  0.00  0.00    +0.000 OA
ENDBRANCH   8  15
BRANCH  12  16
ATOM     16  O   UNL     1       1.000   4.507  18.539  0.00  0.00    +0.000 OA
ATOM     17  C   UNL     1       0.906   4.234  17.159  0.00  0.00    +0.000 C 
ENDBRANCH  12  16
ENDBRANCH   1  13
BRANCH   7  18
ATOM     18  C   UNL     1       4.046   6.500  19.032  0.00  0.00    +0.000 C 
BRANCH  18  19
ATOM     19  C   UNL     1       2.872   7.445  19.047  0.00  0.00    +0.000 A 
ATOM     20  C   UNL     1       2.091   7.594  20.196  0.00  0.00    +0.000 A 
ATOM     21  C   UNL     1       1.046   8.522  20.232  0.00  0.00    +0.000 A 
ATOM     22  C   UNL     1       0.759   9.316  19.118  0.00  0.00    +0.000 A 
ATOM     23  C   UNL     1       1.513   9.151  17.957  0.00  0.00    +0.000 A 
ATOM     24  C   UNL     1       2.563   8.224  17.922  0.00  0.00    +0.000 A 
BRANCH  22  25
ATOM     25  O   UNL     1      -0.228  10.269  19.061  0.00  0.00    +0.000 OA
BRANCH  25  26
ATOM     26  C   UNL     1      -1.016  10.261  17.864  0.00  0.00    +0.000 C 
BRANCH  26  27
ATOM     27  C   UNL     1      -1.914  11.481  17.773  0.00  0.00    +0.000 C 
ATOM     28  F   UNL     1      -1.134  12.589  17.634  0.00  0.00    +0.000 F 
ATOM     29  F   UNL     1      -2.682  11.419  16.654  0.00  0.00    +0.000 F 
ENDBRANCH  26  27
ENDBRANCH  25  26
ENDBRANCH  22  25
ENDBRANCH  18  19
ENDBRANCH   7  18
TORSDOF 8
ENDMDL
MODEL 6
REMARK VINA RESULT:      -6.4      1.025      2.656
REMARK  Name = 
REMARK  11 active torsions:
REMARK  status: ('A' for Active; 'I' for Inactive)
REMARK    1  A    between atoms: C_1  and  O_2
REMARK    2  A    between atoms: O_2  and  C_3
REMARK    3  A    between atoms: C_7  and  O_8
REMARK    4  A    between atoms: O_8  and  C_9
REMARK    5  A    between atoms: C_10  and  C_11
REMARK    6  A    between atoms: C_13  and  C_14
REMARK    7  A    between atoms: N_17  and  C_18
REMARK    8  A    between atoms: C_18  and  C_19
REMARK    9  A    between atoms: C_22  and  O_23
REMARK   10  A    between atoms: O_23  and  C_24
REMARK   11  A    between atoms: C_24  and  C_25
REMARK                            x       y       z     vdW  Elec       q    Type
REMARK                         _______ _______ _______ _____ _____    ______ ____
ROOT
ATOM      1  C   UNL     1      -0.823  12.219  18.745  0.00  0.00    +0.000 C 
ATOM      2  C   UNL     1      -0.437  13.686  18.567  0.00  0.00    +0.000 C 
ATOM      3  C   UNL     1       0.940  13.765  19.228  0.00  0.00    +0.000 C 
ATOM      4  C   UNL     1       2.085  13.649  18.230  0.00  0.00    +0.000 C 
ATOM      5  C   UNL     1       0.953  12.582  20.185  0.00  0.00    +0.000 C 
ATOM      6  O   UNL     1       1.900  12.323  20.911  0.00  0.00    +0.000 OA
ATOM      7  N   UNL     1      -0.221  11.838  20.012  0.00  0.00    +0.000 N 
ENDROOT
BRANCH   1  13
ATOM      8  C   UNL     1      -3.236  12.405  19.497  0.00  0.00    +0.000 A 
ATOM      9  C   UNL     1      -4.615  12.213  19.339  0.00  0.00    +0.000 A 
ATOM     10  C   UNL     1      -5.093  11.442  18.296  0.00  0.00    +0.000 A 
ATOM     11  C   UNL     1      -4.190  10.890  17.400  0.00  0.00    +0.000 A 
ATOM     12  C   UNL     1      -2.801  11.112  17.494  0.00  0.00    +0.000 A 
ATOM     13  C   UNL     1      -2.291  11.899  18.553  0.00  0.00    +0.000 A 
BRANCH   8  15
ATOM     14  C   UNL     1      -3.286  12.721  21.839  0.00  0.00    +0.000 C 
ATOM     15  O   UNL     1      -2.753  13.116  20.575  0.00  0.00    +0.000 OA
ENDBRANCH   8  15
BRANCH  12  16
ATOM     16  O   UNL     1      -2.201  10.447  16.463  0.00  0.00    +0.000 OA
ATOM     17  C   UNL     1      -2.778  10.223  15.196  0.00  0.00    +0.000 C 
ENDBRANCH  12  16
ENDBRANCH   1  13
BRANCH   7  18
ATOM     18  C   UNL     1      -0.338  10.454  20.458  0.00  0.00    +0.000 C 
BRANCH  18  19
ATOM     19  C   UNL     1       0.650   9.466  19.892  0.00  0.00    +0.000 A 
ATOM     20  C   UNL     1       1.175   8.446  20.690  0.00  0.00    +0.000 A 
ATOM     21  C   UNL     1       2.036   7.488  20.146  0.00  0.00    +0.000 A 
ATOM     22  C   UNL     1       2.392   7.534  18.795  0.00  0.00    +0.000 A 
ATOM     23  C   UNL     1       1.898   8.568  18.000  0.00  0.00    +0.000 A 
ATOM     24  C   UNL     1       1.031   9.525  18.544  0.00  0.00    +0.000 A 
BRANCH  22  25
ATOM     25  O   UNL     1       3.210   6.630  18.163  0.00  0.00    +0.000 OA
BRANCH  25  26
ATOM     26  C   UNL     1       3.901   5.722  19.029  0.00  0.00    +0.000 C 
BRANCH  26  27
ATOM     27  C   UNL     1       3.543   4.278  18.732  0.00  0.00    +0.000 C 
ATOM     28  F   UNL     1       4.488   3.754  17.903  0.00  0.00    +0.000 F 
ATOM     29  F   UNL     1       3.589   3.537  19.870  0.00  0.00    +0.000 F 
ENDBRANCH  26  27
ENDBRANCH  25  26
ENDBRANCH  22  25
ENDBRANCH  18  19
ENDBRANCH   7  18
TORSDOF 8
ENDMDL
MODEL 7
REMARK VINA RESULT:      -6.4      1.057      1.172
REMARK  Name = 
REMARK  11 active torsions:
REMARK  status: ('A' for Active; 'I' for Inactive)
REMARK    1  A    between atoms: C_1  and  O_2
REMARK    2  A    between atoms: O_2  and  C_3
REMARK    3  A    between atoms: C_7  and  O_8
REMARK    4  A    between atoms: O_8  and  C_9
REMARK    5  A    between atoms: C_10  and  C_11
REMARK    6  A    between atoms: C_13  and  C_14
REMARK    7  A    between atoms: N_17  and  C_18
REMARK    8  A    between atoms: C_18  and  C_19
REMARK    9  A    between atoms: C_22  and  O_23
REMARK   10  A    between atoms: O_23  and  C_24
REMARK   11  A    between atoms: C_24  and  C_25
REMARK                            x       y       z     vdW  Elec       q    Type
REMARK                         _______ _______ _______ _____ _____    ______ ____
ROOT
ATOM      1  C   UNL     1      -0.941  12.407  19.046  0.00  0.00    +0.000 C 
ATOM      2  C   UNL     1      -0.495  13.851  18.830  0.00  0.00    +0.000 C 
ATOM      3  C   UNL     1       0.928  13.862  19.390  0.00  0.00    +0.000 C 
ATOM      4  C   UNL     1       1.991  13.684  18.314  0.00  0.00    +0.000 C 
ATOM      5  C   UNL     1       0.949  12.684  20.353  0.00  0.00    +0.000 C 
ATOM      6  O   UNL     1       1.932  12.379  21.011  0.00  0.00    +0.000 OA
ATOM      7  N   UNL     1      -0.270  12.000  20.270  0.00  0.00    +0.000 N 
ENDROOT
BRANCH   1  13
ATOM      8  C   UNL     1      -2.946  11.398  17.869  0.00  0.00    +0.000 A 
ATOM      9  C   UNL     1      -4.305  11.069  17.769  0.00  0.00    +0.000 A 
ATOM     10  C   UNL     1      -5.207  11.559  18.694  0.00  0.00    +0.000 A 
ATOM     11  C   UNL     1      -4.741  12.354  19.730  0.00  0.00    +0.000 A 
ATOM     12  C   UNL     1      -3.374  12.655  19.896  0.00  0.00    +0.000 A 
ATOM     13  C   UNL     1      -2.434  12.162  18.962  0.00  0.00    +0.000 A 
BRANCH   8  15
ATOM     14  C   UNL     1      -2.656  10.509  15.698  0.00  0.00    +0.000 C 
ATOM     15  O   UNL     1      -2.055  10.967  16.910  0.00  0.00    +0.000 OA
ENDBRANCH   8  15
BRANCH  12  16
ATOM     16  O   UNL     1      -3.251  13.438  21.008  0.00  0.00    +0.000 OA
ATOM     17  C   UNL     1      -4.225  14.343  21.478  0.00  0.00    +0.000 C 
ENDBRANCH  12  16
ENDBRANCH   1  13
BRANCH   7  18
ATOM     18  C   UNL     1      -0.425  10.626  20.733  0.00  0.00    +0.000 C 
BRANCH  18  19
ATOM     19  C   UNL     1       0.538   9.605  20.184  0.00  0.00    +0.000 A 
ATOM     20  C   UNL     1       0.992   8.551  20.981  0.00  0.00    +0.000 A 
ATOM     21  C   UNL     1       1.828   7.565  20.449  0.00  0.00    +0.000 A 
ATOM     22  C   UNL     1       2.231   7.616  19.112  0.00  0.00    +0.000 A 
ATOM     23  C   UNL     1       1.808   8.682  18.319  0.00  0.00    +0.000 A 
ATOM     24  C   UNL     1       0.966   9.668  18.850  0.00  0.00    +0.000 A 
BRANCH  22  25
ATOM     25  O   UNL     1       3.030   6.687  18.492  0.00  0.00    +0.000 OA
BRANCH  25  26
ATOM     26  C   UNL     1       2.877   5.341  18.960  0.00  0.00    +0.000 C 
BRANCH  26  27
ATOM     27  C   UNL     1       4.215   4.705  19.289  0.00  0.00    +0.000 C 
ATOM     28  F   UNL     1       4.711   4.120  18.163  0.00  0.00    +0.000 F 
ATOM     29  F   UNL     1       5.115   5.657  19.645  0.00  0.00    +0.000 F 
ENDBRANCH  26  27
ENDBRANCH  25  26
ENDBRANCH  22  25
ENDBRANCH  18  19
ENDBRANCH   7  18
TORSDOF 8
ENDMDL
MODEL 8
REMARK VINA RESULT:      -6.4      3.800      8.983
REMARK  Name = 
REMARK  11 active torsions:
REMARK  status: ('A' for Active; 'I' for Inactive)
REMARK    1  A    between atoms: C_1  and  O_2
REMARK    2  A    between atoms: O_2  and  C_3
REMARK    3  A    between atoms: C_7  and  O_8
REMARK    4  A    between atoms: O_8  and  C_9
REMARK    5  A    between atoms: C_10  and  C_11
REMARK    6  A    between atoms: C_13  and  C_14
REMARK    7  A    between atoms: N_17  and  C_18
REMARK    8  A    between atoms: C_18  and  C_19
REMARK    9  A    between atoms: C_22  and  O_23
REMARK   10  A    between atoms: O_23  and  C_24
REMARK   11  A    between atoms: C_24  and  C_25
REMARK                            x       y       z     vdW  Elec       q    Type
REMARK                         _______ _______ _______ _____ _____    ______ ____
ROOT
ATOM      1  C   UNL     1       4.228   4.048  18.325  0.00  0.00    +0.000 C 
ATOM      2  C   UNL     1       4.253   3.248  17.025  0.00  0.00    +0.000 C 
ATOM      3  C   UNL     1       4.954   4.194  16.048  0.00  0.00    +0.000 C 
ATOM      4  C   UNL     1       6.443   3.906  15.908  0.00  0.00    +0.000 C 
ATOM      5  C   UNL     1       4.738   5.571  16.658  0.00  0.00    +0.000 C 
ATOM      6  O   UNL     1       5.150   6.599  16.144  0.00  0.00    +0.000 OA
ATOM      7  N   UNL     1       4.098   5.431  17.896  0.00  0.00    +0.000 N 
ENDROOT
BRANCH   1  13
ATOM      8  C   UNL     1       3.742   2.707  20.420  0.00  0.00    +0.000 A 
ATOM      9  C   UNL     1       2.917   2.278  21.469  0.00  0.00    +0.000 A 
ATOM     10  C   UNL     1       1.573   2.600  21.471  0.00  0.00    +0.000 A 
ATOM     11  C   UNL     1       1.067   3.373  20.437  0.00  0.00    +0.000 A 
ATOM     12  C   UNL     1       1.879   3.872  19.399  0.00  0.00    +0.000 A 
ATOM     13  C   UNL     1       3.257   3.556  19.379  0.00  0.00    +0.000 A 
BRANCH   8  15
ATOM     14  C   UNL     1       5.357   1.092  21.030  0.00  0.00    +0.000 C 
ATOM     15  O   UNL     1       5.068   2.330  20.380  0.00  0.00    +0.000 OA
ENDBRANCH   8  15
BRANCH  12  16
ATOM     16  O   UNL     1       1.084   4.600  18.560  0.00  0.00    +0.000 OA
ATOM     17  C   UNL     1       0.870   4.319  17.195  0.00  0.00    +0.000 C 
ENDBRANCH  12  16
ENDBRANCH   1  13
BRANCH   7  18
ATOM     18  C   UNL     1       4.115   6.484  18.905  0.00  0.00    +0.000 C 
BRANCH  18  19
ATOM     19  C   UNL     1       2.947   7.436  18.923  0.00  0.00    +0.000 A 
ATOM     20  C   UNL     1       2.150   7.567  20.063  0.00  0.00    +0.000 A 
ATOM     21  C   UNL     1       1.111   8.501  20.102  0.00  0.00    +0.000 A 
ATOM     22  C   UNL     1       0.845   9.319  19.001  0.00  0.00    +0.000 A 
ATOM     23  C   UNL     1       1.615   9.172  17.848  0.00  0.00    +0.000 A 
ATOM     24  C   UNL     1       2.660   8.239  17.810  0.00  0.00    +0.000 A 
BRANCH  22  25
ATOM     25  O   UNL     1      -0.135  10.280  18.949  0.00  0.00    +0.000 OA
BRANCH  25  26
ATOM     26  C   UNL     1       0.321  11.627  19.126  0.00  0.00    +0.000 C 
BRANCH  26  27
ATOM     27  C   UNL     1      -0.068  12.179  20.485  0.00  0.00    +0.000 C 
ATOM     28  F   UNL     1      -1.373  11.875  20.724  0.00  0.00    +0.000 F 
ATOM     29  F   UNL     1       0.647  11.567  21.464  0.00  0.00    +0.000 F 
ENDBRANCH  26  27
ENDBRANCH  25  26
ENDBRANCH  22  25
ENDBRANCH  18  19
ENDBRANCH   7  18
TORSDOF 8
ENDMDL
MODEL 9
REMARK VINA RESULT:      -6.4      1.634      3.020
REMARK  Name = 
REMARK  11 active torsions:
REMARK  status: ('A' for Active; 'I' for Inactive)
REMARK    1  A    between atoms: C_1  and  O_2
REMARK    2  A    between atoms: O_2  and  C_3
REMARK    3  A    between atoms: C_7  and  O_8
REMARK    4  A    between atoms: O_8  and  C_9
REMARK    5  A    between atoms: C_10  and  C_11
REMARK    6  A    between atoms: C_13  and  C_14
REMARK    7  A    between atoms: N_17  and  C_18
REMARK    8  A    between atoms: C_18  and  C_19
REMARK    9  A    between atoms: C_22  and  O_23
REMARK   10  A    between atoms: O_23  and  C_24
REMARK   11  A    between atoms: C_24  and  C_25
REMARK                            x       y       z     vdW  Elec       q    Type
REMARK                         _______ _______ _______ _____ _____    ______ ____
ROOT
ATOM      1  C   UNL     1      -0.776  12.191  18.734  0.00  0.00    +0.000 C 
ATOM      2  C   UNL     1      -0.394  13.658  18.548  0.00  0.00    +0.000 C 
ATOM      3  C   UNL     1       0.984  13.744  19.204  0.00  0.00    +0.000 C 
ATOM      4  C   UNL     1       2.127  13.626  18.203  0.00  0.00    +0.000 C 
ATOM      5  C   UNL     1       1.003  12.565  20.166  0.00  0.00    +0.000 C 
ATOM      6  O   UNL     1       1.954  12.311  20.890  0.00  0.00    +0.000 OA
ATOM      7  N   UNL     1      -0.169  11.816  20.001  0.00  0.00    +0.000 N 
ENDROOT
BRANCH   1  13
ATOM      8  C   UNL     1      -3.186  12.367  19.498  0.00  0.00    +0.000 A 
ATOM      9  C   UNL     1      -4.565  12.171  19.346  0.00  0.00    +0.000 A 
ATOM     10  C   UNL     1      -5.046  11.401  18.303  0.00  0.00    +0.000 A 
ATOM     11  C   UNL     1      -4.145  10.854  17.402  0.00  0.00    +0.000 A 
ATOM     12  C   UNL     1      -2.756  11.080  17.490  0.00  0.00    +0.000 A 
ATOM     13  C   UNL     1      -2.244  11.867  18.548  0.00  0.00    +0.000 A 
BRANCH   8  15
ATOM     14  C   UNL     1      -3.220  12.672  21.842  0.00  0.00    +0.000 C 
ATOM     15  O   UNL     1      -2.700  13.078  20.575  0.00  0.00    +0.000 OA
ENDBRANCH   8  15
BRANCH  12  16
ATOM     16  O   UNL     1      -2.160  10.420  16.454  0.00  0.00    +0.000 OA
ATOM     17  C   UNL     1      -2.789  10.072  15.241  0.00  0.00    +0.000 C 
ENDBRANCH  12  16
ENDBRANCH   1  13
BRANCH   7  18
ATOM     18  C   UNL     1      -0.281  10.434  20.452  0.00  0.00    +0.000 C 
BRANCH  18  19
ATOM     19  C   UNL     1       0.688   9.440  19.863  0.00  0.00    +0.000 A 
ATOM     20  C   UNL     1       1.244   8.432  20.654  0.00  0.00    +0.000 A 
ATOM     21  C   UNL     1       2.085   7.468  20.091  0.00  0.00    +0.000 A 
ATOM     22  C   UNL     1       2.391   7.496  18.728  0.00  0.00    +0.000 A 
ATOM     23  C   UNL     1       1.865   8.519  17.938  0.00  0.00    +0.000 A 
ATOM     24  C   UNL     1       1.018   9.482  18.501  0.00  0.00    +0.000 A 
BRANCH  22  25
ATOM     25  O   UNL     1       3.186   6.585  18.077  0.00  0.00    +0.000 OA
BRANCH  25  26
ATOM     26  C   UNL     1       4.191   7.150  17.225  0.00  0.00    +0.000 C 
BRANCH  26  27
ATOM     27  C   UNL     1       5.537   6.478  17.421  0.00  0.00    +0.000 C 
ATOM     28  F   UNL     1       5.699   5.531  16.454  0.00  0.00    +0.000 F 
ATOM     29  F   UNL     1       6.542   7.374  17.241  0.00  0.00    +0.000 F 
ENDBRANCH  26  27
ENDBRANCH  25  26
ENDBRANCH  22  25
ENDBRANCH  18  19
ENDBRANCH   7  18
TORSDOF 8
ENDMDL
