MODEL 1
REMARK VINA RESULT:      -8.5      0.000      0.000
REMARK  Name = 
REMARK  9 active torsions:
REMARK  status: ('A' for Active; 'I' for Inactive)
REMARK    1  A    between atoms: C_1  and  O_2
REMARK    2  A    between atoms: O_2  and  C_3
REMARK    3  A    between atoms: C_6  and  C_7
REMARK    4  A    between atoms: C_7  and  C_8
REMARK    5  A    between atoms: C_8  and  N_9
REMARK    6  A    between atoms: C_8  and  C_10
REMARK    7  A    between atoms: C_10  and  N_11
REMARK    8  A    between atoms: N_11  and  C_12
REMARK    9  A    between atoms: C_14  and  C_15
REMARK                            x       y       z     vdW  Elec       q    Type
REMARK                         _______ _______ _______ _____ _____    ______ ____
ROOT
ATOM      1  C   UNL     1       4.396   5.750  17.325  0.00  0.00    +0.000 A 
ATOM      2  N   UNL     1       5.137   5.643  16.197  0.00  0.00    +0.000 NA
ATOM      3  C   UNL     1       5.346   4.444  15.631  0.00  0.00    +0.000 A 
ATOM      4  N   UNL     1       4.924   3.275  16.118  0.00  0.00    +0.000 NA
ATOM      5  C   UNL     1       4.204   3.398  17.243  0.00  0.00    +0.000 A 
ATOM      6  S   UNL     1       3.611   2.009  18.032  0.00  0.00    +0.000 S 
ATOM      7  C   UNL     1       2.840   2.944  19.221  0.00  0.00    +0.000 A 
ATOM      8  C   UNL     1       3.010   4.304  19.027  0.00  0.00    +0.000 A 
ATOM      9  C   UNL     1       3.860   4.577  17.889  0.00  0.00    +0.000 A 
ATOM     10  C   UNL     1       2.331   5.303  19.924  0.00  0.00    +0.000 C 
ATOM     11  C   UNL     1       1.901   4.676  21.258  0.00  0.00    +0.000 C 
ATOM     12  C   UNL     1       1.179   3.341  21.037  0.00  0.00    +0.000 C 
ATOM     13  C   UNL     1       2.093   2.313  20.355  0.00  0.00    +0.000 C 
ENDROOT
BRANCH   3  14
ATOM     14  C   UNL     1       6.076   4.432  14.350  0.00  0.00    +0.000 A 
ATOM     15  C   UNL     1       5.678   3.611  13.277  0.00  0.00    +0.000 A 
ATOM     16  C   UNL     1       6.403   3.633  12.093  0.00  0.00    +0.000 A 
ATOM     17  N   UNL     1       7.488   4.398  11.898  0.00  0.00    +0.000 NA
ATOM     18  C   UNL     1       7.874   5.179  12.930  0.00  0.00    +0.000 A 
ATOM     19  C   UNL     1       7.212   5.224  14.148  0.00  0.00    +0.000 A 
ENDBRANCH   3  14
BRANCH   1  20
ATOM     20  N   UNL     1       4.203   7.019  17.892  0.00  0.00    +0.000 N 
ATOM     21  H   UNL     1       4.052   6.925  18.892  0.00  0.00    +0.000 HD
BRANCH  20  22
ATOM     22  C   UNL     1       3.170   7.803  17.214  0.00  0.00    +0.000 C 
BRANCH  22  23
ATOM     23  C   UNL     1       2.547   8.850  18.168  0.00  0.00    +0.000 C 
BRANCH  23  24
ATOM     24  N   UNL     1       2.026  10.014  17.424  0.00  0.00    +0.000 NA
ATOM     25  H   UNL     1       2.765  10.710  17.326  0.00  0.00    +0.000 HD
ATOM     26  H   UNL     1       1.322  10.469  18.006  0.00  0.00    +0.000 HD
ENDBRANCH  23  24
BRANCH  23  27
ATOM     27  C   UNL     1       1.468   8.129  19.000  0.00  0.00    +0.000 C 
BRANCH  27  31
ATOM     28  C   UNL     1      -0.164  10.504  22.203  0.00  0.00    +0.000 A 
ATOM     29  C   UNL     1       0.693   9.441  22.490  0.00  0.00    +0.000 A 
ATOM     30  C   UNL     1       1.225   8.668  21.456  0.00  0.00    +0.000 A 
ATOM     31  C   UNL     1       0.890   8.943  20.126  0.00  0.00    +0.000 A 
ATOM     32  C   UNL     1       0.005   9.988  19.847  0.00  0.00    +0.000 A 
ATOM     33  C   UNL     1      -0.518  10.765  20.878  0.00  0.00    +0.000 A 
BRANCH  28  35
ATOM     34  C   UNL     1      -1.177  12.480  22.984  0.00  0.00    +0.000 C 
ATOM     35  O   UNL     1      -0.628  11.201  23.285  0.00  0.00    +0.000 OA
ENDBRANCH  28  35
ENDBRANCH  27  31
ENDBRANCH  23  27
ENDBRANCH  22  23
ENDBRANCH  20  22
ENDBRANCH   1  20
TORSDOF 8
ENDMDL
MODEL 2
REMARK VINA RESULT:      -7.9      1.099      1.496
REMARK  Name = 
REMARK  9 active torsions:
REMARK  status: ('A' for Active; 'I' for Inactive)
REMARK    1  A    between atoms: C_1  and  O_2
REMARK    2  A    between atoms: O_2  and  C_3
REMARK    3  A    between atoms: C_6  and  C_7
REMARK    4  A    between atoms: C_7  and  C_8
REMARK    5  A    between atoms: C_8  and  N_9
REMARK    6  A    between atoms: C_8  and  C_10
REMARK    7  A    between atoms: C_10  and  N_11
REMARK    8  A    between atoms: N_11  and  C_12
REMARK    9  A    between atoms: C_14  and  C_15
REMARK                            x       y       z     vdW  Elec       q    Type
REMARK                         _______ _______ _______ _____ _____    ______ ____
ROOT
ATOM      1  C   UNL     1       4.318   5.841  17.286  0.00  0.00    +0.000 A 
ATOM      2  N   UNL     1       5.072   5.721  16.168  0.00  0.00    +0.000 NA
ATOM      3  C   UNL     1       5.315   4.512  15.637  0.00  0.00    +0.000 A 
ATOM      4  N   UNL     1       4.917   3.347  16.153  0.00  0.00    +0.000 NA
ATOM      5  C   UNL     1       4.183   3.483  17.267  0.00  0.00    +0.000 A 
ATOM      6  S   UNL     1       3.615   2.102  18.088  0.00  0.00    +0.000 S 
ATOM      7  C   UNL     1       2.811   3.051  19.244  0.00  0.00    +0.000 A 
ATOM      8  C   UNL     1       2.951   4.409  19.015  0.00  0.00    +0.000 A 
ATOM      9  C   UNL     1       3.805   4.670  17.877  0.00  0.00    +0.000 A 
ATOM     10  C   UNL     1       2.240   5.415  19.877  0.00  0.00    +0.000 C 
ATOM     11  C   UNL     1       1.812   4.815  21.225  0.00  0.00    +0.000 C 
ATOM     12  C   UNL     1       1.123   3.457  21.034  0.00  0.00    +0.000 C 
ATOM     13  C   UNL     1       2.068   2.434  20.389  0.00  0.00    +0.000 C 
ENDROOT
BRANCH   3  14
ATOM     14  C   UNL     1       6.058   4.483  14.363  0.00  0.00    +0.000 A 
ATOM     15  C   UNL     1       5.667   3.651  13.297  0.00  0.00    +0.000 A 
ATOM     16  C   UNL     1       6.404   3.656  12.120  0.00  0.00    +0.000 A 
ATOM     17  N   UNL     1       7.493   4.415  11.926  0.00  0.00    +0.000 NA
ATOM     18  C   UNL     1       7.871   5.207  12.952  0.00  0.00    +0.000 A 
ATOM     19  C   UNL     1       7.198   5.268  14.163  0.00  0.00    +0.000 A 
ENDBRANCH   3  14
BRANCH   1  20
ATOM     20  N   UNL     1       4.089   7.120  17.816  0.00  0.00    +0.000 N 
ATOM     21  H   UNL     1       4.228   7.101  18.822  0.00  0.00    +0.000 HD
BRANCH  20  22
ATOM     22  C   UNL     1       2.803   7.690  17.413  0.00  0.00    +0.000 C 
BRANCH  22  23
ATOM     23  C   UNL     1       2.499   8.989  18.196  0.00  0.00    +0.000 C 
BRANCH  23  24
ATOM     24  N   UNL     1       2.238  10.120  17.282  0.00  0.00    +0.000 NA
ATOM     25  H   UNL     1       1.316  10.508  17.480  0.00  0.00    +0.000 HD
ATOM     26  H   UNL     1       2.161   9.747  16.335  0.00  0.00    +0.000 HD
ENDBRANCH  23  24
BRANCH  23  27
ATOM     27  C   UNL     1       1.319   8.689  19.143  0.00  0.00    +0.000 C 
BRANCH  27  31
ATOM     28  C   UNL     1      -1.160  12.071  20.133  0.00  0.00    +0.000 A 
ATOM     29  C   UNL     1      -1.501  11.246  19.061  0.00  0.00    +0.000 A 
ATOM     30  C   UNL     1      -0.703  10.148  18.736  0.00  0.00    +0.000 A 
ATOM     31  C   UNL     1       0.456   9.877  19.471  0.00  0.00    +0.000 A 
ATOM     32  C   UNL     1       0.811  10.726  20.523  0.00  0.00    +0.000 A 
ATOM     33  C   UNL     1       0.008  11.816  20.853  0.00  0.00    +0.000 A 
BRANCH  28  35
ATOM     34  C   UNL     1      -3.386  12.762  20.463  0.00  0.00    +0.000 C 
ATOM     35  O   UNL     1      -2.010  13.117  20.371  0.00  0.00    +0.000 OA
ENDBRANCH  28  35
ENDBRANCH  27  31
ENDBRANCH  23  27
ENDBRANCH  22  23
ENDBRANCH  20  22
ENDBRANCH   1  20
TORSDOF 8
ENDMDL
MODEL 3
REMARK VINA RESULT:      -7.9      4.096      7.395
REMARK  Name = 
REMARK  9 active torsions:
REMARK  status: ('A' for Active; 'I' for Inactive)
REMARK    1  A    between atoms: C_1  and  O_2
REMARK    2  A    between atoms: O_2  and  C_3
REMARK    3  A    between atoms: C_6  and  C_7
REMARK    4  A    between atoms: C_7  and  C_8
REMARK    5  A    between atoms: C_8  and  N_9
REMARK    6  A    between atoms: C_8  and  C_10
REMARK    7  A    between atoms: C_10  and  N_11
REMARK    8  A    between atoms: N_11  and  C_12
REMARK    9  A    between atoms: C_14  and  C_15
REMARK                            x       y       z     vdW  Elec       q    Type
REMARK                         _______ _______ _______ _____ _____    ______ ____
ROOT
ATOM      1  C   UNL     1       0.315   9.918  18.993  0.00  0.00    +0.000 A 
ATOM      2  N   UNL     1       1.182   8.928  18.680  0.00  0.00    +0.000 NA
ATOM      3  C   UNL     1       1.689   8.138  19.640  0.00  0.00    +0.000 A 
ATOM      4  N   UNL     1       1.460   8.267  20.949  0.00  0.00    +0.000 NA
ATOM      5  C   UNL     1       0.609   9.261  21.243  0.00  0.00    +0.000 A 
ATOM      6  S   UNL     1       0.223   9.602  22.867  0.00  0.00    +0.000 S 
ATOM      7  C   UNL     1      -0.847  10.839  22.413  0.00  0.00    +0.000 A 
ATOM      8  C   UNL     1      -0.933  10.997  21.040  0.00  0.00    +0.000 A 
ATOM      9  C   UNL     1      -0.034  10.101  20.345  0.00  0.00    +0.000 A 
ATOM     10  C   UNL     1      -1.894  11.983  20.435  0.00  0.00    +0.000 C 
ATOM     11  C   UNL     1      -2.335  13.050  21.448  0.00  0.00    +0.000 C 
ATOM     12  C   UNL     1      -2.745  12.413  22.782  0.00  0.00    +0.000 C 
ATOM     13  C   UNL     1      -1.573  11.663  23.431  0.00  0.00    +0.000 C 
ENDROOT
BRANCH   3  14
ATOM     14  C   UNL     1       2.544   7.020  19.199  0.00  0.00    +0.000 A 
ATOM     15  C   UNL     1       3.266   7.071  17.991  0.00  0.00    +0.000 A 
ATOM     16  C   UNL     1       4.053   5.990  17.618  0.00  0.00    +0.000 A 
ATOM     17  N   UNL     1       4.171   4.869  18.345  0.00  0.00    +0.000 NA
ATOM     18  C   UNL     1       3.472   4.817  19.499  0.00  0.00    +0.000 A 
ATOM     19  C   UNL     1       2.662   5.848  19.952  0.00  0.00    +0.000 A 
ENDBRANCH   3  14
BRANCH   1  20
ATOM     20  N   UNL     1      -0.192  10.728  17.965  0.00  0.00    +0.000 N 
ATOM     21  H   UNL     1      -0.467  11.628  18.345  0.00  0.00    +0.000 HD
BRANCH  20  22
ATOM     22  C   UNL     1      -1.241  10.076  17.181  0.00  0.00    +0.000 C 
BRANCH  22  23
ATOM     23  C   UNL     1      -2.505  10.964  17.093  0.00  0.00    +0.000 C 
BRANCH  23  24
ATOM     24  N   UNL     1      -2.711  11.473  15.721  0.00  0.00    +0.000 NA
ATOM     25  H   UNL     1      -2.310  12.407  15.644  0.00  0.00    +0.000 HD
ATOM     26  H   UNL     1      -3.713  11.613  15.586  0.00  0.00    +0.000 HD
ENDBRANCH  23  24
BRANCH  23  27
ATOM     27  C   UNL     1      -3.691  10.130  17.615  0.00  0.00    +0.000 C 
BRANCH  27  31
ATOM     28  C   UNL     1      -6.896  12.421  19.359  0.00  0.00    +0.000 A 
ATOM     29  C   UNL     1      -5.627  12.986  19.226  0.00  0.00    +0.000 A 
ATOM     30  C   UNL     1      -4.585  12.249  18.661  0.00  0.00    +0.000 A 
ATOM     31  C   UNL     1      -4.800  10.931  18.240  0.00  0.00    +0.000 A 
ATOM     32  C   UNL     1      -6.064  10.360  18.407  0.00  0.00    +0.000 A 
ATOM     33  C   UNL     1      -7.107  11.100  18.962  0.00  0.00    +0.000 A 
BRANCH  28  35
ATOM     34  C   UNL     1      -7.608  13.580  21.280  0.00  0.00    +0.000 C 
ATOM     35  O   UNL     1      -7.848  13.227  19.921  0.00  0.00    +0.000 OA
ENDBRANCH  28  35
ENDBRANCH  27  31
ENDBRANCH  23  27
ENDBRANCH  22  23
ENDBRANCH  20  22
ENDBRANCH   1  20
TORSDOF 8
ENDMDL
MODEL 4
REMARK VINA RESULT:      -7.9      1.731      2.056
REMARK  Name = 
REMARK  9 active torsions:
REMARK  status: ('A' for Active; 'I' for Inactive)
REMARK    1  A    between atoms: C_1  and  O_2
REMARK    2  A    between atoms: O_2  and  C_3
REMARK    3  A    between atoms: C_6  and  C_7
REMARK    4  A    between atoms: C_7  and  C_8
REMARK    5  A    between atoms: C_8  and  N_9
REMARK    6  A    between atoms: C_8  and  C_10
REMARK    7  A    between atoms: C_10  and  N_11
REMARK    8  A    between atoms: N_11  and  C_12
REMARK    9  A    between atoms: C_14  and  C_15
REMARK                            x       y       z     vdW  Elec       q    Type
REMARK                         _______ _______ _______ _____ _____    ______ ____
ROOT
ATOM      1  C   UNL     1       4.278   5.581  17.518  0.00  0.00    +0.000 A 
ATOM      2  N   UNL     1       5.030   5.529  16.395  0.00  0.00    +0.000 NA
ATOM      3  C   UNL     1       5.263   4.356  15.784  0.00  0.00    +0.000 A 
ATOM      4  N   UNL     1       4.855   3.163  16.221  0.00  0.00    +0.000 NA
ATOM      5  C   UNL     1       4.123   3.230  17.343  0.00  0.00    +0.000 A 
ATOM      6  S   UNL     1       3.544   1.803  18.071  0.00  0.00    +0.000 S 
ATOM      7  C   UNL     1       2.747   2.679  19.288  0.00  0.00    +0.000 A 
ATOM      8  C   UNL     1       2.899   4.048  19.149  0.00  0.00    +0.000 A 
ATOM      9  C   UNL     1       3.755   4.378  18.031  0.00  0.00    +0.000 A 
ATOM     10  C   UNL     1       2.196   5.000  20.077  0.00  0.00    +0.000 C 
ATOM     11  C   UNL     1       1.763   4.315  21.382  0.00  0.00    +0.000 C 
ATOM     12  C   UNL     1       1.064   2.979  21.102  0.00  0.00    +0.000 C 
ATOM     13  C   UNL     1       2.000   1.993  20.390  0.00  0.00    +0.000 C 
ENDROOT
BRANCH   3  14
ATOM     14  C   UNL     1       6.005   4.406  14.510  0.00  0.00    +0.000 A 
ATOM     15  C   UNL     1       5.641   3.607  13.409  0.00  0.00    +0.000 A 
ATOM     16  C   UNL     1       6.376   3.687  12.234  0.00  0.00    +0.000 A 
ATOM     17  N   UNL     1       7.439   4.490  12.073  0.00  0.00    +0.000 NA
ATOM     18  C   UNL     1       7.792   5.249  13.132  0.00  0.00    +0.000 A 
ATOM     19  C   UNL     1       7.118   5.236  14.344  0.00  0.00    +0.000 A 
ENDBRANCH   3  14
BRANCH   1  20
ATOM     20  N   UNL     1       4.059   6.823  18.133  0.00  0.00    +0.000 N 
ATOM     21  H   UNL     1       3.721   6.680  19.079  0.00  0.00    +0.000 HD
BRANCH  20  22
ATOM     22  C   UNL     1       3.218   7.720  17.339  0.00  0.00    +0.000 C 
BRANCH  22  23
ATOM     23  C   UNL     1       1.999   8.211  18.156  0.00  0.00    +0.000 C 
BRANCH  23  24
ATOM     24  N   UNL     1       2.164   7.922  19.596  0.00  0.00    +0.000 NA
ATOM     25  H   UNL     1       2.416   6.942  19.717  0.00  0.00    +0.000 HD
ATOM     26  H   UNL     1       1.249   8.007  20.039  0.00  0.00    +0.000 HD
ENDBRANCH  23  24
BRANCH  23  27
ATOM     27  C   UNL     1       1.818   9.712  17.855  0.00  0.00    +0.000 C 
BRANCH  27  31
ATOM     28  C   UNL     1      -2.021  11.344  18.932  0.00  0.00    +0.000 A 
ATOM     29  C   UNL     1      -0.854  11.890  19.470  0.00  0.00    +0.000 A 
ATOM     30  C   UNL     1       0.392  11.366  19.124  0.00  0.00    +0.000 A 
ATOM     31  C   UNL     1       0.481  10.278  18.249  0.00  0.00    +0.000 A 
ATOM     32  C   UNL     1      -0.692   9.714  17.739  0.00  0.00    +0.000 A 
ATOM     33  C   UNL     1      -1.935  10.244  18.077  0.00  0.00    +0.000 A 
BRANCH  28  35
ATOM     34  C   UNL     1      -4.255  11.847  18.390  0.00  0.00    +0.000 C 
ATOM     35  O   UNL     1      -3.190  11.931  19.331  0.00  0.00    +0.000 OA
ENDBRANCH  28  35
ENDBRANCH  27  31
ENDBRANCH  23  27
ENDBRANCH  22  23
ENDBRANCH  20  22
ENDBRANCH   1  20
TORSDOF 8
ENDMDL
MODEL 5
REMARK VINA RESULT:      -7.8      5.290      9.757
REMARK  Name = 
REMARK  9 active torsions:
REMARK  status: ('A' for Active; 'I' for Inactive)
REMARK    1  A    between atoms: C_1  and  O_2
REMARK    2  A    between atoms: O_2  and  C_3
REMARK    3  A    between atoms: C_6  and  C_7
REMARK    4  A    between atoms: C_7  and  C_8
REMARK    5  A    between atoms: C_8  and  N_9
REMARK    6  A    between atoms: C_8  and  C_10
REMARK    7  A    between atoms: C_10  and  N_11
REMARK    8  A    between atoms: N_11  and  C_12
REMARK    9  A    between atoms: C_14  and  C_15
REMARK                            x       y       z     vdW  Elec       q    Type
REMARK                         _______ _______ _______ _____ _____    ______ ____
ROOT
ATOM      1  C   UNL     1      -0.639  11.118  19.519  0.00  0.00    +0.000 A 
ATOM      2  N   UNL     1      -1.314  11.859  20.427  0.00  0.00    +0.000 NA
ATOM      3  C   UNL     1      -1.187  11.609  21.740  0.00  0.00    +0.000 A 
ATOM      4  N   UNL     1      -0.467  10.619  22.273  0.00  0.00    +0.000 NA
ATOM      5  C   UNL     1       0.184   9.886  21.358  0.00  0.00    +0.000 A 
ATOM      6  S   UNL     1       1.127   8.553  21.847  0.00  0.00    +0.000 S 
ATOM      7  C   UNL     1       1.607   8.234  20.250  0.00  0.00    +0.000 A 
ATOM      8  C   UNL     1       1.075   9.132  19.341  0.00  0.00    +0.000 A 
ATOM      9  C   UNL     1       0.192  10.080  19.984  0.00  0.00    +0.000 A 
ATOM     10  C   UNL     1       1.452   9.073  17.886  0.00  0.00    +0.000 C 
ATOM     11  C   UNL     1       2.026   7.702  17.498  0.00  0.00    +0.000 C 
ATOM     12  C   UNL     1       3.085   7.238  18.507  0.00  0.00    +0.000 C 
ATOM     13  C   UNL     1       2.488   7.072  19.911  0.00  0.00    +0.000 C 
ENDROOT
BRANCH   3  14
ATOM     14  C   UNL     1      -1.877  12.530  22.662  0.00  0.00    +0.000 A 
ATOM     15  C   UNL     1      -1.254  13.695  23.151  0.00  0.00    +0.000 A 
ATOM     16  C   UNL     1      -1.946  14.527  24.021  0.00  0.00    +0.000 A 
ATOM     17  N   UNL     1      -3.197  14.288  24.444  0.00  0.00    +0.000 NA
ATOM     18  C   UNL     1      -3.790  13.167  23.981  0.00  0.00    +0.000 A 
ATOM     19  C   UNL     1      -3.178  12.278  23.109  0.00  0.00    +0.000 A 
ENDBRANCH   3  14
BRANCH   1  20
ATOM     20  N   UNL     1      -0.800  11.403  18.154  0.00  0.00    +0.000 N 
ATOM     21  H   UNL     1      -0.993  12.393  18.034  0.00  0.00    +0.000 HD
BRANCH  20  22
ATOM     22  C   UNL     1      -1.772  10.532  17.493  0.00  0.00    +0.000 C 
BRANCH  22  23
ATOM     23  C   UNL     1      -3.053  11.312  17.115  0.00  0.00    +0.000 C 
BRANCH  23  24
ATOM     24  N   UNL     1      -3.097  11.608  15.668  0.00  0.00    +0.000 NA
ATOM     25  H   UNL     1      -2.656  10.845  15.155  0.00  0.00    +0.000 HD
ATOM     26  H   UNL     1      -2.496  12.414  15.495  0.00  0.00    +0.000 HD
ENDBRANCH  23  24
BRANCH  23  27
ATOM     27  C   UNL     1      -4.258  10.481  17.601  0.00  0.00    +0.000 C 
BRANCH  27  31
ATOM     28  C   UNL     1      -6.874  12.527  20.344  0.00  0.00    +0.000 A 
ATOM     29  C   UNL     1      -7.375  11.510  19.530  0.00  0.00    +0.000 A 
ATOM     30  C   UNL     1      -6.531  10.842  18.641  0.00  0.00    +0.000 A 
ATOM     31  C   UNL     1      -5.182  11.201  18.545  0.00  0.00    +0.000 A 
ATOM     32  C   UNL     1      -4.694  12.243  19.338  0.00  0.00    +0.000 A 
ATOM     33  C   UNL     1      -5.535  12.901  20.233  0.00  0.00    +0.000 A 
BRANCH  28  35
ATOM     34  C   UNL     1      -7.848  12.546  22.487  0.00  0.00    +0.000 C 
ATOM     35  O   UNL     1      -7.781  13.115  21.184  0.00  0.00    +0.000 OA
ENDBRANCH  28  35
ENDBRANCH  27  31
ENDBRANCH  23  27
ENDBRANCH  22  23
ENDBRANCH  20  22
ENDBRANCH   1  20
TORSDOF 8
ENDMDL
MODEL 6
REMARK VINA RESULT:      -7.8      0.631      1.368
REMARK  Name = 
REMARK  9 active torsions:
REMARK  status: ('A' for Active; 'I' for Inactive)
REMARK    1  A    between atoms: C_1  and  O_2
REMARK    2  A    between atoms: O_2  and  C_3
REMARK    3  A    between atoms: C_6  and  C_7
REMARK    4  A    between atoms: C_7  and  C_8
REMARK    5  A    between atoms: C_8  and  N_9
REMARK    6  A    between atoms: C_8  and  C_10
REMARK    7  A    between atoms: C_10  and  N_11
REMARK    8  A    between atoms: N_11  and  C_12
REMARK    9  A    between atoms: C_14  and  C_15
REMARK                            x       y       z     vdW  Elec       q    Type
REMARK                         _______ _______ _______ _____ _____    ______ ____
ROOT
ATOM      1  C   UNL     1       4.320   5.791  17.296  0.00  0.00    +0.000 A 
ATOM      2  N   UNL     1       5.083   5.681  16.184  0.00  0.00    +0.000 NA
ATOM      3  C   UNL     1       5.308   4.480  15.628  0.00  0.00    +0.000 A 
ATOM      4  N   UNL     1       4.881   3.312  16.112  0.00  0.00    +0.000 NA
ATOM      5  C   UNL     1       4.138   3.437  17.222  0.00  0.00    +0.000 A 
ATOM      6  S   UNL     1       3.534   2.050  18.006  0.00  0.00    +0.000 S 
ATOM      7  C   UNL     1       2.737   2.988  19.175  0.00  0.00    +0.000 A 
ATOM      8  C   UNL     1       2.906   4.347  18.978  0.00  0.00    +0.000 A 
ATOM      9  C   UNL     1       3.777   4.618  17.855  0.00  0.00    +0.000 A 
ATOM     10  C   UNL     1       2.206   5.348  19.856  0.00  0.00    +0.000 C 
ATOM     11  C   UNL     1       1.752   4.726  21.185  0.00  0.00    +0.000 C 
ATOM     12  C   UNL     1       1.039   3.387  20.956  0.00  0.00    +0.000 C 
ATOM     13  C   UNL     1       1.970   2.360  20.298  0.00  0.00    +0.000 C 
ENDROOT
BRANCH   3  14
ATOM     14  C   UNL     1       6.063   4.465  14.361  0.00  0.00    +0.000 A 
ATOM     15  C   UNL     1       7.185   5.290  14.157  0.00  0.00    +0.000 A 
ATOM     16  C   UNL     1       7.858   5.241  12.944  0.00  0.00    +0.000 A 
ATOM     17  N   UNL     1       7.500   4.446  11.924  0.00  0.00    +0.000 NA
ATOM     18  C   UNL     1       6.418   3.661  12.118  0.00  0.00    +0.000 A 
ATOM     19  C   UNL     1       5.685   3.642  13.295  0.00  0.00    +0.000 A 
ENDBRANCH   3  14
BRANCH   1  20
ATOM     20  N   UNL     1       4.110   7.062  17.853  0.00  0.00    +0.000 N 
ATOM     21  H   UNL     1       4.123   6.995  18.867  0.00  0.00    +0.000 HD
BRANCH  20  22
ATOM     22  C   UNL     1       2.924   7.735  17.325  0.00  0.00    +0.000 C 
BRANCH  22  23
ATOM     23  C   UNL     1       2.533   8.947  18.203  0.00  0.00    +0.000 C 
BRANCH  23  24
ATOM     24  N   UNL     1       2.073  10.084  17.378  0.00  0.00    +0.000 NA
ATOM     25  H   UNL     1       2.519  10.940  17.705  0.00  0.00    +0.000 HD
ATOM     26  H   UNL     1       1.080  10.226  17.567  0.00  0.00    +0.000 HD
ENDBRANCH  23  24
BRANCH  23  27
ATOM     27  C   UNL     1       1.473   8.461  19.211  0.00  0.00    +0.000 C 
BRANCH  27  31
ATOM     28  C   UNL     1      -0.875  11.557  21.072  0.00  0.00    +0.000 A 
ATOM     29  C   UNL     1      -1.115  11.203  19.744  0.00  0.00    +0.000 A 
ATOM     30  C   UNL     1      -0.358  10.200  19.136  0.00  0.00    +0.000 A 
ATOM     31  C   UNL     1       0.659   9.554  19.848  0.00  0.00    +0.000 A 
ATOM     32  C   UNL     1       0.917   9.937  21.167  0.00  0.00    +0.000 A 
ATOM     33  C   UNL     1       0.154  10.931  21.776  0.00  0.00    +0.000 A 
BRANCH  28  35
ATOM     34  C   UNL     1      -1.588  12.728  22.985  0.00  0.00    +0.000 C 
ATOM     35  O   UNL     1      -1.673  12.548  21.575  0.00  0.00    +0.000 OA
ENDBRANCH  28  35
ENDBRANCH  27  31
ENDBRANCH  23  27
ENDBRANCH  22  23
ENDBRANCH  20  22
ENDBRANCH   1  20
TORSDOF 8
ENDMDL
MODEL 7
REMARK VINA RESULT:      -7.8      1.483      1.841
REMARK  Name = 
REMARK  9 active torsions:
REMARK  status: ('A' for Active; 'I' for Inactive)
REMARK    1  A    between atoms: C_1  and  O_2
REMARK    2  A    between atoms: O_2  and  C_3
REMARK    3  A    between atoms: C_6  and  C_7
REMARK    4  A    between atoms: C_7  and  C_8
REMARK    5  A    between atoms: C_8  and  N_9
REMARK    6  A    between atoms: C_8  and  C_10
REMARK    7  A    between atoms: C_10  and  N_11
REMARK    8  A    between atoms: N_11  and  C_12
REMARK    9  A    between atoms: C_14  and  C_15
REMARK                            x       y       z     vdW  Elec       q    Type
REMARK                         _______ _______ _______ _____ _____    ______ ____
ROOT
ATOM      1  C   UNL     1       4.287   5.565  17.506  0.00  0.00    +0.000 A 
ATOM      2  N   UNL     1       5.037   5.510  16.382  0.00  0.00    +0.000 NA
ATOM      3  C   UNL     1       5.288   4.332  15.787  0.00  0.00    +0.000 A 
ATOM      4  N   UNL     1       4.900   3.139  16.242  0.00  0.00    +0.000 NA
ATOM      5  C   UNL     1       4.169   3.210  17.364  0.00  0.00    +0.000 A 
ATOM      6  S   UNL     1       3.614   1.784  18.114  0.00  0.00    +0.000 S 
ATOM      7  C   UNL     1       2.806   2.665  19.320  0.00  0.00    +0.000 A 
ATOM      8  C   UNL     1       2.935   4.034  19.161  0.00  0.00    +0.000 A 
ATOM      9  C   UNL     1       3.784   4.361  18.036  0.00  0.00    +0.000 A 
ATOM     10  C   UNL     1       2.220   4.988  20.077  0.00  0.00    +0.000 C 
ATOM     11  C   UNL     1       1.800   4.315  21.393  0.00  0.00    +0.000 C 
ATOM     12  C   UNL     1       1.122   2.964  21.133  0.00  0.00    +0.000 C 
ATOM     13  C   UNL     1       2.072   1.983  20.433  0.00  0.00    +0.000 C 
ENDROOT
BRANCH   3  14
ATOM     14  C   UNL     1       6.026   4.375  14.511  0.00  0.00    +0.000 A 
ATOM     15  C   UNL     1       7.169   5.181  14.343  0.00  0.00    +0.000 A 
ATOM     16  C   UNL     1       7.826   5.189  13.120  0.00  0.00    +0.000 A 
ATOM     17  N   UNL     1       7.432   4.470  12.058  0.00  0.00    +0.000 NA
ATOM     18  C   UNL     1       6.331   3.704  12.218  0.00  0.00    +0.000 A 
ATOM     19  C   UNL     1       5.613   3.631  13.401  0.00  0.00    +0.000 A 
ENDBRANCH   3  14
BRANCH   1  20
ATOM     20  N   UNL     1       4.049   6.813  18.103  0.00  0.00    +0.000 N 
ATOM     21  H   UNL     1       3.723   6.678  19.055  0.00  0.00    +0.000 HD
BRANCH  20  22
ATOM     22  C   UNL     1       3.182   7.680  17.305  0.00  0.00    +0.000 C 
BRANCH  22  23
ATOM     23  C   UNL     1       1.992   8.203  18.142  0.00  0.00    +0.000 C 
BRANCH  23  24
ATOM     24  N   UNL     1       2.177   7.915  19.580  0.00  0.00    +0.000 NA
ATOM     25  H   UNL     1       1.349   8.217  20.093  0.00  0.00    +0.000 HD
ATOM     26  H   UNL     1       2.925   8.516  19.926  0.00  0.00    +0.000 HD
ENDBRANCH  23  24
BRANCH  23  27
ATOM     27  C   UNL     1       1.842   9.707  17.839  0.00  0.00    +0.000 C 
BRANCH  27  31
ATOM     28  C   UNL     1      -1.678  11.574  19.478  0.00  0.00    +0.000 A 
ATOM     29  C   UNL     1      -0.427  11.826  20.043  0.00  0.00    +0.000 A 
ATOM     30  C   UNL     1       0.717  11.225  19.516  0.00  0.00    +0.000 A 
ATOM     31  C   UNL     1       0.616  10.351  18.428  0.00  0.00    +0.000 A 
ATOM     32  C   UNL     1      -0.643  10.075  17.888  0.00  0.00    +0.000 A 
ATOM     33  C   UNL     1      -1.783  10.684  18.409  0.00  0.00    +0.000 A 
BRANCH  28  35
ATOM     34  C   UNL     1      -2.517  12.614  21.416  0.00  0.00    +0.000 C 
ATOM     35  O   UNL     1      -2.735  12.214  20.066  0.00  0.00    +0.000 OA
ENDBRANCH  28  35
ENDBRANCH  27  31
ENDBRANCH  23  27
ENDBRANCH  22  23
ENDBRANCH  20  22
ENDBRANCH   1  20
TORSDOF 8
ENDMDL
MODEL 8
REMARK VINA RESULT:      -7.7      3.373      8.641
REMARK  Name = 
REMARK  9 active torsions:
REMARK  status: ('A' for Active; 'I' for Inactive)
REMARK    1  A    between atoms: C_1  and  O_2
REMARK    2  A    between atoms: O_2  and  C_3
REMARK    3  A    between atoms: C_6  and  C_7
REMARK    4  A    between atoms: C_7  and  C_8
REMARK    5  A    between atoms: C_8  and  N_9
REMARK    6  A    between atoms: C_8  and  C_10
REMARK    7  A    between atoms: C_10  and  N_11
REMARK    8  A    between atoms: N_11  and  C_12
REMARK    9  A    between atoms: C_14  and  C_15
REMARK                            x       y       z     vdW  Elec       q    Type
REMARK                         _______ _______ _______ _____ _____    ______ ____
ROOT
ATOM      1  C   UNL     1       2.959   6.614  18.656  0.00  0.00    +0.000 A 
ATOM      2  N   UNL     1       2.419   7.722  19.214  0.00  0.00    +0.000 NA
ATOM      3  C   UNL     1       1.551   7.617  20.233  0.00  0.00    +0.000 A 
ATOM      4  N   UNL     1       1.097   6.472  20.748  0.00  0.00    +0.000 NA
ATOM      5  C   UNL     1       1.632   5.384  20.174  0.00  0.00    +0.000 A 
ATOM      6  S   UNL     1       1.147   3.829  20.675  0.00  0.00    +0.000 S 
ATOM      7  C   UNL     1       2.228   3.083  19.599  0.00  0.00    +0.000 A 
ATOM      8  C   UNL     1       2.970   3.994  18.867  0.00  0.00    +0.000 A 
ATOM      9  C   UNL     1       2.585   5.356  19.165  0.00  0.00    +0.000 A 
ATOM     10  C   UNL     1       4.045   3.532  17.922  0.00  0.00    +0.000 C 
ATOM     11  C   UNL     1       3.866   2.059  17.526  0.00  0.00    +0.000 C 
ATOM     12  C   UNL     1       3.602   1.181  18.756  0.00  0.00    +0.000 C 
ATOM     13  C   UNL     1       2.308   1.593  19.473  0.00  0.00    +0.000 C 
ENDROOT
BRANCH   3  14
ATOM     14  C   UNL     1       1.091   8.876  20.848  0.00  0.00    +0.000 A 
ATOM     15  C   UNL     1       1.165  10.105  20.164  0.00  0.00    +0.000 A 
ATOM     16  C   UNL     1       0.723  11.263  20.789  0.00  0.00    +0.000 A 
ATOM     17  N   UNL     1       0.225  11.294  22.034  0.00  0.00    +0.000 NA
ATOM     18  C   UNL     1       0.163  10.117  22.692  0.00  0.00    +0.000 A 
ATOM     19  C   UNL     1       0.578   8.911  22.149  0.00  0.00    +0.000 A 
ENDBRANCH   3  14
BRANCH   1  20
ATOM     20  N   UNL     1       3.859   6.761  17.589  0.00  0.00    +0.000 N 
ATOM     21  H   UNL     1       3.563   6.178  16.812  0.00  0.00    +0.000 HD
BRANCH  20  22
ATOM     22  C   UNL     1       5.254   6.557  17.978  0.00  0.00    +0.000 C 
BRANCH  22  23
ATOM     23  C   UNL     1       6.215   6.921  16.821  0.00  0.00    +0.000 C 
BRANCH  23  24
ATOM     24  N   UNL     1       7.034   8.105  17.154  0.00  0.00    +0.000 NA
ATOM     25  H   UNL     1       6.636   8.572  17.968  0.00  0.00    +0.000 HD
ATOM     26  H   UNL     1       6.931   8.780  16.396  0.00  0.00    +0.000 HD
ENDBRANCH  23  24
BRANCH  23  27
ATOM     27  C   UNL     1       7.058   5.667  16.512  0.00  0.00    +0.000 C 
BRANCH  27  31
ATOM     28  C   UNL     1       5.995   3.684  12.838  0.00  0.00    +0.000 A 
ATOM     29  C   UNL     1       5.246   3.459  13.994  0.00  0.00    +0.000 A 
ATOM     30  C   UNL     1       5.585   4.100  15.187  0.00  0.00    +0.000 A 
ATOM     31  C   UNL     1       6.689   4.958  15.237  0.00  0.00    +0.000 A 
ATOM     32  C   UNL     1       7.455   5.153  14.085  0.00  0.00    +0.000 A 
ATOM     33  C   UNL     1       7.110   4.521  12.892  0.00  0.00    +0.000 A 
BRANCH  28  35
ATOM     34  C   UNL     1       4.224   3.249  11.349  0.00  0.00    +0.000 C 
ATOM     35  O   UNL     1       5.578   3.011  11.721  0.00  0.00    +0.000 OA
ENDBRANCH  28  35
ENDBRANCH  27  31
ENDBRANCH  23  27
ENDBRANCH  22  23
ENDBRANCH  20  22
ENDBRANCH   1  20
TORSDOF 8
ENDMDL
MODEL 9
REMARK VINA RESULT:      -7.7      5.652     10.089
REMARK  Name = 
REMARK  9 active torsions:
REMARK  status: ('A' for Active; 'I' for Inactive)
REMARK    1  A    between atoms: C_1  and  O_2
REMARK    2  A    between atoms: O_2  and  C_3
REMARK    3  A    between atoms: C_6  and  C_7
REMARK    4  A    between atoms: C_7  and  C_8
REMARK    5  A    between atoms: C_8  and  N_9
REMARK    6  A    between atoms: C_8  and  C_10
REMARK    7  A    between atoms: C_10  and  N_11
REMARK    8  A    between atoms: N_11  and  C_12
REMARK    9  A    between atoms: C_14  and  C_15
REMARK                            x       y       z     vdW  Elec       q    Type
REMARK                         _______ _______ _______ _____ _____    ______ ____
ROOT
ATOM      1  C   UNL     1      -1.072  11.566  19.992  0.00  0.00    +0.000 A 
ATOM      2  N   UNL     1      -1.649  12.312  20.962  0.00  0.00    +0.000 NA
ATOM      3  C   UNL     1      -1.360  12.091  22.254  0.00  0.00    +0.000 A 
ATOM      4  N   UNL     1      -0.562  11.125  22.714  0.00  0.00    +0.000 NA
ATOM      5  C   UNL     1      -0.008  10.386  21.740  0.00  0.00    +0.000 A 
ATOM      6  S   UNL     1       1.014   9.081  22.136  0.00  0.00    +0.000 S 
ATOM      7  C   UNL     1       1.306   8.741  20.498  0.00  0.00    +0.000 A 
ATOM      8  C   UNL     1       0.651   9.611  19.644  0.00  0.00    +0.000 A 
ATOM      9  C   UNL     1      -0.170  10.554  20.372  0.00  0.00    +0.000 A 
ATOM     10  C   UNL     1       0.852   9.530  18.156  0.00  0.00    +0.000 C 
ATOM     11  C   UNL     1       1.405   8.163  17.725  0.00  0.00    +0.000 C 
ATOM     12  C   UNL     1       2.586   7.740  18.608  0.00  0.00    +0.000 C 
ATOM     13  C   UNL     1       2.166   7.589  20.076  0.00  0.00    +0.000 C 
ENDROOT
BRANCH   3  14
ATOM     14  C   UNL     1      -1.955  13.016  23.236  0.00  0.00    +0.000 A 
ATOM     15  C   UNL     1      -3.270  12.849  23.712  0.00  0.00    +0.000 A 
ATOM     16  C   UNL     1      -3.785  13.751  24.632  0.00  0.00    +0.000 A 
ATOM     17  N   UNL     1      -3.100  14.803  25.108  0.00  0.00    +0.000 NA
ATOM     18  C   UNL     1      -1.842  14.967  24.646  0.00  0.00    +0.000 A 
ATOM     19  C   UNL     1      -1.245  14.117  23.727  0.00  0.00    +0.000 A 
ENDBRANCH   3  14
BRANCH   1  20
ATOM     20  N   UNL     1      -1.401  11.822  18.652  0.00  0.00    +0.000 N 
ATOM     21  H   UNL     1      -1.577  12.814  18.528  0.00  0.00    +0.000 HD
BRANCH  20  22
ATOM     22  C   UNL     1      -2.477  10.968  18.149  0.00  0.00    +0.000 C 
BRANCH  22  23
ATOM     23  C   UNL     1      -3.208  11.634  16.959  0.00  0.00    +0.000 C 
BRANCH  23  24
ATOM     24  N   UNL     1      -2.576  11.280  15.672  0.00  0.00    +0.000 NA
ATOM     25  H   UNL     1      -3.033  11.795  14.919  0.00  0.00    +0.000 HD
ATOM     26  H   UNL     1      -2.789  10.301  15.477  0.00  0.00    +0.000 HD
ENDBRANCH  23  24
BRANCH  23  27
ATOM     27  C   UNL     1      -4.691  11.220  17.042  0.00  0.00    +0.000 C 
BRANCH  27  31
ATOM     28  C   UNL     1      -6.529  11.687  20.910  0.00  0.00    +0.000 A 
ATOM     29  C   UNL     1      -5.483  12.528  20.529  0.00  0.00    +0.000 A 
ATOM     30  C   UNL     1      -4.885  12.383  19.276  0.00  0.00    +0.000 A 
ATOM     31  C   UNL     1      -5.317  11.380  18.401  0.00  0.00    +0.000 A 
ATOM     32  C   UNL     1      -6.342  10.519  18.801  0.00  0.00    +0.000 A 
ATOM     33  C   UNL     1      -6.946  10.672  20.048  0.00  0.00    +0.000 A 
BRANCH  28  35
ATOM     34  C   UNL     1      -7.055  13.279  22.562  0.00  0.00    +0.000 C 
ATOM     35  O   UNL     1      -7.050  11.915  22.155  0.00  0.00    +0.000 OA
ENDBRANCH  28  35
ENDBRANCH  27  31
ENDBRANCH  23  27
ENDBRANCH  22  23
ENDBRANCH  20  22
ENDBRANCH   1  20
TORSDOF 8
ENDMDL
