MODEL 1
REMARK VINA RESULT:      -9.3      0.000      0.000
REMARK  Name = 
REMARK  8 active torsions:
REMARK  status: ('A' for Active; 'I' for Inactive)
REMARK    1  A    between atoms: C_2  and  C_4
REMARK    2  A    between atoms: C_9  and  C_10
REMARK    3  A    between atoms: C_16  and  C_17
REMARK    4  A    between atoms: N_19  and  C_20
REMARK    5  A    between atoms: C_20  and  C_21
REMARK    6  A    between atoms: C_20  and  C_25
REMARK    7  A    between atoms: C_21  and  C_22
REMARK    8  A    between atoms: C_22  and  O_24
REMARK                            x       y       z     vdW  Elec       q    Type
REMARK                         _______ _______ _______ _____ _____    ______ ____
ROOT
ATOM      1  C   UNL     1       2.258   7.163  19.250  0.00  0.00    +0.000 C 
ATOM      2  O   UNL     1       3.102   7.435  18.396  0.00  0.00    +0.000 OA
ATOM      3  N   UNL     1       1.978   5.842  19.590  0.00  0.00    +0.000 N 
ATOM      4  C   UNL     1       1.027   5.424  20.606  0.00  0.00    +0.000 C 
ATOM      5  C   UNL     1       1.340   3.964  20.817  0.00  0.00    +0.000 C 
ATOM      6  C   UNL     1       1.692   3.490  19.410  0.00  0.00    +0.000 C 
ATOM      7  C   UNL     1       2.281   4.725  18.691  0.00  0.00    +0.000 C 
ENDROOT
BRANCH   1  13
ATOM      8  C   UNL     1      -1.036  11.386  22.006  0.00  0.00    +0.000 A 
ATOM      9  C   UNL     1      -1.134  11.792  20.668  0.00  0.00    +0.000 A 
ATOM     10  C   UNL     1      -0.461  11.107  19.657  0.00  0.00    +0.000 A 
ATOM     11  C   UNL     1       0.284  10.005  20.061  0.00  0.00    +0.000 A 
ATOM     12  O   UNL     1       0.991   9.216  19.227  0.00  0.00    +0.000 OA
ATOM     13  C   UNL     1       1.507   8.183  19.955  0.00  0.00    +0.000 A 
ATOM     14  C   UNL     1       1.205   8.374  21.294  0.00  0.00    +0.000 A 
ATOM     15  C   UNL     1       0.394   9.545  21.365  0.00  0.00    +0.000 A 
ATOM     16  C   UNL     1      -0.275  10.257  22.377  0.00  0.00    +0.000 A 
BRANCH   8  18
ATOM     17  N   UNL     1      -2.854  11.691  23.547  0.00  0.00    +0.000 NA
ATOM     18  C   UNL     1      -1.760  12.164  23.049  0.00  0.00    +0.000 C 
ATOM     19  N   UNL     1      -1.280  13.374  23.455  0.00  0.00    +0.000 N 
ATOM     20  H   UNL     1      -3.207  12.318  24.271  0.00  0.00    +0.000 HD
ATOM     21  H   UNL     1      -1.956  13.982  23.901  0.00  0.00    +0.000 HD
ATOM     22  H   UNL     1      -0.734  13.876  22.763  0.00  0.00    +0.000 HD
ENDBRANCH   8  18
ENDBRANCH   1  13
BRANCH   7  23
ATOM     23  C   UNL     1       3.767   4.526  18.350  0.00  0.00    +0.000 C 
ATOM     24  O   UNL     1       4.534   3.838  19.020  0.00  0.00    +0.000 OA
ATOM     25  N   UNL     1       4.160   5.205  17.212  0.00  0.00    +0.000 N 
ATOM     26  H   UNL     1       3.692   6.103  17.094  0.00  0.00    +0.000 HD
BRANCH  25  27
ATOM     27  C   UNL     1       5.495   5.094  16.639  0.00  0.00    +0.000 C 
BRANCH  27  28
ATOM     28  C   UNL     1       6.504   5.997  17.351  0.00  0.00    +0.000 A 
ATOM     29  C   UNL     1       6.652   7.339  16.960  0.00  0.00    +0.000 A 
ATOM     30  C   UNL     1       7.603   8.166  17.569  0.00  0.00    +0.000 A 
ATOM     31  C   UNL     1       8.418   7.666  18.582  0.00  0.00    +0.000 A 
ATOM     32  C   UNL     1       8.262   6.350  19.007  0.00  0.00    +0.000 A 
ATOM     33  C   UNL     1       7.307   5.527  18.405  0.00  0.00    +0.000 A 
ENDBRANCH  27  28
BRANCH  27  34
ATOM     34  C   UNL     1       5.538   5.273  15.110  0.00  0.00    +0.000 C 
BRANCH  34  35
ATOM     35  C   UNL     1       6.762   4.697  14.436  0.00  0.00    +0.000 C 
ATOM     36  O   UNL     1       7.835   5.256  14.275  0.00  0.00    +0.000 OA
BRANCH  35  37
ATOM     37  O   UNL     1       6.527   3.458  13.929  0.00  0.00    +0.000 OA
ATOM     38  H   UNL     1       7.044   3.253  13.127  0.00  0.00    +0.000 HD
ENDBRANCH  35  37
ENDBRANCH  34  35
ENDBRANCH  27  34
ENDBRANCH  25  27
ENDBRANCH   7  23
TORSDOF 8
ENDMDL
MODEL 2
REMARK VINA RESULT:      -9.2      0.119      1.159
REMARK  Name = 
REMARK  8 active torsions:
REMARK  status: ('A' for Active; 'I' for Inactive)
REMARK    1  A    between atoms: C_2  and  C_4
REMARK    2  A    between atoms: C_9  and  C_10
REMARK    3  A    between atoms: C_16  and  C_17
REMARK    4  A    between atoms: N_19  and  C_20
REMARK    5  A    between atoms: C_20  and  C_21
REMARK    6  A    between atoms: C_20  and  C_25
REMARK    7  A    between atoms: C_21  and  C_22
REMARK    8  A    between atoms: C_22  and  O_24
REMARK                            x       y       z     vdW  Elec       q    Type
REMARK                         _______ _______ _______ _____ _____    ______ ____
ROOT
ATOM      1  C   UNL     1       2.309   7.158  19.199  0.00  0.00    +0.000 C 
ATOM      2  O   UNL     1       3.127   7.429  18.321  0.00  0.00    +0.000 OA
ATOM      3  N   UNL     1       2.052   5.838  19.561  0.00  0.00    +0.000 N 
ATOM      4  C   UNL     1       1.133   5.421  20.606  0.00  0.00    +0.000 C 
ATOM      5  C   UNL     1       1.467   3.967  20.824  0.00  0.00    +0.000 C 
ATOM      6  C   UNL     1       1.788   3.481  19.414  0.00  0.00    +0.000 C 
ATOM      7  C   UNL     1       2.345   4.714  18.667  0.00  0.00    +0.000 C 
ENDROOT
BRANCH   1  13
ATOM      8  C   UNL     1      -0.961  11.377  21.990  0.00  0.00    +0.000 A 
ATOM      9  C   UNL     1      -1.096  11.768  20.651  0.00  0.00    +0.000 A 
ATOM     10  C   UNL     1      -0.439  11.080  19.631  0.00  0.00    +0.000 A 
ATOM     11  C   UNL     1       0.326   9.989  20.028  0.00  0.00    +0.000 A 
ATOM     12  O   UNL     1       1.021   9.198  19.186  0.00  0.00    +0.000 OA
ATOM     13  C   UNL     1       1.564   8.178  19.911  0.00  0.00    +0.000 A 
ATOM     14  C   UNL     1       1.292   8.380  21.256  0.00  0.00    +0.000 A 
ATOM     15  C   UNL     1       0.471   9.543  21.333  0.00  0.00    +0.000 A 
ATOM     16  C   UNL     1      -0.181  10.259  22.354  0.00  0.00    +0.000 A 
BRANCH   8  18
ATOM     17  N   UNL     1      -1.136  13.245  23.490  0.00  0.00    +0.000 NA
ATOM     18  C   UNL     1      -1.669  12.158  23.043  0.00  0.00    +0.000 C 
ATOM     19  N   UNL     1      -2.857  11.711  23.541  0.00  0.00    +0.000 N 
ATOM     20  H   UNL     1      -1.756  13.682  24.174  0.00  0.00    +0.000 HD
ATOM     21  H   UNL     1      -3.116  12.086  24.446  0.00  0.00    +0.000 HD
ATOM     22  H   UNL     1      -2.988  10.706  23.508  0.00  0.00    +0.000 HD
ENDBRANCH   8  18
ENDBRANCH   1  13
BRANCH   7  23
ATOM     23  C   UNL     1       3.824   4.527  18.290  0.00  0.00    +0.000 C 
ATOM     24  O   UNL     1       4.609   3.832  18.932  0.00  0.00    +0.000 OA
ATOM     25  N   UNL     1       4.189   5.227  17.156  0.00  0.00    +0.000 N 
ATOM     26  H   UNL     1       3.715   6.125  17.063  0.00  0.00    +0.000 HD
BRANCH  25  27
ATOM     27  C   UNL     1       5.512   5.133  16.552  0.00  0.00    +0.000 C 
BRANCH  27  28
ATOM     28  C   UNL     1       6.548   5.977  17.297  0.00  0.00    +0.000 A 
ATOM     29  C   UNL     1       7.292   5.416  18.349  0.00  0.00    +0.000 A 
ATOM     30  C   UNL     1       8.211   6.188  19.071  0.00  0.00    +0.000 A 
ATOM     31  C   UNL     1       8.403   7.529  18.750  0.00  0.00    +0.000 A 
ATOM     32  C   UNL     1       7.701   8.092  17.688  0.00  0.00    +0.000 A 
ATOM     33  C   UNL     1       6.791   7.320  16.962  0.00  0.00    +0.000 A 
ENDBRANCH  27  28
BRANCH  27  34
ATOM     34  C   UNL     1       5.530   5.402  15.036  0.00  0.00    +0.000 C 
BRANCH  34  35
ATOM     35  C   UNL     1       6.583   4.638  14.266  0.00  0.00    +0.000 C 
ATOM     36  O   UNL     1       6.488   3.500  13.835  0.00  0.00    +0.000 OA
BRANCH  35  37
ATOM     37  O   UNL     1       7.740   5.342  14.152  0.00  0.00    +0.000 OA
ATOM     38  H   UNL     1       8.346   5.234  14.909  0.00  0.00    +0.000 HD
ENDBRANCH  35  37
ENDBRANCH  34  35
ENDBRANCH  27  34
ENDBRANCH  25  27
ENDBRANCH   7  23
TORSDOF 8
ENDMDL
MODEL 3
REMARK VINA RESULT:      -9.1      0.688      1.520
REMARK  Name = 
REMARK  8 active torsions:
REMARK  status: ('A' for Active; 'I' for Inactive)
REMARK    1  A    between atoms: C_2  and  C_4
REMARK    2  A    between atoms: C_9  and  C_10
REMARK    3  A    between atoms: C_16  and  C_17
REMARK    4  A    between atoms: N_19  and  C_20
REMARK    5  A    between atoms: C_20  and  C_21
REMARK    6  A    between atoms: C_20  and  C_25
REMARK    7  A    between atoms: C_21  and  C_22
REMARK    8  A    between atoms: C_22  and  O_24
REMARK                            x       y       z     vdW  Elec       q    Type
REMARK                         _______ _______ _______ _____ _____    ______ ____
ROOT
ATOM      1  C   UNL     1       2.278   7.132  19.179  0.00  0.00    +0.000 C 
ATOM      2  O   UNL     1       3.116   7.407  18.321  0.00  0.00    +0.000 OA
ATOM      3  N   UNL     1       2.010   5.810  19.525  0.00  0.00    +0.000 N 
ATOM      4  C   UNL     1       1.067   5.387  20.546  0.00  0.00    +0.000 C 
ATOM      5  C   UNL     1       1.392   3.931  20.761  0.00  0.00    +0.000 C 
ATOM      6  C   UNL     1       1.743   3.454  19.354  0.00  0.00    +0.000 C 
ATOM      7  C   UNL     1       2.319   4.692  18.628  0.00  0.00    +0.000 C 
ENDROOT
BRANCH   1  13
ATOM      8  C   UNL     1      -0.723  11.325  22.292  0.00  0.00    +0.000 A 
ATOM      9  C   UNL     1      -0.559  10.328  23.264  0.00  0.00    +0.000 A 
ATOM     10  C   UNL     1       0.058   9.117  22.954  0.00  0.00    +0.000 A 
ATOM     11  C   UNL     1       0.508   8.980  21.646  0.00  0.00    +0.000 A 
ATOM     12  O   UNL     1       1.138   7.889  21.166  0.00  0.00    +0.000 OA
ATOM     13  C   UNL     1       1.520   8.148  19.883  0.00  0.00    +0.000 A 
ATOM     14  C   UNL     1       1.037   9.392  19.506  0.00  0.00    +0.000 A 
ATOM     15  C   UNL     1       0.397   9.944  20.655  0.00  0.00    +0.000 A 
ATOM     16  C   UNL     1      -0.246  11.154  20.975  0.00  0.00    +0.000 A 
BRANCH   8  18
ATOM     17  N   UNL     1      -0.796  13.441  23.429  0.00  0.00    +0.000 NA
ATOM     18  C   UNL     1      -1.407  12.594  22.670  0.00  0.00    +0.000 C 
ATOM     19  N   UNL     1      -2.674  12.841  22.234  0.00  0.00    +0.000 N 
ATOM     20  H   UNL     1      -1.376  14.270  23.564  0.00  0.00    +0.000 HD
ATOM     21  H   UNL     1      -3.190  13.530  22.768  0.00  0.00    +0.000 HD
ATOM     22  H   UNL     1      -3.238  12.016  22.056  0.00  0.00    +0.000 HD
ENDBRANCH   8  18
ENDBRANCH   1  13
BRANCH   7  23
ATOM     23  C   UNL     1       3.805   4.504  18.283  0.00  0.00    +0.000 C 
ATOM     24  O   UNL     1       4.586   3.844  18.965  0.00  0.00    +0.000 OA
ATOM     25  N   UNL     1       4.182   5.159  17.126  0.00  0.00    +0.000 N 
ATOM     26  H   UNL     1       3.701   6.048  16.989  0.00  0.00    +0.000 HD
BRANCH  25  27
ATOM     27  C   UNL     1       5.514   5.052  16.547  0.00  0.00    +0.000 C 
BRANCH  27  28
ATOM     28  C   UNL     1       6.527   5.949  17.261  0.00  0.00    +0.000 A 
ATOM     29  C   UNL     1       7.312   5.436  18.307  0.00  0.00    +0.000 A 
ATOM     30  C   UNL     1       8.211   6.255  19.002  0.00  0.00    +0.000 A 
ATOM     31  C   UNL     1       8.342   7.598  18.658  0.00  0.00    +0.000 A 
ATOM     32  C   UNL     1       7.599   8.115  17.601  0.00  0.00    +0.000 A 
ATOM     33  C   UNL     1       6.709   7.296  16.902  0.00  0.00    +0.000 A 
ENDBRANCH  27  28
BRANCH  27  34
ATOM     34  C   UNL     1       5.552   5.242  15.019  0.00  0.00    +0.000 C 
BRANCH  34  35
ATOM     35  C   UNL     1       6.781   4.686  14.338  0.00  0.00    +0.000 C 
ATOM     36  O   UNL     1       7.854   5.250  14.198  0.00  0.00    +0.000 OA
BRANCH  35  37
ATOM     37  O   UNL     1       6.552   3.460  13.799  0.00  0.00    +0.000 OA
ATOM     38  H   UNL     1       7.076   3.275  12.996  0.00  0.00    +0.000 HD
ENDBRANCH  35  37
ENDBRANCH  34  35
ENDBRANCH  27  34
ENDBRANCH  25  27
ENDBRANCH   7  23
TORSDOF 8
ENDMDL
MODEL 4
REMARK VINA RESULT:      -8.6      3.589      9.969
REMARK  Name = 
REMARK  8 active torsions:
REMARK  status: ('A' for Active; 'I' for Inactive)
REMARK    1  A    between atoms: C_2  and  C_4
REMARK    2  A    between atoms: C_9  and  C_10
REMARK    3  A    between atoms: C_16  and  C_17
REMARK    4  A    between atoms: N_19  and  C_20
REMARK    5  A    between atoms: C_20  and  C_21
REMARK    6  A    between atoms: C_20  and  C_25
REMARK    7  A    between atoms: C_21  and  C_22
REMARK    8  A    between atoms: C_22  and  O_24
REMARK                            x       y       z     vdW  Elec       q    Type
REMARK                         _______ _______ _______ _____ _____    ______ ____
ROOT
ATOM      1  C   UNL     1       0.814  10.050  19.117  0.00  0.00    +0.000 C 
ATOM      2  O   UNL     1       0.622  10.735  18.113  0.00  0.00    +0.000 OA
ATOM      3  N   UNL     1       0.316  10.437  20.359  0.00  0.00    +0.000 N 
ATOM      4  C   UNL     1       0.461   9.681  21.590  0.00  0.00    +0.000 C 
ATOM      5  C   UNL     1      -0.514  10.336  22.536  0.00  0.00    +0.000 C 
ATOM      6  C   UNL     1      -0.409  11.810  22.158  0.00  0.00    +0.000 C 
ATOM      7  C   UNL     1      -0.034  11.829  20.658  0.00  0.00    +0.000 C 
ENDROOT
BRANCH   1  13
ATOM      8  C   UNL     1       3.711   4.770  19.016  0.00  0.00    +0.000 A 
ATOM      9  C   UNL     1       2.911   4.622  20.158  0.00  0.00    +0.000 A 
ATOM     10  C   UNL     1       2.089   5.658  20.600  0.00  0.00    +0.000 A 
ATOM     11  C   UNL     1       2.104   6.816  19.831  0.00  0.00    +0.000 A 
ATOM     12  O   UNL     1       1.368   7.915  20.095  0.00  0.00    +0.000 OA
ATOM     13  C   UNL     1       1.560   8.808  19.081  0.00  0.00    +0.000 A 
ATOM     14  C   UNL     1       2.513   8.307  18.207  0.00  0.00    +0.000 A 
ATOM     15  C   UNL     1       2.854   7.005  18.680  0.00  0.00    +0.000 A 
ATOM     16  C   UNL     1       3.694   5.959  18.257  0.00  0.00    +0.000 A 
BRANCH   8  18
ATOM     17  N   UNL     1       4.985   2.787  19.482  0.00  0.00    +0.000 NA
ATOM     18  C   UNL     1       4.586   3.639  18.598  0.00  0.00    +0.000 C 
ATOM     19  N   UNL     1       4.977   3.524  17.297  0.00  0.00    +0.000 N 
ATOM     20  H   UNL     1       5.541   2.056  19.035  0.00  0.00    +0.000 HD
ATOM     21  H   UNL     1       5.802   2.957  17.140  0.00  0.00    +0.000 HD
ATOM     22  H   UNL     1       5.029   4.398  16.783  0.00  0.00    +0.000 HD
ENDBRANCH   8  18
ENDBRANCH   1  13
BRANCH   7  23
ATOM     23  C   UNL     1      -1.159  12.434  19.802  0.00  0.00    +0.000 C 
ATOM     24  O   UNL     1      -1.125  13.571  19.336  0.00  0.00    +0.000 OA
ATOM     25  N   UNL     1      -2.221  11.571  19.611  0.00  0.00    +0.000 N 
ATOM     26  H   UNL     1      -2.413  10.979  20.419  0.00  0.00    +0.000 HD
BRANCH  25  27
ATOM     27  C   UNL     1      -3.360  11.886  18.759  0.00  0.00    +0.000 C 
BRANCH  27  28
ATOM     28  C   UNL     1      -4.654  12.043  19.560  0.00  0.00    +0.000 A 
ATOM     29  C   UNL     1      -5.863  11.531  19.059  0.00  0.00    +0.000 A 
ATOM     30  C   UNL     1      -7.064  11.707  19.757  0.00  0.00    +0.000 A 
ATOM     31  C   UNL     1      -7.074  12.392  20.969  0.00  0.00    +0.000 A 
ATOM     32  C   UNL     1      -5.881  12.876  21.499  0.00  0.00    +0.000 A 
ATOM     33  C   UNL     1      -4.681  12.693  20.806  0.00  0.00    +0.000 A 
ENDBRANCH  27  28
BRANCH  27  34
ATOM     34  C   UNL     1      -3.534  10.928  17.565  0.00  0.00    +0.000 C 
BRANCH  34  35
ATOM     35  C   UNL     1      -2.680  11.251  16.361  0.00  0.00    +0.000 C 
ATOM     36  O   UNL     1      -2.821  10.813  15.230  0.00  0.00    +0.000 OA
BRANCH  35  37
ATOM     37  O   UNL     1      -1.635  12.059  16.680  0.00  0.00    +0.000 OA
ATOM     38  H   UNL     1      -1.156  12.413  15.907  0.00  0.00    +0.000 HD
ENDBRANCH  35  37
ENDBRANCH  34  35
ENDBRANCH  27  34
ENDBRANCH  25  27
ENDBRANCH   7  23
TORSDOF 8
ENDMDL
MODEL 5
REMARK VINA RESULT:      -8.6      3.606      9.989
REMARK  Name = 
REMARK  8 active torsions:
REMARK  status: ('A' for Active; 'I' for Inactive)
REMARK    1  A    between atoms: C_2  and  C_4
REMARK    2  A    between atoms: C_9  and  C_10
REMARK    3  A    between atoms: C_16  and  C_17
REMARK    4  A    between atoms: N_19  and  C_20
REMARK    5  A    between atoms: C_20  and  C_21
REMARK    6  A    between atoms: C_20  and  C_25
REMARK    7  A    between atoms: C_21  and  C_22
REMARK    8  A    between atoms: C_22  and  O_24
REMARK                            x       y       z     vdW  Elec       q    Type
REMARK                         _______ _______ _______ _____ _____    ______ ____
ROOT
ATOM      1  C   UNL     1       0.743  10.100  19.255  0.00  0.00    +0.000 C 
ATOM      2  O   UNL     1       0.572  10.831  18.280  0.00  0.00    +0.000 OA
ATOM      3  N   UNL     1       0.222  10.430  20.504  0.00  0.00    +0.000 N 
ATOM      4  C   UNL     1       0.342   9.618  21.702  0.00  0.00    +0.000 C 
ATOM      5  C   UNL     1      -0.650  10.231  22.657  0.00  0.00    +0.000 C 
ATOM      6  C   UNL     1      -0.537  11.721  22.349  0.00  0.00    +0.000 C 
ATOM      7  C   UNL     1      -0.133  11.807  20.859  0.00  0.00    +0.000 C 
ENDROOT
BRANCH   1  13
ATOM      8  C   UNL     1       3.642   4.827  18.988  0.00  0.00    +0.000 A 
ATOM      9  C   UNL     1       2.895   4.668  20.163  0.00  0.00    +0.000 A 
ATOM     10  C   UNL     1       2.092   5.699  20.648  0.00  0.00    +0.000 A 
ATOM     11  C   UNL     1       2.070   6.863  19.888  0.00  0.00    +0.000 A 
ATOM     12  O   UNL     1       1.345   7.959  20.192  0.00  0.00    +0.000 OA
ATOM     13  C   UNL     1       1.490   8.859  19.177  0.00  0.00    +0.000 A 
ATOM     14  C   UNL     1       2.404   8.366  18.258  0.00  0.00    +0.000 A 
ATOM     15  C   UNL     1       2.767   7.062  18.706  0.00  0.00    +0.000 A 
ATOM     16  C   UNL     1       3.590   6.021  18.238  0.00  0.00    +0.000 A 
BRANCH   8  18
ATOM     17  N   UNL     1       4.641   3.493  17.256  0.00  0.00    +0.000 NA
ATOM     18  C   UNL     1       4.500   3.701  18.522  0.00  0.00    +0.000 C 
ATOM     19  N   UNL     1       5.109   2.887  19.431  0.00  0.00    +0.000 N 
ATOM     20  H   UNL     1       5.284   2.716  17.100  0.00  0.00    +0.000 HD
ATOM     21  H   UNL     1       5.394   1.981  19.079  0.00  0.00    +0.000 HD
ATOM     22  H   UNL     1       4.632   2.801  20.322  0.00  0.00    +0.000 HD
ENDBRANCH   8  18
ENDBRANCH   1  13
BRANCH   7  23
ATOM     23  C   UNL     1      -1.241  12.453  20.010  0.00  0.00    +0.000 C 
ATOM     24  O   UNL     1      -1.205  13.615  19.611  0.00  0.00    +0.000 OA
ATOM     25  N   UNL     1      -2.290  11.595  19.743  0.00  0.00    +0.000 N 
ATOM     26  H   UNL     1      -2.498  10.956  20.510  0.00  0.00    +0.000 HD
BRANCH  25  27
ATOM     27  C   UNL     1      -3.410  11.950  18.881  0.00  0.00    +0.000 C 
BRANCH  27  28
ATOM     28  C   UNL     1      -4.709  12.132  19.668  0.00  0.00    +0.000 A 
ATOM     29  C   UNL     1      -4.737  12.959  20.804  0.00  0.00    +0.000 A 
ATOM     30  C   UNL     1      -5.906  13.100  21.562  0.00  0.00    +0.000 A 
ATOM     31  C   UNL     1      -7.065  12.423  21.194  0.00  0.00    +0.000 A 
ATOM     32  C   UNL     1      -7.066  11.628  20.051  0.00  0.00    +0.000 A 
ATOM     33  C   UNL     1      -5.902  11.494  19.290  0.00  0.00    +0.000 A 
ENDBRANCH  27  28
BRANCH  27  34
ATOM     34  C   UNL     1      -3.594  11.012  17.673  0.00  0.00    +0.000 C 
BRANCH  34  35
ATOM     35  C   UNL     1      -2.573  11.184  16.572  0.00  0.00    +0.000 C 
ATOM     36  O   UNL     1      -2.451  10.487  15.577  0.00  0.00    +0.000 OA
BRANCH  35  37
ATOM     37  O   UNL     1      -1.706  12.197  16.836  0.00  0.00    +0.000 OA
ATOM     38  H   UNL     1      -1.438  12.255  17.773  0.00  0.00    +0.000 HD
ENDBRANCH  35  37
ENDBRANCH  34  35
ENDBRANCH  27  34
ENDBRANCH  25  27
ENDBRANCH   7  23
TORSDOF 8
ENDMDL
MODEL 6
REMARK VINA RESULT:      -8.6      3.701      9.586
REMARK  Name = 
REMARK  8 active torsions:
REMARK  status: ('A' for Active; 'I' for Inactive)
REMARK    1  A    between atoms: C_2  and  C_4
REMARK    2  A    between atoms: C_9  and  C_10
REMARK    3  A    between atoms: C_16  and  C_17
REMARK    4  A    between atoms: N_19  and  C_20
REMARK    5  A    between atoms: C_20  and  C_21
REMARK    6  A    between atoms: C_20  and  C_25
REMARK    7  A    between atoms: C_21  and  C_22
REMARK    8  A    between atoms: C_22  and  O_24
REMARK                            x       y       z     vdW  Elec       q    Type
REMARK                         _______ _______ _______ _____ _____    ______ ____
ROOT
ATOM      1  C   UNL     1       1.517   8.676  18.967  0.00  0.00    +0.000 C 
ATOM      2  O   UNL     1       1.519   9.254  17.881  0.00  0.00    +0.000 OA
ATOM      3  N   UNL     1       0.962   9.271  20.098  0.00  0.00    +0.000 N 
ATOM      4  C   UNL     1       0.883   8.656  21.412  0.00  0.00    +0.000 C 
ATOM      5  C   UNL     1      -0.078   9.539  22.168  0.00  0.00    +0.000 C 
ATOM      6  C   UNL     1       0.266  10.932  21.648  0.00  0.00    +0.000 C 
ATOM      7  C   UNL     1       0.781  10.721  20.206  0.00  0.00    +0.000 C 
ENDROOT
BRANCH   1  13
ATOM      8  C   UNL     1       3.652   3.100  19.759  0.00  0.00    +0.000 A 
ATOM      9  C   UNL     1       2.758   3.206  20.833  0.00  0.00    +0.000 A 
ATOM     10  C   UNL     1       2.057   4.387  21.072  0.00  0.00    +0.000 A 
ATOM     11  C   UNL     1       2.290   5.424  20.176  0.00  0.00    +0.000 A 
ATOM     12  O   UNL     1       1.697   6.633  20.238  0.00  0.00    +0.000 OA
ATOM     13  C   UNL     1       2.085   7.354  19.147  0.00  0.00    +0.000 A 
ATOM     14  C   UNL     1       3.021   6.626  18.429  0.00  0.00    +0.000 A 
ATOM     15  C   UNL     1       3.141   5.364  19.083  0.00  0.00    +0.000 A 
ATOM     16  C   UNL     1       3.857   4.172  18.865  0.00  0.00    +0.000 A 
BRANCH   8  18
ATOM     17  N   UNL     1       5.264   1.451  20.435  0.00  0.00    +0.000 NA
ATOM     18  C   UNL     1       4.390   1.822  19.560  0.00  0.00    +0.000 C 
ATOM     19  N   UNL     1       4.158   1.066  18.449  0.00  0.00    +0.000 N 
ATOM     20  H   UNL     1       5.652   0.543  20.178  0.00  0.00    +0.000 HD
ATOM     21  H   UNL     1       4.891   0.409  18.209  0.00  0.00    +0.000 HD
ATOM     22  H   UNL     1       3.846   1.582  17.633  0.00  0.00    +0.000 HD
ENDBRANCH   8  18
ENDBRANCH   1  13
BRANCH   7  23
ATOM     23  C   UNL     1      -0.162  11.356  19.170  0.00  0.00    +0.000 C 
ATOM     24  O   UNL     1       0.076  12.412  18.587  0.00  0.00    +0.000 OA
ATOM     25  N   UNL     1      -1.315  10.622  18.963  0.00  0.00    +0.000 N 
ATOM     26  H   UNL     1      -1.662  10.166  19.806  0.00  0.00    +0.000 HD
BRANCH  25  27
ATOM     27  C   UNL     1      -2.314  10.974  17.963  0.00  0.00    +0.000 C 
BRANCH  27  28
ATOM     28  C   UNL     1      -3.637  11.408  18.596  0.00  0.00    +0.000 A 
ATOM     29  C   UNL     1      -4.844  10.814  18.189  0.00  0.00    +0.000 A 
ATOM     30  C   UNL     1      -6.068  11.232  18.726  0.00  0.00    +0.000 A 
ATOM     31  C   UNL     1      -6.104  12.245  19.681  0.00  0.00    +0.000 A 
ATOM     32  C   UNL     1      -4.916  12.819  20.122  0.00  0.00    +0.000 A 
ATOM     33  C   UNL     1      -3.694  12.397  19.593  0.00  0.00    +0.000 A 
ENDBRANCH  27  28
BRANCH  27  34
ATOM     34  C   UNL     1      -2.519   9.901  16.877  0.00  0.00    +0.000 C 
BRANCH  34  35
ATOM     35  C   UNL     1      -2.963  10.431  15.533  0.00  0.00    +0.000 C 
ATOM     36  O   UNL     1      -3.605   9.828  14.688  0.00  0.00    +0.000 OA
BRANCH  35  37
ATOM     37  O   UNL     1      -2.497  11.687  15.303  0.00  0.00    +0.000 OA
ATOM     38  H   UNL     1      -3.191  12.373  15.295  0.00  0.00    +0.000 HD
ENDBRANCH  35  37
ENDBRANCH  34  35
ENDBRANCH  27  34
ENDBRANCH  25  27
ENDBRANCH   7  23
TORSDOF 8
ENDMDL
MODEL 7
REMARK VINA RESULT:      -8.6      3.256     10.027
REMARK  Name = 
REMARK  8 active torsions:
REMARK  status: ('A' for Active; 'I' for Inactive)
REMARK    1  A    between atoms: C_2  and  C_4
REMARK    2  A    between atoms: C_9  and  C_10
REMARK    3  A    between atoms: C_16  and  C_17
REMARK    4  A    between atoms: N_19  and  C_20
REMARK    5  A    between atoms: C_20  and  C_21
REMARK    6  A    between atoms: C_20  and  C_25
REMARK    7  A    between atoms: C_21  and  C_22
REMARK    8  A    between atoms: C_22  and  O_24
REMARK                            x       y       z     vdW  Elec       q    Type
REMARK                         _______ _______ _______ _____ _____    ______ ____
ROOT
ATOM      1  C   UNL     1       0.666  10.251  19.525  0.00  0.00    +0.000 C 
ATOM      2  O   UNL     1       0.542  11.040  18.588  0.00  0.00    +0.000 OA
ATOM      3  N   UNL     1       0.095  10.513  20.767  0.00  0.00    +0.000 N 
ATOM      4  C   UNL     1       0.157   9.631  21.919  0.00  0.00    +0.000 C 
ATOM      5  C   UNL     1      -0.871  10.197  22.866  0.00  0.00    +0.000 C 
ATOM      6  C   UNL     1      -0.732  11.701  22.652  0.00  0.00    +0.000 C 
ATOM      7  C   UNL     1      -0.265  11.871  21.188  0.00  0.00    +0.000 C 
ENDROOT
BRANCH   1  13
ATOM      8  C   UNL     1       3.933   5.223  18.957  0.00  0.00    +0.000 A 
ATOM      9  C   UNL     1       4.297   5.917  17.795  0.00  0.00    +0.000 A 
ATOM     10  C   UNL     1       3.722   7.150  17.485  0.00  0.00    +0.000 A 
ATOM     11  C   UNL     1       2.798   7.638  18.402  0.00  0.00    +0.000 A 
ATOM     12  O   UNL     1       2.150   8.814  18.278  0.00  0.00    +0.000 OA
ATOM     13  C   UNL     1       1.406   9.010  19.404  0.00  0.00    +0.000 A 
ATOM     14  C   UNL     1       1.505   7.890  20.216  0.00  0.00    +0.000 A 
ATOM     15  C   UNL     1       2.424   7.006  19.578  0.00  0.00    +0.000 A 
ATOM     16  C   UNL     1       2.996   5.754  19.869  0.00  0.00    +0.000 A 
BRANCH   8  18
ATOM     17  N   UNL     1       5.745   3.654  18.776  0.00  0.00    +0.000 NA
ATOM     18  C   UNL     1       4.563   3.901  19.232  0.00  0.00    +0.000 C 
ATOM     19  N   UNL     1       3.882   2.955  19.941  0.00  0.00    +0.000 N 
ATOM     20  H   UNL     1       6.050   2.729  19.079  0.00  0.00    +0.000 HD
ATOM     21  H   UNL     1       4.206   2.004  19.818  0.00  0.00    +0.000 HD
ATOM     22  H   UNL     1       2.871   3.011  19.874  0.00  0.00    +0.000 HD
ENDBRANCH   8  18
ENDBRANCH   1  13
BRANCH   7  23
ATOM     23  C   UNL     1      -1.330  12.576  20.332  0.00  0.00    +0.000 C 
ATOM     24  O   UNL     1      -1.220  13.729  19.920  0.00  0.00    +0.000 OA
ATOM     25  N   UNL     1      -2.432  11.784  20.075  0.00  0.00    +0.000 N 
ATOM     26  H   UNL     1      -2.679  11.169  20.850  0.00  0.00    +0.000 HD
BRANCH  25  27
ATOM     27  C   UNL     1      -3.528  12.200  19.210  0.00  0.00    +0.000 C 
BRANCH  27  28
ATOM     28  C   UNL     1      -4.852  12.310  19.968  0.00  0.00    +0.000 A 
ATOM     29  C   UNL     1      -6.042  11.843  19.384  0.00  0.00    +0.000 A 
ATOM     30  C   UNL     1      -7.269  11.977  20.045  0.00  0.00    +0.000 A 
ATOM     31  C   UNL     1      -7.326  12.576  21.301  0.00  0.00    +0.000 A 
ATOM     32  C   UNL     1      -6.153  13.013  21.910  0.00  0.00    +0.000 A 
ATOM     33  C   UNL     1      -4.927  12.871  21.254  0.00  0.00    +0.000 A 
ENDBRANCH  27  28
BRANCH  27  34
ATOM     34  C   UNL     1      -3.666  11.362  17.925  0.00  0.00    +0.000 C 
BRANCH  34  35
ATOM     35  C   UNL     1      -2.381  11.157  17.157  0.00  0.00    +0.000 C 
ATOM     36  O   UNL     1      -1.961  10.102  16.709  0.00  0.00    +0.000 OA
BRANCH  35  37
ATOM     37  O   UNL     1      -1.655  12.302  17.067  0.00  0.00    +0.000 OA
ATOM     38  H   UNL     1      -1.890  12.862  16.303  0.00  0.00    +0.000 HD
ENDBRANCH  35  37
ENDBRANCH  34  35
ENDBRANCH  27  34
ENDBRANCH  25  27
ENDBRANCH   7  23
TORSDOF 8
ENDMDL
MODEL 8
REMARK VINA RESULT:      -8.6      3.120      9.690
REMARK  Name = 
REMARK  8 active torsions:
REMARK  status: ('A' for Active; 'I' for Inactive)
REMARK    1  A    between atoms: C_2  and  C_4
REMARK    2  A    between atoms: C_9  and  C_10
REMARK    3  A    between atoms: C_16  and  C_17
REMARK    4  A    between atoms: N_19  and  C_20
REMARK    5  A    between atoms: C_20  and  C_21
REMARK    6  A    between atoms: C_20  and  C_25
REMARK    7  A    between atoms: C_21  and  C_22
REMARK    8  A    between atoms: C_22  and  O_24
REMARK                            x       y       z     vdW  Elec       q    Type
REMARK                         _______ _______ _______ _____ _____    ______ ____
ROOT
ATOM      1  C   UNL     1       1.550   9.150  19.323  0.00  0.00    +0.000 C 
ATOM      2  O   UNL     1       1.728   9.997  18.448  0.00  0.00    +0.000 OA
ATOM      3  N   UNL     1       0.847   9.454  20.486  0.00  0.00    +0.000 N 
ATOM      4  C   UNL     1       0.557   8.516  21.557  0.00  0.00    +0.000 C 
ATOM      5  C   UNL     1      -0.482   9.224  22.388  0.00  0.00    +0.000 C 
ATOM      6  C   UNL     1      -0.029  10.680  22.324  0.00  0.00    +0.000 C 
ATOM      7  C   UNL     1       0.689  10.831  20.963  0.00  0.00    +0.000 C 
ENDROOT
BRANCH   1  13
ATOM      8  C   UNL     1       3.845   3.607  18.783  0.00  0.00    +0.000 A 
ATOM      9  C   UNL     1       4.368   4.232  17.642  0.00  0.00    +0.000 A 
ATOM     10  C   UNL     1       4.042   5.552  17.333  0.00  0.00    +0.000 A 
ATOM     11  C   UNL     1       3.196   6.196  18.228  0.00  0.00    +0.000 A 
ATOM     12  O   UNL     1       2.781   7.473  18.101  0.00  0.00    +0.000 OA
ATOM     13  C   UNL     1       2.050   7.794  19.207  0.00  0.00    +0.000 A 
ATOM     14  C   UNL     1       1.914   6.668  20.006  0.00  0.00    +0.000 A 
ATOM     15  C   UNL     1       2.673   5.635  19.383  0.00  0.00    +0.000 A 
ATOM     16  C   UNL     1       2.994   4.295  19.673  0.00  0.00    +0.000 A 
BRANCH   8  18
ATOM     17  N   UNL     1       5.037   1.921  20.013  0.00  0.00    +0.000 NA
ATOM     18  C   UNL     1       4.210   2.189  19.058  0.00  0.00    +0.000 C 
ATOM     19  N   UNL     1       3.688   1.190  18.291  0.00  0.00    +0.000 N 
ATOM     20  H   UNL     1       5.154   0.911  20.100  0.00  0.00    +0.000 HD
ATOM     21  H   UNL     1       4.204   0.318  18.306  0.00  0.00    +0.000 HD
ATOM     22  H   UNL     1       3.444   1.456  17.343  0.00  0.00    +0.000 HD
ENDBRANCH   8  18
ENDBRANCH   1  13
BRANCH   7  23
ATOM     23  C   UNL     1      -0.072  11.780  20.024  0.00  0.00    +0.000 C 
ATOM     24  O   UNL     1       0.458  12.706  19.412  0.00  0.00    +0.000 OA
ATOM     25  N   UNL     1      -1.421  11.494  19.939  0.00  0.00    +0.000 N 
ATOM     26  H   UNL     1      -1.822  11.163  20.816  0.00  0.00    +0.000 HD
BRANCH  25  27
ATOM     27  C   UNL     1      -2.330  12.197  19.042  0.00  0.00    +0.000 C 
BRANCH  27  28
ATOM     28  C   UNL     1      -3.735  12.331  19.633  0.00  0.00    +0.000 A 
ATOM     29  C   UNL     1      -3.903  12.703  20.977  0.00  0.00    +0.000 A 
ATOM     30  C   UNL     1      -5.180  12.786  21.546  0.00  0.00    +0.000 A 
ATOM     31  C   UNL     1      -6.307  12.503  20.779  0.00  0.00    +0.000 A 
ATOM     32  C   UNL     1      -6.162  12.166  19.437  0.00  0.00    +0.000 A 
ATOM     33  C   UNL     1      -4.888  12.093  18.867  0.00  0.00    +0.000 A 
ENDBRANCH  27  28
BRANCH  27  34
ATOM     34  C   UNL     1      -2.358  11.632  17.609  0.00  0.00    +0.000 C 
BRANCH  34  35
ATOM     35  C   UNL     1      -2.238  10.129  17.515  0.00  0.00    +0.000 C 
ATOM     36  O   UNL     1      -3.132   9.315  17.683  0.00  0.00    +0.000 OA
BRANCH  35  37
ATOM     37  O   UNL     1      -0.958   9.734  17.285  0.00  0.00    +0.000 OA
ATOM     38  H   UNL     1      -0.831   8.767  17.306  0.00  0.00    +0.000 HD
ENDBRANCH  35  37
ENDBRANCH  34  35
ENDBRANCH  27  34
ENDBRANCH  25  27
ENDBRANCH   7  23
TORSDOF 8
ENDMDL
MODEL 9
REMARK VINA RESULT:      -8.5      2.745      4.418
REMARK  Name = 
REMARK  8 active torsions:
REMARK  status: ('A' for Active; 'I' for Inactive)
REMARK    1  A    between atoms: C_2  and  C_4
REMARK    2  A    between atoms: C_9  and  C_10
REMARK    3  A    between atoms: C_16  and  C_17
REMARK    4  A    between atoms: N_19  and  C_20
REMARK    5  A    between atoms: C_20  and  C_21
REMARK    6  A    between atoms: C_20  and  C_25
REMARK    7  A    between atoms: C_21  and  C_22
REMARK    8  A    between atoms: C_22  and  O_24
REMARK                            x       y       z     vdW  Elec       q    Type
REMARK                         _______ _______ _______ _____ _____    ______ ____
ROOT
ATOM      1  C   UNL     1       0.778   9.667  21.402  0.00  0.00    +0.000 C 
ATOM      2  O   UNL     1       1.513   8.932  22.062  0.00  0.00    +0.000 OA
ATOM      3  N   UNL     1       0.728   9.576  20.014  0.00  0.00    +0.000 N 
ATOM      4  C   UNL     1      -0.129  10.374  19.154  0.00  0.00    +0.000 C 
ATOM      5  C   UNL     1      -0.056   9.675  17.820  0.00  0.00    +0.000 C 
ATOM      6  C   UNL     1       1.397   9.212  17.762  0.00  0.00    +0.000 C 
ATOM      7  C   UNL     1       1.818   8.984  19.232  0.00  0.00    +0.000 C 
ENDROOT
BRANCH   1  13
ATOM      8  C   UNL     1      -2.756  13.947  23.741  0.00  0.00    +0.000 A 
ATOM      9  C   UNL     1      -1.744  14.718  23.155  0.00  0.00    +0.000 A 
ATOM     10  C   UNL     1      -0.656  14.117  22.524  0.00  0.00    +0.000 A 
ATOM     11  C   UNL     1      -0.656  12.727  22.503  0.00  0.00    +0.000 A 
ATOM     12  O   UNL     1       0.304  11.973  21.931  0.00  0.00    +0.000 OA
ATOM     13  C   UNL     1      -0.077  10.665  22.014  0.00  0.00    +0.000 A 
ATOM     14  C   UNL     1      -1.254  10.579  22.742  0.00  0.00    +0.000 A 
ATOM     15  C   UNL     1      -1.644  11.917  23.044  0.00  0.00    +0.000 A 
ATOM     16  C   UNL     1      -2.727  12.537  23.694  0.00  0.00    +0.000 A 
BRANCH   8  18
ATOM     17  N   UNL     1      -5.098  14.250  24.189  0.00  0.00    +0.000 NA
ATOM     18  C   UNL     1      -3.888  14.639  24.419  0.00  0.00    +0.000 C 
ATOM     19  N   UNL     1      -3.644  15.687  25.256  0.00  0.00    +0.000 N 
ATOM     20  H   UNL     1      -5.752  14.793  24.753  0.00  0.00    +0.000 HD
ATOM     21  H   UNL     1      -4.430  16.303  25.421  0.00  0.00    +0.000 HD
ATOM     22  H   UNL     1      -2.800  16.213  25.054  0.00  0.00    +0.000 HD
ENDBRANCH   8  18
ENDBRANCH   1  13
BRANCH   7  23
ATOM     23  C   UNL     1       2.112   7.501  19.512  0.00  0.00    +0.000 C 
ATOM     24  O   UNL     1       1.758   6.916  20.535  0.00  0.00    +0.000 OA
ATOM     25  N   UNL     1       2.823   6.887  18.499  0.00  0.00    +0.000 N 
ATOM     26  H   UNL     1       3.504   7.500  18.053  0.00  0.00    +0.000 HD
BRANCH  25  27
ATOM     27  C   UNL     1       3.138   5.464  18.496  0.00  0.00    +0.000 C 
BRANCH  27  28
ATOM     28  C   UNL     1       4.556   5.189  17.995  0.00  0.00    +0.000 A 
ATOM     29  C   UNL     1       4.761   4.642  16.717  0.00  0.00    +0.000 A 
ATOM     30  C   UNL     1       6.051   4.341  16.261  0.00  0.00    +0.000 A 
ATOM     31  C   UNL     1       7.155   4.586  17.073  0.00  0.00    +0.000 A 
ATOM     32  C   UNL     1       6.974   5.160  18.328  0.00  0.00    +0.000 A 
ATOM     33  C   UNL     1       5.688   5.469  18.779  0.00  0.00    +0.000 A 
ENDBRANCH  27  28
BRANCH  27  34
ATOM     34  C   UNL     1       2.092   4.592  17.776  0.00  0.00    +0.000 C 
BRANCH  34  35
ATOM     35  C   UNL     1       1.358   3.614  18.664  0.00  0.00    +0.000 C 
ATOM     36  O   UNL     1       0.941   2.512  18.345  0.00  0.00    +0.000 OA
BRANCH  35  37
ATOM     37  O   UNL     1       1.124   4.127  19.900  0.00  0.00    +0.000 OA
ATOM     38  H   UNL     1       1.741   4.838  20.159  0.00  0.00    +0.000 HD
ENDBRANCH  35  37
ENDBRANCH  34  35
ENDBRANCH  27  34
ENDBRANCH  25  27
ENDBRANCH   7  23
TORSDOF 8
ENDMDL
