MODEL 1
REMARK VINA RESULT:      -7.5      0.000      0.000
REMARK  Name = 
REMARK  13 active torsions:
REMARK  status: ('A' for Active; 'I' for Inactive)
REMARK    1  A    between atoms: O_1  and  C_2
REMARK    2  A    between atoms: C_2  and  C_3
REMARK    3  A    between atoms: C_2  and  C_28
REMARK    4  A    between atoms: C_3  and  N_4
REMARK    5  A    between atoms: N_4  and  C_5
REMARK    6  A    between atoms: C_5  and  C_6
REMARK    7  A    between atoms: C_6  and  O_7
REMARK    8  A    between atoms: O_7  and  C_8
REMARK    9  A    between atoms: C_11  and  C_12
REMARK   10  A    between atoms: C_15  and  C_16
REMARK   11  A    between atoms: C_16  and  O_17
REMARK   12  A    between atoms: O_17  and  C_18
REMARK   13  A    between atoms: C_18  and  C_19
REMARK                            x       y       z     vdW  Elec       q    Type
REMARK                         _______ _______ _______ _____ _____    ______ ____
ROOT
ATOM      1  C   UNL     1       2.063   8.462  18.509  0.00  0.00    +0.000 A 
ATOM      2  C   UNL     1       1.313   9.609  18.245  0.00  0.00    +0.000 A 
ATOM      3  C   UNL     1       0.540  10.194  19.238  0.00  0.00    +0.000 A 
ATOM      4  C   UNL     1       0.482   9.636  20.514  0.00  0.00    +0.000 A 
ATOM      5  C   UNL     1       1.229   8.483  20.787  0.00  0.00    +0.000 A 
ATOM      6  C   UNL     1       2.016   7.897  19.788  0.00  0.00    +0.000 A 
ENDROOT
BRANCH   4   7
ATOM      7  C   UNL     1      -0.354  10.275  21.503  0.00  0.00    +0.000 A 
ATOM      8  C   UNL     1      -0.578   9.835  22.785  0.00  0.00    +0.000 A 
ATOM      9  O   UNL     1      -1.461  10.687  23.371  0.00  0.00    +0.000 OA
ATOM     10  C   UNL     1      -1.717  11.626  22.404  0.00  0.00    +0.000 A 
ATOM     11  N   UNL     1      -1.102  11.400  21.255  0.00  0.00    +0.000 NA
BRANCH  10  12
ATOM     12  C   UNL     1      -2.622  12.739  22.783  0.00  0.00    +0.000 C 
BRANCH  12  13
ATOM     13  O   UNL     1      -3.937  12.345  22.401  0.00  0.00    +0.000 OA
BRANCH  13  14
ATOM     14  C   UNL     1      -4.493  13.187  21.399  0.00  0.00    +0.000 C 
BRANCH  14  15
ATOM     15  C   UNL     1      -5.263  12.342  20.414  0.00  0.00    +0.000 A 
ATOM     16  C   UNL     1      -6.538  11.842  20.725  0.00  0.00    +0.000 A 
ATOM     17  C   UNL     1      -7.240  11.058  19.810  0.00  0.00    +0.000 A 
ATOM     18  C   UNL     1      -6.686  10.777  18.565  0.00  0.00    +0.000 A 
ATOM     19  C   UNL     1      -5.433  11.287  18.231  0.00  0.00    +0.000 A 
ATOM     20  C   UNL     1      -4.727  12.070  19.148  0.00  0.00    +0.000 A 
ENDBRANCH  14  15
ENDBRANCH  13  14
ENDBRANCH  12  13
ENDBRANCH  10  12
ENDBRANCH   4   7
BRANCH   1  21
ATOM     21  O   UNL     1       2.868   7.836  17.590  0.00  0.00    +0.000 OA
BRANCH  21  22
ATOM     22  C   UNL     1       3.015   6.426  17.818  0.00  0.00    +0.000 C 
BRANCH  22  23
ATOM     23  C   UNL     1       4.469   5.990  17.685  0.00  0.00    +0.000 C 
BRANCH  23  24
ATOM     24  N   UNL     1       4.571   4.864  16.748  0.00  0.00    +0.000 NA
ATOM     25  H   UNL     1       4.399   5.248  15.816  0.00  0.00    +0.000 HD
BRANCH  24  26
ATOM     26  C   UNL     1       3.558   3.847  17.065  0.00  0.00    +0.000 C 
BRANCH  26  27
ATOM     27  C   UNL     1       4.036   2.942  18.219  0.00  0.00    +0.000 C 
BRANCH  27  28
ATOM     28  C   UNL     1       3.050   2.941  19.354  0.00  0.00    +0.000 A 
ATOM     29  C   UNL     1       3.418   2.635  20.669  0.00  0.00    +0.000 A 
ATOM     30  C   UNL     1       2.453   2.629  21.672  0.00  0.00    +0.000 A 
ATOM     31  C   UNL     1       1.142   2.921  21.320  0.00  0.00    +0.000 A 
ATOM     32  N   UNL     1       0.741   3.210  20.060  0.00  0.00    +0.000 NA
ATOM     33  C   UNL     1       1.705   3.215  19.110  0.00  0.00    +0.000 A 
ENDBRANCH  27  28
BRANCH  27  34
ATOM     34  O   UNL     1       4.217   1.606  17.739  0.00  0.00    +0.000 OA
ATOM     35  H   UNL     1       3.519   1.478  17.076  0.00  0.00    +0.000 HD
ENDBRANCH  27  34
ENDBRANCH  26  27
ENDBRANCH  24  26
ENDBRANCH  23  24
ENDBRANCH  22  23
ENDBRANCH  21  22
ENDBRANCH   1  21
TORSDOF 13
ENDMDL
MODEL 2
REMARK VINA RESULT:      -7.5      3.263     10.978
REMARK  Name = 
REMARK  13 active torsions:
REMARK  status: ('A' for Active; 'I' for Inactive)
REMARK    1  A    between atoms: O_1  and  C_2
REMARK    2  A    between atoms: C_2  and  C_3
REMARK    3  A    between atoms: C_2  and  C_28
REMARK    4  A    between atoms: C_3  and  N_4
REMARK    5  A    between atoms: N_4  and  C_5
REMARK    6  A    between atoms: C_5  and  C_6
REMARK    7  A    between atoms: C_6  and  O_7
REMARK    8  A    between atoms: O_7  and  C_8
REMARK    9  A    between atoms: C_11  and  C_12
REMARK   10  A    between atoms: C_15  and  C_16
REMARK   11  A    between atoms: C_16  and  O_17
REMARK   12  A    between atoms: O_17  and  C_18
REMARK   13  A    between atoms: C_18  and  C_19
REMARK                            x       y       z     vdW  Elec       q    Type
REMARK                         _______ _______ _______ _____ _____    ______ ____
ROOT
ATOM      1  C   UNL     1       0.918  10.000  19.390  0.00  0.00    +0.000 A 
ATOM      2  C   UNL     1       1.528   9.642  18.187  0.00  0.00    +0.000 A 
ATOM      3  C   UNL     1       2.194   8.432  18.062  0.00  0.00    +0.000 A 
ATOM      4  C   UNL     1       2.283   7.556  19.142  0.00  0.00    +0.000 A 
ATOM      5  C   UNL     1       1.676   7.907  20.355  0.00  0.00    +0.000 A 
ATOM      6  C   UNL     1       0.996   9.125  20.479  0.00  0.00    +0.000 A 
ENDROOT
BRANCH   4   7
ATOM      7  C   UNL     1       3.005   6.318  18.963  0.00  0.00    +0.000 A 
ATOM      8  C   UNL     1       2.619   5.079  19.414  0.00  0.00    +0.000 A 
ATOM      9  O   UNL     1       3.596   4.191  19.084  0.00  0.00    +0.000 OA
ATOM     10  C   UNL     1       4.530   4.948  18.424  0.00  0.00    +0.000 A 
ATOM     11  N   UNL     1       4.235   6.235  18.358  0.00  0.00    +0.000 NA
BRANCH  10  12
ATOM     12  C   UNL     1       5.709   4.226  17.885  0.00  0.00    +0.000 C 
BRANCH  12  13
ATOM     13  O   UNL     1       5.385   3.851  16.550  0.00  0.00    +0.000 OA
BRANCH  13  14
ATOM     14  C   UNL     1       5.332   4.963  15.665  0.00  0.00    +0.000 C 
BRANCH  14  15
ATOM     15  C   UNL     1       5.929   4.568  14.336  0.00  0.00    +0.000 A 
ATOM     16  C   UNL     1       5.251   3.702  13.464  0.00  0.00    +0.000 A 
ATOM     17  C   UNL     1       5.813   3.337  12.240  0.00  0.00    +0.000 A 
ATOM     18  C   UNL     1       7.051   3.848  11.864  0.00  0.00    +0.000 A 
ATOM     19  C   UNL     1       7.725   4.729  12.707  0.00  0.00    +0.000 A 
ATOM     20  C   UNL     1       7.165   5.092  13.935  0.00  0.00    +0.000 A 
ENDBRANCH  14  15
ENDBRANCH  13  14
ENDBRANCH  12  13
ENDBRANCH  10  12
ENDBRANCH   4   7
BRANCH   1  21
ATOM     21  O   UNL     1       0.223  11.167  19.588  0.00  0.00    +0.000 OA
BRANCH  21  22
ATOM     22  C   UNL     1      -1.197  10.984  19.683  0.00  0.00    +0.000 C 
BRANCH  22  23
ATOM     23  C   UNL     1      -1.948  12.261  19.325  0.00  0.00    +0.000 C 
BRANCH  23  24
ATOM     24  N   UNL     1      -2.265  12.270  17.892  0.00  0.00    +0.000 NA
ATOM     25  H   UNL     1      -3.101  12.849  17.785  0.00  0.00    +0.000 HD
BRANCH  24  26
ATOM     26  C   UNL     1      -2.540  10.904  17.424  0.00  0.00    +0.000 C 
BRANCH  26  27
ATOM     27  C   UNL     1      -3.775  10.882  16.499  0.00  0.00    +0.000 C 
BRANCH  27  28
ATOM     28  C   UNL     1      -5.010  11.327  17.232  0.00  0.00    +0.000 A 
ATOM     29  C   UNL     1      -5.715  12.483  16.881  0.00  0.00    +0.000 A 
ATOM     30  C   UNL     1      -6.839  12.855  17.612  0.00  0.00    +0.000 A 
ATOM     31  C   UNL     1      -7.215  12.057  18.684  0.00  0.00    +0.000 A 
ATOM     32  N   UNL     1      -6.555  10.939  19.065  0.00  0.00    +0.000 NA
ATOM     33  C   UNL     1      -5.472  10.601  18.328  0.00  0.00    +0.000 A 
ENDBRANCH  27  28
BRANCH  27  34
ATOM     34  O   UNL     1      -3.548  11.738  15.374  0.00  0.00    +0.000 OA
ATOM     35  H   UNL     1      -3.485  12.633  15.745  0.00  0.00    +0.000 HD
ENDBRANCH  27  34
ENDBRANCH  26  27
ENDBRANCH  24  26
ENDBRANCH  23  24
ENDBRANCH  22  23
ENDBRANCH  21  22
ENDBRANCH   1  21
TORSDOF 13
ENDMDL
MODEL 3
REMARK VINA RESULT:      -7.4      2.770      4.687
REMARK  Name = 
REMARK  13 active torsions:
REMARK  status: ('A' for Active; 'I' for Inactive)
REMARK    1  A    between atoms: O_1  and  C_2
REMARK    2  A    between atoms: C_2  and  C_3
REMARK    3  A    between atoms: C_2  and  C_28
REMARK    4  A    between atoms: C_3  and  N_4
REMARK    5  A    between atoms: N_4  and  C_5
REMARK    6  A    between atoms: C_5  and  C_6
REMARK    7  A    between atoms: C_6  and  O_7
REMARK    8  A    between atoms: O_7  and  C_8
REMARK    9  A    between atoms: C_11  and  C_12
REMARK   10  A    between atoms: C_15  and  C_16
REMARK   11  A    between atoms: C_16  and  O_17
REMARK   12  A    between atoms: O_17  and  C_18
REMARK   13  A    between atoms: C_18  and  C_19
REMARK                            x       y       z     vdW  Elec       q    Type
REMARK                         _______ _______ _______ _____ _____    ______ ____
ROOT
ATOM      1  C   UNL     1       3.062   3.968  20.011  0.00  0.00    +0.000 A 
ATOM      2  C   UNL     1       3.702   5.141  19.608  0.00  0.00    +0.000 A 
ATOM      3  C   UNL     1       3.117   6.380  19.828  0.00  0.00    +0.000 A 
ATOM      4  C   UNL     1       1.868   6.476  20.438  0.00  0.00    +0.000 A 
ATOM      5  C   UNL     1       1.215   5.303  20.843  0.00  0.00    +0.000 A 
ATOM      6  C   UNL     1       1.810   4.054  20.629  0.00  0.00    +0.000 A 
ENDROOT
BRANCH   4   7
ATOM      7  C   UNL     1       1.296   7.789  20.624  0.00  0.00    +0.000 A 
ATOM      8  C   UNL     1       0.429   8.164  21.621  0.00  0.00    +0.000 A 
ATOM      9  O   UNL     1       0.089   9.465  21.412  0.00  0.00    +0.000 OA
ATOM     10  C   UNL     1       0.793   9.821  20.290  0.00  0.00    +0.000 A 
ATOM     11  N   UNL     1       1.503   8.839  19.763  0.00  0.00    +0.000 NA
BRANCH  10  12
ATOM     12  C   UNL     1       0.663  11.231  19.845  0.00  0.00    +0.000 C 
BRANCH  12  13
ATOM     13  O   UNL     1      -0.189  11.223  18.703  0.00  0.00    +0.000 OA
BRANCH  13  14
ATOM     14  C   UNL     1      -1.560  11.393  19.039  0.00  0.00    +0.000 C 
BRANCH  14  15
ATOM     15  C   UNL     1      -2.409  11.062  17.836  0.00  0.00    +0.000 A 
ATOM     16  C   UNL     1      -1.936  10.212  16.824  0.00  0.00    +0.000 A 
ATOM     17  C   UNL     1      -2.726   9.916  15.713  0.00  0.00    +0.000 A 
ATOM     18  C   UNL     1      -4.006  10.451  15.607  0.00  0.00    +0.000 A 
ATOM     19  C   UNL     1      -4.500  11.276  16.615  0.00  0.00    +0.000 A 
ATOM     20  C   UNL     1      -3.708  11.576  17.727  0.00  0.00    +0.000 A 
ENDBRANCH  14  15
ENDBRANCH  13  14
ENDBRANCH  12  13
ENDBRANCH  10  12
ENDBRANCH   4   7
BRANCH   1  21
ATOM     21  O   UNL     1       3.582   2.708  19.850  0.00  0.00    +0.000 OA
BRANCH  21  22
ATOM     22  C   UNL     1       2.870   1.908  18.894  0.00  0.00    +0.000 C 
BRANCH  22  23
ATOM     23  C   UNL     1       2.859   2.564  17.518  0.00  0.00    +0.000 C 
BRANCH  23  24
ATOM     24  N   UNL     1       4.234   2.839  17.083  0.00  0.00    +0.000 NA
ATOM     25  H   UNL     1       4.803   2.881  17.932  0.00  0.00    +0.000 HD
BRANCH  24  26
ATOM     26  C   UNL     1       4.296   4.126  16.376  0.00  0.00    +0.000 C 
BRANCH  26  27
ATOM     27  C   UNL     1       5.727   4.403  15.871  0.00  0.00    +0.000 C 
BRANCH  27  28
ATOM     28  C   UNL     1       6.515   5.195  16.877  0.00  0.00    +0.000 A 
ATOM     29  C   UNL     1       6.692   6.578  16.772  0.00  0.00    +0.000 A 
ATOM     30  C   UNL     1       7.451   7.251  17.724  0.00  0.00    +0.000 A 
ATOM     31  C   UNL     1       8.021   6.509  18.750  0.00  0.00    +0.000 A 
ATOM     32  N   UNL     1       7.886   5.169  18.882  0.00  0.00    +0.000 NA
ATOM     33  C   UNL     1       7.134   4.547  17.944  0.00  0.00    +0.000 A 
ENDBRANCH  27  28
BRANCH  27  34
ATOM     34  O   UNL     1       6.391   3.163  15.607  0.00  0.00    +0.000 OA
ATOM     35  H   UNL     1       5.755   2.638  15.095  0.00  0.00    +0.000 HD
ENDBRANCH  27  34
ENDBRANCH  26  27
ENDBRANCH  24  26
ENDBRANCH  23  24
ENDBRANCH  22  23
ENDBRANCH  21  22
ENDBRANCH   1  21
TORSDOF 13
ENDMDL
MODEL 4
REMARK VINA RESULT:      -7.3      2.081     10.415
REMARK  Name = 
REMARK  13 active torsions:
REMARK  status: ('A' for Active; 'I' for Inactive)
REMARK    1  A    between atoms: O_1  and  C_2
REMARK    2  A    between atoms: C_2  and  C_3
REMARK    3  A    between atoms: C_2  and  C_28
REMARK    4  A    between atoms: C_3  and  N_4
REMARK    5  A    between atoms: N_4  and  C_5
REMARK    6  A    between atoms: C_5  and  C_6
REMARK    7  A    between atoms: C_6  and  O_7
REMARK    8  A    between atoms: O_7  and  C_8
REMARK    9  A    between atoms: C_11  and  C_12
REMARK   10  A    between atoms: C_15  and  C_16
REMARK   11  A    between atoms: C_16  and  O_17
REMARK   12  A    between atoms: O_17  and  C_18
REMARK   13  A    between atoms: C_18  and  C_19
REMARK                            x       y       z     vdW  Elec       q    Type
REMARK                         _______ _______ _______ _____ _____    ______ ____
ROOT
ATOM      1  C   UNL     1       0.660   9.820  19.821  0.00  0.00    +0.000 A 
ATOM      2  C   UNL     1       1.200   8.736  20.517  0.00  0.00    +0.000 A 
ATOM      3  C   UNL     1       2.053   7.843  19.886  0.00  0.00    +0.000 A 
ATOM      4  C   UNL     1       2.374   7.999  18.539  0.00  0.00    +0.000 A 
ATOM      5  C   UNL     1       1.835   9.081  17.831  0.00  0.00    +0.000 A 
ATOM      6  C   UNL     1       0.981   9.988  18.470  0.00  0.00    +0.000 A 
ENDROOT
BRANCH   4   7
ATOM      7  C   UNL     1       3.251   7.029  17.927  0.00  0.00    +0.000 A 
ATOM      8  C   UNL     1       4.321   7.301  17.109  0.00  0.00    +0.000 A 
ATOM      9  O   UNL     1       4.851   6.115  16.705  0.00  0.00    +0.000 OA
ATOM     10  C   UNL     1       4.073   5.170  17.323  0.00  0.00    +0.000 A 
ATOM     11  N   UNL     1       3.080   5.670  18.038  0.00  0.00    +0.000 NA
BRANCH  10  12
ATOM     12  C   UNL     1       4.455   3.752  17.109  0.00  0.00    +0.000 C 
BRANCH  12  13
ATOM     13  O   UNL     1       3.244   3.022  16.938  0.00  0.00    +0.000 OA
BRANCH  13  14
ATOM     14  C   UNL     1       3.161   1.887  17.791  0.00  0.00    +0.000 C 
BRANCH  14  15
ATOM     15  C   UNL     1       2.567   2.304  19.114  0.00  0.00    +0.000 A 
ATOM     16  C   UNL     1       3.347   2.348  20.280  0.00  0.00    +0.000 A 
ATOM     17  C   UNL     1       2.787   2.731  21.500  0.00  0.00    +0.000 A 
ATOM     18  C   UNL     1       1.445   3.091  21.566  0.00  0.00    +0.000 A 
ATOM     19  C   UNL     1       0.663   3.077  20.413  0.00  0.00    +0.000 A 
ATOM     20  C   UNL     1       1.222   2.692  19.191  0.00  0.00    +0.000 A 
ENDBRANCH  14  15
ENDBRANCH  13  14
ENDBRANCH  12  13
ENDBRANCH  10  12
ENDBRANCH   4   7
BRANCH   1  21
ATOM     21  O   UNL     1      -0.173  10.758  20.377  0.00  0.00    +0.000 OA
BRANCH  21  22
ATOM     22  C   UNL     1      -0.811  11.606  19.411  0.00  0.00    +0.000 C 
BRANCH  22  23
ATOM     23  C   UNL     1      -0.435  13.069  19.621  0.00  0.00    +0.000 C 
BRANCH  23  24
ATOM     24  N   UNL     1      -1.629  13.915  19.501  0.00  0.00    +0.000 NA
ATOM     25  H   UNL     1      -1.296  14.852  19.266  0.00  0.00    +0.000 HD
BRANCH  24  26
ATOM     26  C   UNL     1      -2.358  13.948  20.777  0.00  0.00    +0.000 C 
BRANCH  26  27
ATOM     27  C   UNL     1      -3.669  13.142  20.678  0.00  0.00    +0.000 C 
BRANCH  27  28
ATOM     28  C   UNL     1      -4.280  12.928  22.036  0.00  0.00    +0.000 A 
ATOM     29  C   UNL     1      -3.505  12.756  23.188  0.00  0.00    +0.000 A 
ATOM     30  C   UNL     1      -4.130  12.538  24.413  0.00  0.00    +0.000 A 
ATOM     31  C   UNL     1      -5.517  12.490  24.440  0.00  0.00    +0.000 A 
ATOM     32  N   UNL     1      -6.303  12.638  23.348  0.00  0.00    +0.000 NA
ATOM     33  C   UNL     1      -5.664  12.857  22.175  0.00  0.00    +0.000 A 
ENDBRANCH  27  28
BRANCH  27  34
ATOM     34  O   UNL     1      -4.597  13.837  19.838  0.00  0.00    +0.000 OA
ATOM     35  H   UNL     1      -5.026  13.145  19.308  0.00  0.00    +0.000 HD
ENDBRANCH  27  34
ENDBRANCH  26  27
ENDBRANCH  24  26
ENDBRANCH  23  24
ENDBRANCH  22  23
ENDBRANCH  21  22
ENDBRANCH   1  21
TORSDOF 13
ENDMDL
MODEL 5
REMARK VINA RESULT:      -7.3      1.350      2.148
REMARK  Name = 
REMARK  13 active torsions:
REMARK  status: ('A' for Active; 'I' for Inactive)
REMARK    1  A    between atoms: O_1  and  C_2
REMARK    2  A    between atoms: C_2  and  C_3
REMARK    3  A    between atoms: C_2  and  C_28
REMARK    4  A    between atoms: C_3  and  N_4
REMARK    5  A    between atoms: N_4  and  C_5
REMARK    6  A    between atoms: C_5  and  C_6
REMARK    7  A    between atoms: C_6  and  O_7
REMARK    8  A    between atoms: O_7  and  C_8
REMARK    9  A    between atoms: C_11  and  C_12
REMARK   10  A    between atoms: C_15  and  C_16
REMARK   11  A    between atoms: C_16  and  O_17
REMARK   12  A    between atoms: O_17  and  C_18
REMARK   13  A    between atoms: C_18  and  C_19
REMARK                            x       y       z     vdW  Elec       q    Type
REMARK                         _______ _______ _______ _____ _____    ______ ____
ROOT
ATOM      1  C   UNL     1       2.260   7.612  18.587  0.00  0.00    +0.000 A 
ATOM      2  C   UNL     1       2.154   7.174  19.908  0.00  0.00    +0.000 A 
ATOM      3  C   UNL     1       1.490   7.937  20.857  0.00  0.00    +0.000 A 
ATOM      4  C   UNL     1       0.931   9.167  20.513  0.00  0.00    +0.000 A 
ATOM      5  C   UNL     1       1.035   9.617  19.190  0.00  0.00    +0.000 A 
ATOM      6  C   UNL     1       1.698   8.842  18.231  0.00  0.00    +0.000 A 
ENDROOT
BRANCH   4   7
ATOM      7  C   UNL     1       0.268   9.930  21.545  0.00  0.00    +0.000 A 
ATOM      8  C   UNL     1      -0.069   9.481  22.799  0.00  0.00    +0.000 A 
ATOM      9  O   UNL     1      -0.720  10.487  23.442  0.00  0.00    +0.000 OA
ATOM     10  C   UNL     1      -0.729  11.517  22.536  0.00  0.00    +0.000 A 
ATOM     11  N   UNL     1      -0.179  11.217  21.372  0.00  0.00    +0.000 NA
BRANCH  10  12
ATOM     12  C   UNL     1      -1.336  12.793  22.988  0.00  0.00    +0.000 C 
BRANCH  12  13
ATOM     13  O   UNL     1      -2.262  13.186  21.980  0.00  0.00    +0.000 OA
BRANCH  13  14
ATOM     14  C   UNL     1      -3.255  14.081  22.464  0.00  0.00    +0.000 C 
BRANCH  14  15
ATOM     15  C   UNL     1      -4.614  13.444  22.309  0.00  0.00    +0.000 A 
ATOM     16  C   UNL     1      -5.009  12.858  21.096  0.00  0.00    +0.000 A 
ATOM     17  C   UNL     1      -6.269  12.276  20.960  0.00  0.00    +0.000 A 
ATOM     18  C   UNL     1      -7.146  12.256  22.041  0.00  0.00    +0.000 A 
ATOM     19  C   UNL     1      -6.760  12.811  23.259  0.00  0.00    +0.000 A 
ATOM     20  C   UNL     1      -5.499  13.397  23.396  0.00  0.00    +0.000 A 
ENDBRANCH  14  15
ENDBRANCH  13  14
ENDBRANCH  12  13
ENDBRANCH  10  12
ENDBRANCH   4   7
BRANCH   1  21
ATOM     21  O   UNL     1       2.881   6.908  17.585  0.00  0.00    +0.000 OA
BRANCH  21  22
ATOM     22  C   UNL     1       4.303   7.095  17.545  0.00  0.00    +0.000 C 
BRANCH  22  23
ATOM     23  C   UNL     1       5.037   5.918  18.178  0.00  0.00    +0.000 C 
BRANCH  23  24
ATOM     24  N   UNL     1       5.000   4.761  17.275  0.00  0.00    +0.000 NA
ATOM     25  H   UNL     1       4.126   4.833  16.749  0.00  0.00    +0.000 HD
BRANCH  24  26
ATOM     26  C   UNL     1       5.017   3.512  18.050  0.00  0.00    +0.000 C 
BRANCH  26  27
ATOM     27  C   UNL     1       3.644   2.811  17.985  0.00  0.00    +0.000 C 
BRANCH  27  28
ATOM     28  C   UNL     1       2.900   2.951  19.285  0.00  0.00    +0.000 A 
ATOM     29  C   UNL     1       1.660   3.592  19.375  0.00  0.00    +0.000 A 
ATOM     30  C   UNL     1       1.033   3.709  20.612  0.00  0.00    +0.000 A 
ATOM     31  C   UNL     1       1.678   3.187  21.724  0.00  0.00    +0.000 A 
ATOM     32  N   UNL     1       2.882   2.571  21.684  0.00  0.00    +0.000 NA
ATOM     33  C   UNL     1       3.461   2.466  20.465  0.00  0.00    +0.000 A 
ENDBRANCH  27  28
BRANCH  27  34
ATOM     34  O   UNL     1       2.866   3.375  16.924  0.00  0.00    +0.000 OA
ATOM     35  H   UNL     1       3.515   3.671  16.264  0.00  0.00    +0.000 HD
ENDBRANCH  27  34
ENDBRANCH  26  27
ENDBRANCH  24  26
ENDBRANCH  23  24
ENDBRANCH  22  23
ENDBRANCH  21  22
ENDBRANCH   1  21
TORSDOF 13
ENDMDL
MODEL 6
REMARK VINA RESULT:      -7.3      1.925      2.874
REMARK  Name = 
REMARK  13 active torsions:
REMARK  status: ('A' for Active; 'I' for Inactive)
REMARK    1  A    between atoms: O_1  and  C_2
REMARK    2  A    between atoms: C_2  and  C_3
REMARK    3  A    between atoms: C_2  and  C_28
REMARK    4  A    between atoms: C_3  and  N_4
REMARK    5  A    between atoms: N_4  and  C_5
REMARK    6  A    between atoms: C_5  and  C_6
REMARK    7  A    between atoms: C_6  and  O_7
REMARK    8  A    between atoms: O_7  and  C_8
REMARK    9  A    between atoms: C_11  and  C_12
REMARK   10  A    between atoms: C_15  and  C_16
REMARK   11  A    between atoms: C_16  and  O_17
REMARK   12  A    between atoms: O_17  and  C_18
REMARK   13  A    between atoms: C_18  and  C_19
REMARK                            x       y       z     vdW  Elec       q    Type
REMARK                         _______ _______ _______ _____ _____    ______ ____
ROOT
ATOM      1  C   UNL     1       3.172   6.660  18.009  0.00  0.00    +0.000 A 
ATOM      2  C   UNL     1       2.718   6.471  19.316  0.00  0.00    +0.000 A 
ATOM      3  C   UNL     1       1.992   7.460  19.964  0.00  0.00    +0.000 A 
ATOM      4  C   UNL     1       1.717   8.670  19.330  0.00  0.00    +0.000 A 
ATOM      5  C   UNL     1       2.171   8.870  18.019  0.00  0.00    +0.000 A 
ATOM      6  C   UNL     1       2.897   7.869  17.362  0.00  0.00    +0.000 A 
ENDROOT
BRANCH   4   7
ATOM      7  C   UNL     1       0.975   9.671  20.058  0.00  0.00    +0.000 A 
ATOM      8  C   UNL     1       0.433   9.530  21.313  0.00  0.00    +0.000 A 
ATOM      9  O   UNL     1      -0.226  10.681  21.616  0.00  0.00    +0.000 OA
ATOM     10  C   UNL     1      -0.031  11.480  20.518  0.00  0.00    +0.000 A 
ATOM     11  N   UNL     1       0.653  10.904  19.544  0.00  0.00    +0.000 NA
BRANCH  10  12
ATOM     12  C   UNL     1      -0.601  12.849  20.584  0.00  0.00    +0.000 C 
BRANCH  12  13
ATOM     13  O   UNL     1      -1.588  12.833  21.611  0.00  0.00    +0.000 OA
BRANCH  13  14
ATOM     14  C   UNL     1      -2.909  12.705  21.100  0.00  0.00    +0.000 C 
BRANCH  14  15
ATOM     15  C   UNL     1      -3.885  12.697  22.251  0.00  0.00    +0.000 A 
ATOM     16  C   UNL     1      -5.258  12.904  22.042  0.00  0.00    +0.000 A 
ATOM     17  C   UNL     1      -6.152  12.900  23.113  0.00  0.00    +0.000 A 
ATOM     18  C   UNL     1      -5.689  12.671  24.405  0.00  0.00    +0.000 A 
ATOM     19  C   UNL     1      -4.333  12.439  24.626  0.00  0.00    +0.000 A 
ATOM     20  C   UNL     1      -3.436  12.446  23.555  0.00  0.00    +0.000 A 
ENDBRANCH  14  15
ENDBRANCH  13  14
ENDBRANCH  12  13
ENDBRANCH  10  12
ENDBRANCH   4   7
BRANCH   1  21
ATOM     21  O   UNL     1       3.876   5.725  17.293  0.00  0.00    +0.000 OA
BRANCH  21  22
ATOM     22  C   UNL     1       5.218   6.130  16.980  0.00  0.00    +0.000 C 
BRANCH  22  23
ATOM     23  C   UNL     1       6.173   5.817  18.126  0.00  0.00    +0.000 C 
BRANCH  23  24
ATOM     24  N   UNL     1       6.302   4.364  18.288  0.00  0.00    +0.000 NA
ATOM     25  H   UNL     1       6.012   3.947  17.401  0.00  0.00    +0.000 HD
BRANCH  24  26
ATOM     26  C   UNL     1       5.425   3.894  19.371  0.00  0.00    +0.000 C 
BRANCH  26  27
ATOM     27  C   UNL     1       4.523   2.743  18.881  0.00  0.00    +0.000 C 
BRANCH  27  28
ATOM     28  C   UNL     1       3.149   2.835  19.484  0.00  0.00    +0.000 A 
ATOM     29  C   UNL     1       1.984   2.776  18.710  0.00  0.00    +0.000 A 
ATOM     30  C   UNL     1       0.741   2.890  19.325  0.00  0.00    +0.000 A 
ATOM     31  C   UNL     1       0.706   3.072  20.701  0.00  0.00    +0.000 A 
ATOM     32  N   UNL     1       1.807   3.147  21.484  0.00  0.00    +0.000 NA
ATOM     33  C   UNL     1       3.000   3.024  20.856  0.00  0.00    +0.000 A 
ENDBRANCH  27  28
BRANCH  27  34
ATOM     34  O   UNL     1       4.426   2.782  17.454  0.00  0.00    +0.000 OA
ATOM     35  H   UNL     1       4.877   1.978  17.146  0.00  0.00    +0.000 HD
ENDBRANCH  27  34
ENDBRANCH  26  27
ENDBRANCH  24  26
ENDBRANCH  23  24
ENDBRANCH  22  23
ENDBRANCH  21  22
ENDBRANCH   1  21
TORSDOF 13
ENDMDL
MODEL 7
REMARK VINA RESULT:      -7.3      1.907     10.713
REMARK  Name = 
REMARK  13 active torsions:
REMARK  status: ('A' for Active; 'I' for Inactive)
REMARK    1  A    between atoms: O_1  and  C_2
REMARK    2  A    between atoms: C_2  and  C_3
REMARK    3  A    between atoms: C_2  and  C_28
REMARK    4  A    between atoms: C_3  and  N_4
REMARK    5  A    between atoms: N_4  and  C_5
REMARK    6  A    between atoms: C_5  and  C_6
REMARK    7  A    between atoms: C_6  and  O_7
REMARK    8  A    between atoms: O_7  and  C_8
REMARK    9  A    between atoms: C_11  and  C_12
REMARK   10  A    between atoms: C_15  and  C_16
REMARK   11  A    between atoms: C_16  and  O_17
REMARK   12  A    between atoms: O_17  and  C_18
REMARK   13  A    between atoms: C_18  and  C_19
REMARK                            x       y       z     vdW  Elec       q    Type
REMARK                         _______ _______ _______ _____ _____    ______ ____
ROOT
ATOM      1  C   UNL     1       0.908   9.626  19.632  0.00  0.00    +0.000 A 
ATOM      2  C   UNL     1       1.333   8.471  20.290  0.00  0.00    +0.000 A 
ATOM      3  C   UNL     1       2.185   7.572  19.666  0.00  0.00    +0.000 A 
ATOM      4  C   UNL     1       2.619   7.796  18.360  0.00  0.00    +0.000 A 
ATOM      5  C   UNL     1       2.195   8.951  17.690  0.00  0.00    +0.000 A 
ATOM      6  C   UNL     1       1.342   9.862  18.323  0.00  0.00    +0.000 A 
ENDROOT
BRANCH   4   7
ATOM      7  C   UNL     1       3.489   6.817  17.752  0.00  0.00    +0.000 A 
ATOM      8  C   UNL     1       4.563   7.080  16.936  0.00  0.00    +0.000 A 
ATOM      9  O   UNL     1       5.084   5.889  16.534  0.00  0.00    +0.000 OA
ATOM     10  C   UNL     1       4.297   4.951  17.152  0.00  0.00    +0.000 A 
ATOM     11  N   UNL     1       3.306   5.460  17.864  0.00  0.00    +0.000 NA
BRANCH  10  12
ATOM     12  C   UNL     1       4.668   3.530  16.940  0.00  0.00    +0.000 C 
BRANCH  12  13
ATOM     13  O   UNL     1       3.463   2.775  17.022  0.00  0.00    +0.000 OA
BRANCH  13  14
ATOM     14  C   UNL     1       3.507   1.779  18.037  0.00  0.00    +0.000 C 
BRANCH  14  15
ATOM     15  C   UNL     1       2.730   2.261  19.238  0.00  0.00    +0.000 A 
ATOM     16  C   UNL     1       3.326   2.338  20.506  0.00  0.00    +0.000 A 
ATOM     17  C   UNL     1       2.599   2.780  21.611  0.00  0.00    +0.000 A 
ATOM     18  C   UNL     1       1.271   3.168  21.460  0.00  0.00    +0.000 A 
ATOM     19  C   UNL     1       0.672   3.122  20.203  0.00  0.00    +0.000 A 
ATOM     20  C   UNL     1       1.399   2.676  19.096  0.00  0.00    +0.000 A 
ENDBRANCH  14  15
ENDBRANCH  13  14
ENDBRANCH  12  13
ENDBRANCH  10  12
ENDBRANCH   4   7
BRANCH   1  21
ATOM     21  O   UNL     1       0.084  10.574  20.186  0.00  0.00    +0.000 OA
BRANCH  21  22
ATOM     22  C   UNL     1      -0.615  10.118  21.354  0.00  0.00    +0.000 C 
BRANCH  22  23
ATOM     23  C   UNL     1      -0.749  11.228  22.390  0.00  0.00    +0.000 C 
BRANCH  23  24
ATOM     24  N   UNL     1      -1.987  11.982  22.159  0.00  0.00    +0.000 NA
ATOM     25  H   UNL     1      -1.707  12.883  21.764  0.00  0.00    +0.000 HD
BRANCH  24  26
ATOM     26  C   UNL     1      -2.698  12.193  23.428  0.00  0.00    +0.000 C 
BRANCH  26  27
ATOM     27  C   UNL     1      -3.627  13.420  23.336  0.00  0.00    +0.000 C 
BRANCH  27  28
ATOM     28  C   UNL     1      -5.047  13.009  23.058  0.00  0.00    +0.000 A 
ATOM     29  C   UNL     1      -5.980  12.795  24.078  0.00  0.00    +0.000 A 
ATOM     30  C   UNL     1      -7.273  12.393  23.757  0.00  0.00    +0.000 A 
ATOM     31  C   UNL     1      -7.586  12.206  22.418  0.00  0.00    +0.000 A 
ATOM     32  N   UNL     1      -6.711  12.387  21.401  0.00  0.00    +0.000 NA
ATOM     33  C   UNL     1      -5.465  12.787  21.747  0.00  0.00    +0.000 A 
ENDBRANCH  27  28
BRANCH  27  34
ATOM     34  O   UNL     1      -3.572  14.158  24.562  0.00  0.00    +0.000 OA
ATOM     35  H   UNL     1      -4.262  14.836  24.481  0.00  0.00    +0.000 HD
ENDBRANCH  27  34
ENDBRANCH  26  27
ENDBRANCH  24  26
ENDBRANCH  23  24
ENDBRANCH  22  23
ENDBRANCH  21  22
ENDBRANCH   1  21
TORSDOF 13
ENDMDL
MODEL 8
REMARK VINA RESULT:      -7.2      3.970     11.506
REMARK  Name = 
REMARK  13 active torsions:
REMARK  status: ('A' for Active; 'I' for Inactive)
REMARK    1  A    between atoms: O_1  and  C_2
REMARK    2  A    between atoms: C_2  and  C_3
REMARK    3  A    between atoms: C_2  and  C_28
REMARK    4  A    between atoms: C_3  and  N_4
REMARK    5  A    between atoms: N_4  and  C_5
REMARK    6  A    between atoms: C_5  and  C_6
REMARK    7  A    between atoms: C_6  and  O_7
REMARK    8  A    between atoms: O_7  and  C_8
REMARK    9  A    between atoms: C_11  and  C_12
REMARK   10  A    between atoms: C_15  and  C_16
REMARK   11  A    between atoms: C_16  and  O_17
REMARK   12  A    between atoms: O_17  and  C_18
REMARK   13  A    between atoms: C_18  and  C_19
REMARK                            x       y       z     vdW  Elec       q    Type
REMARK                         _______ _______ _______ _____ _____    ______ ____
ROOT
ATOM      1  C   UNL     1       0.904   9.777  19.596  0.00  0.00    +0.000 A 
ATOM      2  C   UNL     1       1.444   9.444  18.352  0.00  0.00    +0.000 A 
ATOM      3  C   UNL     1       2.079   8.226  18.159  0.00  0.00    +0.000 A 
ATOM      4  C   UNL     1       2.206   7.317  19.208  0.00  0.00    +0.000 A 
ATOM      5  C   UNL     1       1.670   7.644  20.460  0.00  0.00    +0.000 A 
ATOM      6  C   UNL     1       1.022   8.869  20.653  0.00  0.00    +0.000 A 
ENDROOT
BRANCH   4   7
ATOM      7  C   UNL     1       2.894   6.073  18.956  0.00  0.00    +0.000 A 
ATOM      8  C   UNL     1       3.336   5.181  19.903  0.00  0.00    +0.000 A 
ATOM      9  O   UNL     1       3.974   4.167  19.259  0.00  0.00    +0.000 OA
ATOM     10  C   UNL     1       3.869   4.493  17.931  0.00  0.00    +0.000 A 
ATOM     11  N   UNL     1       3.260   5.645  17.703  0.00  0.00    +0.000 NA
BRANCH  10  12
ATOM     12  C   UNL     1       4.437   3.523  16.963  0.00  0.00    +0.000 C 
BRANCH  12  13
ATOM     13  O   UNL     1       5.043   4.287  15.924  0.00  0.00    +0.000 OA
BRANCH  13  14
ATOM     14  C   UNL     1       6.461   4.181  15.922  0.00  0.00    +0.000 C 
BRANCH  14  15
ATOM     15  C   UNL     1       7.033   5.176  16.902  0.00  0.00    +0.000 A 
ATOM     16  C   UNL     1       7.599   4.758  18.117  0.00  0.00    +0.000 A 
ATOM     17  C   UNL     1       8.120   5.685  19.019  0.00  0.00    +0.000 A 
ATOM     18  C   UNL     1       8.099   7.042  18.712  0.00  0.00    +0.000 A 
ATOM     19  C   UNL     1       7.565   7.472  17.499  0.00  0.00    +0.000 A 
ATOM     20  C   UNL     1       7.039   6.544  16.596  0.00  0.00    +0.000 A 
ENDBRANCH  14  15
ENDBRANCH  13  14
ENDBRANCH  12  13
ENDBRANCH  10  12
ENDBRANCH   4   7
BRANCH   1  21
ATOM     21  O   UNL     1       0.243  10.950  19.863  0.00  0.00    +0.000 OA
BRANCH  21  22
ATOM     22  C   UNL     1       0.888  11.761  20.855  0.00  0.00    +0.000 C 
BRANCH  22  23
ATOM     23  C   UNL     1      -0.115  12.644  21.589  0.00  0.00    +0.000 C 
BRANCH  23  24
ATOM     24  N   UNL     1       0.329  14.043  21.552  0.00  0.00    +0.000 NA
ATOM     25  H   UNL     1      -0.490  14.612  21.777  0.00  0.00    +0.000 HD
BRANCH  24  26
ATOM     26  C   UNL     1       0.822  14.384  20.210  0.00  0.00    +0.000 C 
BRANCH  26  27
ATOM     27  C   UNL     1      -0.325  14.917  19.327  0.00  0.00    +0.000 C 
BRANCH  27  28
ATOM     28  C   UNL     1       0.020  16.255  18.735  0.00  0.00    +0.000 A 
ATOM     29  C   UNL     1      -0.943  17.240  18.493  0.00  0.00    +0.000 A 
ATOM     30  C   UNL     1      -0.563  18.451  17.922  0.00  0.00    +0.000 A 
ATOM     31  C   UNL     1       0.775  18.631  17.600  0.00  0.00    +0.000 A 
ATOM     32  N   UNL     1       1.736  17.700  17.804  0.00  0.00    +0.000 NA
ATOM     33  C   UNL     1       1.335  16.538  18.369  0.00  0.00    +0.000 A 
ENDBRANCH  27  28
BRANCH  27  34
ATOM     34  O   UNL     1      -0.597  13.982  18.277  0.00  0.00    +0.000 OA
ATOM     35  H   UNL     1       0.208  13.972  17.732  0.00  0.00    +0.000 HD
ENDBRANCH  27  34
ENDBRANCH  26  27
ENDBRANCH  24  26
ENDBRANCH  23  24
ENDBRANCH  22  23
ENDBRANCH  21  22
ENDBRANCH   1  21
TORSDOF 13
ENDMDL
MODEL 9
REMARK VINA RESULT:      -7.2      2.792      4.898
REMARK  Name = 
REMARK  13 active torsions:
REMARK  status: ('A' for Active; 'I' for Inactive)
REMARK    1  A    between atoms: O_1  and  C_2
REMARK    2  A    between atoms: C_2  and  C_3
REMARK    3  A    between atoms: C_2  and  C_28
REMARK    4  A    between atoms: C_3  and  N_4
REMARK    5  A    between atoms: N_4  and  C_5
REMARK    6  A    between atoms: C_5  and  C_6
REMARK    7  A    between atoms: C_6  and  O_7
REMARK    8  A    between atoms: O_7  and  C_8
REMARK    9  A    between atoms: C_11  and  C_12
REMARK   10  A    between atoms: C_15  and  C_16
REMARK   11  A    between atoms: C_16  and  O_17
REMARK   12  A    between atoms: O_17  and  C_18
REMARK   13  A    between atoms: C_18  and  C_19
REMARK                            x       y       z     vdW  Elec       q    Type
REMARK                         _______ _______ _______ _____ _____    ______ ____
ROOT
ATOM      1  C   UNL     1       2.131   4.270  19.505  0.00  0.00    +0.000 A 
ATOM      2  C   UNL     1       2.135   4.850  18.235  0.00  0.00    +0.000 A 
ATOM      3  C   UNL     1       1.999   6.223  18.083  0.00  0.00    +0.000 A 
ATOM      4  C   UNL     1       1.838   7.048  19.194  0.00  0.00    +0.000 A 
ATOM      5  C   UNL     1       1.829   6.474  20.473  0.00  0.00    +0.000 A 
ATOM      6  C   UNL     1       1.974   5.090  20.627  0.00  0.00    +0.000 A 
ENDROOT
BRANCH   4   7
ATOM      7  C   UNL     1       1.681   8.466  18.977  0.00  0.00    +0.000 A 
ATOM      8  C   UNL     1       2.139   9.179  17.895  0.00  0.00    +0.000 A 
ATOM      9  O   UNL     1       1.833  10.489  18.097  0.00  0.00    +0.000 OA
ATOM     10  C   UNL     1       1.177  10.500  19.302  0.00  0.00    +0.000 A 
ATOM     11  N   UNL     1       1.094   9.316  19.883  0.00  0.00    +0.000 NA
BRANCH  10  12
ATOM     12  C   UNL     1       0.663  11.812  19.765  0.00  0.00    +0.000 C 
BRANCH  12  13
ATOM     13  O   UNL     1      -0.444  12.137  18.929  0.00  0.00    +0.000 OA
BRANCH  13  14
ATOM     14  C   UNL     1      -1.623  11.423  19.277  0.00  0.00    +0.000 C 
BRANCH  14  15
ATOM     15  C   UNL     1      -2.385  11.083  18.019  0.00  0.00    +0.000 A 
ATOM     16  C   UNL     1      -1.867  10.179  17.077  0.00  0.00    +0.000 A 
ATOM     17  C   UNL     1      -2.576   9.875  15.915  0.00  0.00    +0.000 A 
ATOM     18  C   UNL     1      -3.820  10.456  15.687  0.00  0.00    +0.000 A 
ATOM     19  C   UNL     1      -4.359  11.334  16.624  0.00  0.00    +0.000 A 
ATOM     20  C   UNL     1      -3.649  11.643  17.787  0.00  0.00    +0.000 A 
ENDBRANCH  14  15
ENDBRANCH  13  14
ENDBRANCH  12  13
ENDBRANCH  10  12
ENDBRANCH   4   7
BRANCH   1  21
ATOM     21  O   UNL     1       2.280   2.926  19.741  0.00  0.00    +0.000 OA
BRANCH  21  22
ATOM     22  C   UNL     1       3.505   2.591  20.409  0.00  0.00    +0.000 C 
BRANCH  22  23
ATOM     23  C   UNL     1       4.714   2.852  19.518  0.00  0.00    +0.000 C 
BRANCH  23  24
ATOM     24  N   UNL     1       5.509   3.959  20.064  0.00  0.00    +0.000 NA
ATOM     25  H   UNL     1       4.987   4.323  20.865  0.00  0.00    +0.000 HD
BRANCH  24  26
ATOM     26  C   UNL     1       5.671   5.014  19.053  0.00  0.00    +0.000 C 
BRANCH  26  27
ATOM     27  C   UNL     1       6.930   4.761  18.199  0.00  0.00    +0.000 C 
BRANCH  27  28
ATOM     28  C   UNL     1       6.579   4.610  16.744  0.00  0.00    +0.000 A 
ATOM     29  C   UNL     1       7.457   4.974  15.718  0.00  0.00    +0.000 A 
ATOM     30  C   UNL     1       7.065   4.832  14.391  0.00  0.00    +0.000 A 
ATOM     31  C   UNL     1       5.793   4.337  14.135  0.00  0.00    +0.000 A 
ATOM     32  N   UNL     1       4.908   3.986  15.096  0.00  0.00    +0.000 NA
ATOM     33  C   UNL     1       5.325   4.129  16.376  0.00  0.00    +0.000 A 
ENDBRANCH  27  28
BRANCH  27  34
ATOM     34  O   UNL     1       7.848   5.848  18.362  0.00  0.00    +0.000 OA
ATOM     35  H   UNL     1       7.296   6.612  18.596  0.00  0.00    +0.000 HD
ENDBRANCH  27  34
ENDBRANCH  26  27
ENDBRANCH  24  26
ENDBRANCH  23  24
ENDBRANCH  22  23
ENDBRANCH  21  22
ENDBRANCH   1  21
TORSDOF 13
ENDMDL
