MODEL 1
REMARK VINA RESULT:      -6.6      0.000      0.000
REMARK  Name = 
REMARK  5 active torsions:
REMARK  status: ('A' for Active; 'I' for Inactive)
REMARK    1  A    between atoms: C_1  and  C_2
REMARK    2  A    between atoms: C_4  and  C_5
REMARK    3  A    between atoms: C_10  and  C_11
REMARK    4  A    between atoms: N_12  and  N_13
REMARK    5  A    between atoms: C_14  and  C_16
REMARK                            x       y       z     vdW  Elec       q    Type
REMARK                         _______ _______ _______ _____ _____    ______ ____
ROOT
ATOM      1  C   UNL     1       4.030   0.977  18.056  0.00  0.00    +0.000 C 
ATOM      2  C   UNL     1       3.391   2.015  18.901  0.00  0.00    +0.000 A 
ATOM      3  C   UNL     1       2.674   1.803  20.096  0.00  0.00    +0.000 A 
ATOM      4  C   UNL     1       2.232   3.049  20.476  0.00  0.00    +0.000 A 
ATOM      5  C   UNL     1       1.383   3.439  21.633  0.00  0.00    +0.000 C 
ATOM      6  N   UNL     1       2.688   3.940  19.515  0.00  0.00    +0.000 N 
ATOM      7  C   UNL     1       2.487   5.311  19.436  0.00  0.00    +0.000 A 
ATOM      8  N   UNL     1       1.889   6.002  20.388  0.00  0.00    +0.000 NA
ATOM      9  N   UNL     1       1.868   7.320  20.015  0.00  0.00    +0.000 NA
ATOM     10  C   UNL     1       2.442   7.421  18.830  0.00  0.00    +0.000 A 
ATOM     11  C   UNL     1       2.590   8.673  18.057  0.00  0.00    +0.000 C 
ATOM     12  N   UNL     1       2.834   6.164  18.424  0.00  0.00    +0.000 N 
ATOM     13  N   UNL     1       3.433   3.311  18.559  0.00  0.00    +0.000 NA
ENDROOT
BRANCH  12  14
ATOM     14  N   UNL     1       3.566   5.882  17.312  0.00  0.00    +0.000 N 
ATOM     15  C   UNL     1       4.935   5.786  17.413  0.00  0.00    +0.000 C 
ATOM     16  O   UNL     1       5.575   5.922  18.448  0.00  0.00    +0.000 OA
ATOM     17  H   UNL     1       3.084   5.999  16.427  0.00  0.00    +0.000 HD
BRANCH  15  18
ATOM     18  C   UNL     1       5.682   5.419  16.185  0.00  0.00    +0.000 A 
ATOM     19  C   UNL     1       7.061   5.619  16.076  0.00  0.00    +0.000 A 
ATOM     20  C   UNL     1       7.730   5.165  14.936  0.00  0.00    +0.000 A 
ATOM     21  C   UNL     1       7.028   4.528  13.912  0.00  0.00    +0.000 A 
ATOM     22  C   UNL     1       5.650   4.345  14.021  0.00  0.00    +0.000 A 
ATOM     23 CL   UNL     1       4.787   3.556  12.759  0.00  0.00    +0.000 Cl
ATOM     24  C   UNL     1       4.973   4.787  15.154  0.00  0.00    +0.000 A 
ENDBRANCH  15  18
ENDBRANCH  12  14
TORSDOF 2
ENDMDL
MODEL 2
REMARK VINA RESULT:      -6.5      3.114      5.604
REMARK  Name = 
REMARK  5 active torsions:
REMARK  status: ('A' for Active; 'I' for Inactive)
REMARK    1  A    between atoms: C_1  and  C_2
REMARK    2  A    between atoms: C_4  and  C_5
REMARK    3  A    between atoms: C_10  and  C_11
REMARK    4  A    between atoms: N_12  and  N_13
REMARK    5  A    between atoms: C_14  and  C_16
REMARK                            x       y       z     vdW  Elec       q    Type
REMARK                         _______ _______ _______ _____ _____    ______ ____
ROOT
ATOM      1  C   UNL     1       0.373   3.579  20.248  0.00  0.00    +0.000 C 
ATOM      2  C   UNL     1       1.599   3.288  19.467  0.00  0.00    +0.000 A 
ATOM      3  C   UNL     1       2.063   2.018  19.071  0.00  0.00    +0.000 A 
ATOM      4  C   UNL     1       3.254   2.255  18.425  0.00  0.00    +0.000 A 
ATOM      5  C   UNL     1       4.219   1.289  17.834  0.00  0.00    +0.000 C 
ATOM      6  N   UNL     1       3.456   3.627  18.460  0.00  0.00    +0.000 N 
ATOM      7  C   UNL     1       4.523   4.361  17.963  0.00  0.00    +0.000 A 
ATOM      8  N   UNL     1       5.493   3.820  17.250  0.00  0.00    +0.000 NA
ATOM      9  N   UNL     1       6.373   4.810  16.898  0.00  0.00    +0.000 NA
ATOM     10  C   UNL     1       5.940   5.946  17.413  0.00  0.00    +0.000 A 
ATOM     11  C   UNL     1       6.624   7.252  17.296  0.00  0.00    +0.000 C 
ATOM     12  N   UNL     1       4.776   5.698  18.108  0.00  0.00    +0.000 N 
ATOM     13  N   UNL     1       2.419   4.272  19.072  0.00  0.00    +0.000 NA
ENDROOT
BRANCH  12  14
ATOM     14  N   UNL     1       3.974   6.641  18.673  0.00  0.00    +0.000 N 
ATOM     15  C   UNL     1       3.245   7.479  17.862  0.00  0.00    +0.000 C 
ATOM     16  O   UNL     1       3.240   7.445  16.637  0.00  0.00    +0.000 OA
ATOM     17  H   UNL     1       4.143   6.832  19.655  0.00  0.00    +0.000 HD
BRANCH  15  18
ATOM     18  C   UNL     1       2.340   8.450  18.525  0.00  0.00    +0.000 A 
ATOM     19  C   UNL     1       1.895   9.603  17.875  0.00  0.00    +0.000 A 
ATOM     20  C   UNL     1       0.966  10.432  18.511  0.00  0.00    +0.000 A 
ATOM     21  C   UNL     1       0.497  10.118  19.788  0.00  0.00    +0.000 A 
ATOM     22  C   UNL     1       0.958   8.973  20.436  0.00  0.00    +0.000 A 
ATOM     23 CL   UNL     1       0.375   8.586  22.008  0.00  0.00    +0.000 Cl
ATOM     24  C   UNL     1       1.877   8.136  19.811  0.00  0.00    +0.000 A 
ENDBRANCH  15  18
ENDBRANCH  12  14
TORSDOF 2
ENDMDL
MODEL 3
REMARK VINA RESULT:      -6.5      1.288      3.802
REMARK  Name = 
REMARK  5 active torsions:
REMARK  status: ('A' for Active; 'I' for Inactive)
REMARK    1  A    between atoms: C_1  and  C_2
REMARK    2  A    between atoms: C_4  and  C_5
REMARK    3  A    between atoms: C_10  and  C_11
REMARK    4  A    between atoms: N_12  and  N_13
REMARK    5  A    between atoms: C_14  and  C_16
REMARK                            x       y       z     vdW  Elec       q    Type
REMARK                         _______ _______ _______ _____ _____    ______ ____
ROOT
ATOM      1  C   UNL     1       2.591   9.449  17.333  0.00  0.00    +0.000 C 
ATOM      2  C   UNL     1       2.206   8.565  18.461  0.00  0.00    +0.000 A 
ATOM      3  C   UNL     1       1.466   8.932  19.602  0.00  0.00    +0.000 A 
ATOM      4  C   UNL     1       1.414   7.797  20.378  0.00  0.00    +0.000 A 
ATOM      5  C   UNL     1       0.808   7.596  21.721  0.00  0.00    +0.000 C 
ATOM      6  N   UNL     1       2.112   6.817  19.689  0.00  0.00    +0.000 N 
ATOM      7  C   UNL     1       2.364   5.504  20.063  0.00  0.00    +0.000 A 
ATOM      8  N   UNL     1       1.843   4.957  21.145  0.00  0.00    +0.000 NA
ATOM      9  N   UNL     1       2.269   3.656  21.217  0.00  0.00    +0.000 NA
ATOM     10  C   UNL     1       3.059   3.424  20.185  0.00  0.00    +0.000 A 
ATOM     11  C   UNL     1       3.757   2.149  19.912  0.00  0.00    +0.000 C 
ATOM     12  N   UNL     1       3.155   4.579  19.438  0.00  0.00    +0.000 N 
ATOM     13  N   UNL     1       2.573   7.276  18.488  0.00  0.00    +0.000 NA
ENDROOT
BRANCH  12  14
ATOM     14  N   UNL     1       3.783   4.696  18.237  0.00  0.00    +0.000 N 
ATOM     15  C   UNL     1       5.156   4.782  18.199  0.00  0.00    +0.000 C 
ATOM     16  O   UNL     1       5.890   4.750  19.180  0.00  0.00    +0.000 OA
ATOM     17  H   UNL     1       3.192   4.956  17.454  0.00  0.00    +0.000 HD
BRANCH  15  18
ATOM     18  C   UNL     1       5.797   4.848  16.863  0.00  0.00    +0.000 A 
ATOM     19  C   UNL     1       7.094   5.338  16.693  0.00  0.00    +0.000 A 
ATOM     20  C   UNL     1       7.685   5.285  15.427  0.00  0.00    +0.000 A 
ATOM     21  C   UNL     1       6.982   4.759  14.341  0.00  0.00    +0.000 A 
ATOM     22  C   UNL     1       5.683   4.286  14.516  0.00  0.00    +0.000 A 
ATOM     23 CL   UNL     1       4.820   3.635  13.177  0.00  0.00    +0.000 Cl
ATOM     24  C   UNL     1       5.085   4.327  15.773  0.00  0.00    +0.000 A 
ENDBRANCH  15  18
ENDBRANCH  12  14
TORSDOF 2
ENDMDL
MODEL 4
REMARK VINA RESULT:      -6.5      1.185      3.664
REMARK  Name = 
REMARK  5 active torsions:
REMARK  status: ('A' for Active; 'I' for Inactive)
REMARK    1  A    between atoms: C_1  and  C_2
REMARK    2  A    between atoms: C_4  and  C_5
REMARK    3  A    between atoms: C_10  and  C_11
REMARK    4  A    between atoms: N_12  and  N_13
REMARK    5  A    between atoms: C_14  and  C_16
REMARK                            x       y       z     vdW  Elec       q    Type
REMARK                         _______ _______ _______ _____ _____    ______ ____
ROOT
ATOM      1  C   UNL     1       3.039   8.900  17.280  0.00  0.00    +0.000 C 
ATOM      2  C   UNL     1       2.613   7.867  18.255  0.00  0.00    +0.000 A 
ATOM      3  C   UNL     1       1.925   8.085  19.466  0.00  0.00    +0.000 A 
ATOM      4  C   UNL     1       1.806   6.841  20.041  0.00  0.00    +0.000 A 
ATOM      5  C   UNL     1       1.214   6.457  21.350  0.00  0.00    +0.000 C 
ATOM      6  N   UNL     1       2.416   5.946  19.174  0.00  0.00    +0.000 N 
ATOM      7  C   UNL     1       2.578   4.574  19.315  0.00  0.00    +0.000 A 
ATOM      8  N   UNL     1       2.040   3.888  20.305  0.00  0.00    +0.000 NA
ATOM      9  N   UNL     1       2.370   2.568  20.143  0.00  0.00    +0.000 NA
ATOM     10  C   UNL     1       3.120   2.461  19.062  0.00  0.00    +0.000 A 
ATOM     11  C   UNL     1       3.716   1.206  18.557  0.00  0.00    +0.000 C 
ATOM     12  N   UNL     1       3.286   3.716  18.517  0.00  0.00    +0.000 N 
ATOM     13  N   UNL     1       2.885   6.570  18.054  0.00  0.00    +0.000 NA
ENDROOT
BRANCH  12  14
ATOM     14  N   UNL     1       3.896   3.992  17.333  0.00  0.00    +0.000 N 
ATOM     15  C   UNL     1       5.252   4.219  17.310  0.00  0.00    +0.000 C 
ATOM     16  O   UNL     1       5.988   4.183  18.290  0.00  0.00    +0.000 OA
ATOM     17  H   UNL     1       3.280   4.253  16.570  0.00  0.00    +0.000 HD
BRANCH  15  18
ATOM     18  C   UNL     1       5.880   4.456  15.988  0.00  0.00    +0.000 A 
ATOM     19  C   UNL     1       7.078   5.163  15.858  0.00  0.00    +0.000 A 
ATOM     20  C   UNL     1       7.676   5.272  14.599  0.00  0.00    +0.000 A 
ATOM     21  C   UNL     1       7.077   4.690  13.480  0.00  0.00    +0.000 A 
ATOM     22  C   UNL     1       5.874   3.999  13.615  0.00  0.00    +0.000 A 
ATOM     23 CL   UNL     1       5.140   3.280  12.235  0.00  0.00    +0.000 Cl
ATOM     24  C   UNL     1       5.272   3.878  14.864  0.00  0.00    +0.000 A 
ENDBRANCH  15  18
ENDBRANCH  12  14
TORSDOF 2
ENDMDL
MODEL 5
REMARK VINA RESULT:      -6.4      2.944      5.576
REMARK  Name = 
REMARK  5 active torsions:
REMARK  status: ('A' for Active; 'I' for Inactive)
REMARK    1  A    between atoms: C_1  and  C_2
REMARK    2  A    between atoms: C_4  and  C_5
REMARK    3  A    between atoms: C_10  and  C_11
REMARK    4  A    between atoms: N_12  and  N_13
REMARK    5  A    between atoms: C_14  and  C_16
REMARK                            x       y       z     vdW  Elec       q    Type
REMARK                         _______ _______ _______ _____ _____    ______ ____
ROOT
ATOM      1  C   UNL     1       0.331   3.438  20.405  0.00  0.00    +0.000 C 
ATOM      2  C   UNL     1       1.491   3.044  19.570  0.00  0.00    +0.000 A 
ATOM      3  C   UNL     1       2.109   1.778  19.532  0.00  0.00    +0.000 A 
ATOM      4  C   UNL     1       3.163   1.917  18.658  0.00  0.00    +0.000 A 
ATOM      5  C   UNL     1       4.199   0.928  18.260  0.00  0.00    +0.000 C 
ATOM      6  N   UNL     1       3.137   3.232  18.217  0.00  0.00    +0.000 N 
ATOM      7  C   UNL     1       4.005   3.872  17.343  0.00  0.00    +0.000 A 
ATOM      8  N   UNL     1       4.962   3.237  16.693  0.00  0.00    +0.000 NA
ATOM      9  N   UNL     1       5.620   4.143  15.903  0.00  0.00    +0.000 NA
ATOM     10  C   UNL     1       5.068   5.328  16.088  0.00  0.00    +0.000 A 
ATOM     11  C   UNL     1       5.509   6.586  15.447  0.00  0.00    +0.000 C 
ATOM     12  N   UNL     1       4.048   5.198  17.007  0.00  0.00    +0.000 N 
ATOM     13  N   UNL     1       2.086   3.922  18.750  0.00  0.00    +0.000 NA
ENDROOT
BRANCH  12  14
ATOM     14  N   UNL     1       3.172   6.176  17.362  0.00  0.00    +0.000 N 
ATOM     15  C   UNL     1       3.269   6.748  18.609  0.00  0.00    +0.000 C 
ATOM     16  O   UNL     1       4.109   6.457  19.453  0.00  0.00    +0.000 OA
ATOM     17  H   UNL     1       2.345   6.260  16.779  0.00  0.00    +0.000 HD
BRANCH  15  18
ATOM     18  C   UNL     1       2.330   7.851  18.927  0.00  0.00    +0.000 A 
ATOM     19  C   UNL     1       1.889   8.746  17.950  0.00  0.00    +0.000 A 
ATOM     20  C   UNL     1       0.928   9.705  18.284  0.00  0.00    +0.000 A 
ATOM     21  C   UNL     1       0.422   9.775  19.583  0.00  0.00    +0.000 A 
ATOM     22  C   UNL     1       0.879   8.888  20.557  0.00  0.00    +0.000 A 
ATOM     23 CL   UNL     1       0.251   8.974  22.156  0.00  0.00    +0.000 Cl
ATOM     24  C   UNL     1       1.830   7.924  20.235  0.00  0.00    +0.000 A 
ENDBRANCH  15  18
ENDBRANCH  12  14
TORSDOF 2
ENDMDL
MODEL 6
REMARK VINA RESULT:      -6.4      3.045      5.727
REMARK  Name = 
REMARK  5 active torsions:
REMARK  status: ('A' for Active; 'I' for Inactive)
REMARK    1  A    between atoms: C_1  and  C_2
REMARK    2  A    between atoms: C_4  and  C_5
REMARK    3  A    between atoms: C_10  and  C_11
REMARK    4  A    between atoms: N_12  and  N_13
REMARK    5  A    between atoms: C_14  and  C_16
REMARK                            x       y       z     vdW  Elec       q    Type
REMARK                         _______ _______ _______ _____ _____    ______ ____
ROOT
ATOM      1  C   UNL     1       0.856   3.126  21.246  0.00  0.00    +0.000 C 
ATOM      2  C   UNL     1       1.863   2.940  20.173  0.00  0.00    +0.000 A 
ATOM      3  C   UNL     1       2.274   1.717  19.607  0.00  0.00    +0.000 A 
ATOM      4  C   UNL     1       3.255   2.050  18.702  0.00  0.00    +0.000 A 
ATOM      5  C   UNL     1       4.087   1.168  17.842  0.00  0.00    +0.000 C 
ATOM      6  N   UNL     1       3.393   3.429  18.761  0.00  0.00    +0.000 N 
ATOM      7  C   UNL     1       4.268   4.245  18.058  0.00  0.00    +0.000 A 
ATOM      8  N   UNL     1       5.055   3.792  17.100  0.00  0.00    +0.000 NA
ATOM      9  N   UNL     1       5.772   4.846  16.597  0.00  0.00    +0.000 NA
ATOM     10  C   UNL     1       5.427   5.933  17.263  0.00  0.00    +0.000 A 
ATOM     11  C   UNL     1       5.998   7.281  17.052  0.00  0.00    +0.000 C 
ATOM     12  N   UNL     1       4.484   5.588  18.208  0.00  0.00    +0.000 N 
ATOM     13  N   UNL     1       2.511   3.986  19.643  0.00  0.00    +0.000 NA
ENDROOT
BRANCH  12  14
ATOM     14  N   UNL     1       3.804   6.458  19.003  0.00  0.00    +0.000 N 
ATOM     15  C   UNL     1       2.668   7.064  18.520  0.00  0.00    +0.000 C 
ATOM     16  O   UNL     1       2.189   6.877  17.407  0.00  0.00    +0.000 OA
ATOM     17  H   UNL     1       4.305   6.795  19.818  0.00  0.00    +0.000 HD
BRANCH  15  18
ATOM     18  C   UNL     1       1.928   7.958  19.444  0.00  0.00    +0.000 A 
ATOM     19  C   UNL     1       1.740   7.632  20.789  0.00  0.00    +0.000 A 
ATOM     20  C   UNL     1       1.122   8.555  21.638  0.00  0.00    +0.000 A 
ATOM     21  C   UNL     1       0.687   9.787  21.144  0.00  0.00    +0.000 A 
ATOM     22  C   UNL     1       0.865  10.098  19.797  0.00  0.00    +0.000 A 
ATOM     23 CL   UNL     1       0.331  11.618  19.192  0.00  0.00    +0.000 Cl
ATOM     24  C   UNL     1       1.485   9.190  18.943  0.00  0.00    +0.000 A 
ENDBRANCH  15  18
ENDBRANCH  12  14
TORSDOF 2
ENDMDL
MODEL 7
REMARK VINA RESULT:      -6.3      3.428      6.713
REMARK  Name = 
REMARK  5 active torsions:
REMARK  status: ('A' for Active; 'I' for Inactive)
REMARK    1  A    between atoms: C_1  and  C_2
REMARK    2  A    between atoms: C_4  and  C_5
REMARK    3  A    between atoms: C_10  and  C_11
REMARK    4  A    between atoms: N_12  and  N_13
REMARK    5  A    between atoms: C_14  and  C_16
REMARK                            x       y       z     vdW  Elec       q    Type
REMARK                         _______ _______ _______ _____ _____    ______ ____
ROOT
ATOM      1  C   UNL     1       6.761   8.968  17.479  0.00  0.00    +0.000 C 
ATOM      2  C   UNL     1       6.550   7.510  17.306  0.00  0.00    +0.000 A 
ATOM      3  C   UNL     1       7.494   6.573  16.841  0.00  0.00    +0.000 A 
ATOM      4  C   UNL     1       6.822   5.374  16.802  0.00  0.00    +0.000 A 
ATOM      5  C   UNL     1       7.293   4.039  16.346  0.00  0.00    +0.000 C 
ATOM      6  N   UNL     1       5.529   5.633  17.233  0.00  0.00    +0.000 N 
ATOM      7  C   UNL     1       4.460   4.755  17.351  0.00  0.00    +0.000 A 
ATOM      8  N   UNL     1       4.579   3.454  17.158  0.00  0.00    +0.000 NA
ATOM      9  N   UNL     1       3.355   2.875  17.369  0.00  0.00    +0.000 NA
ATOM     10  C   UNL     1       2.495   3.829  17.675  0.00  0.00    +0.000 A 
ATOM     11  C   UNL     1       1.055   3.628  17.942  0.00  0.00    +0.000 C 
ATOM     12  N   UNL     1       3.158   5.038  17.659  0.00  0.00    +0.000 N 
ATOM     13  N   UNL     1       5.366   6.944  17.579  0.00  0.00    +0.000 NA
ENDROOT
BRANCH  12  14
ATOM     14  N   UNL     1       2.633   6.234  18.040  0.00  0.00    +0.000 N 
ATOM     15  C   UNL     1       2.416   6.480  19.375  0.00  0.00    +0.000 C 
ATOM     16  O   UNL     1       2.672   5.700  20.285  0.00  0.00    +0.000 OA
ATOM     17  H   UNL     1       2.206   6.784  17.301  0.00  0.00    +0.000 HD
BRANCH  15  18
ATOM     18  C   UNL     1       1.899   7.820  19.745  0.00  0.00    +0.000 A 
ATOM     19  C   UNL     1       1.764   8.843  18.802  0.00  0.00    +0.000 A 
ATOM     20  C   UNL     1       1.179  10.054  19.184  0.00  0.00    +0.000 A 
ATOM     21  C   UNL     1       0.744  10.244  20.497  0.00  0.00    +0.000 A 
ATOM     22  C   UNL     1       0.895   9.224  21.436  0.00  0.00    +0.000 A 
ATOM     23 CL   UNL     1       0.355   9.461  23.052  0.00  0.00    +0.000 Cl
ATOM     24  C   UNL     1       1.469   8.012  21.066  0.00  0.00    +0.000 A 
ENDBRANCH  15  18
ENDBRANCH  12  14
TORSDOF 2
ENDMDL
MODEL 8
REMARK VINA RESULT:      -6.3      8.836     12.236
REMARK  Name = 
REMARK  5 active torsions:
REMARK  status: ('A' for Active; 'I' for Inactive)
REMARK    1  A    between atoms: C_1  and  C_2
REMARK    2  A    between atoms: C_4  and  C_5
REMARK    3  A    between atoms: C_10  and  C_11
REMARK    4  A    between atoms: N_12  and  N_13
REMARK    5  A    between atoms: C_14  and  C_16
REMARK                            x       y       z     vdW  Elec       q    Type
REMARK                         _______ _______ _______ _____ _____    ______ ____
ROOT
ATOM      1  C   UNL     1      -3.403   9.991  17.478  0.00  0.00    +0.000 C 
ATOM      2  C   UNL     1      -2.153  10.469  18.118  0.00  0.00    +0.000 A 
ATOM      3  C   UNL     1      -0.845  10.019  17.850  0.00  0.00    +0.000 A 
ATOM      4  C   UNL     1      -0.040  10.712  18.724  0.00  0.00    +0.000 A 
ATOM      5  C   UNL     1       1.429  10.618  18.934  0.00  0.00    +0.000 C 
ATOM      6  N   UNL     1      -0.878  11.530  19.468  0.00  0.00    +0.000 N 
ATOM      7  C   UNL     1      -0.550  12.406  20.493  0.00  0.00    +0.000 A 
ATOM      8  N   UNL     1       0.696  12.668  20.839  0.00  0.00    +0.000 NA
ATOM      9  N   UNL     1       0.677  13.580  21.862  0.00  0.00    +0.000 NA
ATOM     10  C   UNL     1      -0.583  13.855  22.143  0.00  0.00    +0.000 A 
ATOM     11  C   UNL     1      -1.040  14.768  23.213  0.00  0.00    +0.000 C 
ATOM     12  N   UNL     1      -1.391  13.117  21.304  0.00  0.00    +0.000 N 
ATOM     13  N   UNL     1      -2.179  11.409  19.073  0.00  0.00    +0.000 NA
ENDROOT
BRANCH  12  14
ATOM     14  N   UNL     1      -2.745  13.223  21.213  0.00  0.00    +0.000 N 
ATOM     15  C   UNL     1      -3.535  12.566  22.126  0.00  0.00    +0.000 C 
ATOM     16  O   UNL     1      -3.119  11.882  23.054  0.00  0.00    +0.000 OA
ATOM     17  H   UNL     1      -3.100  13.583  20.333  0.00  0.00    +0.000 HD
BRANCH  15  18
ATOM     18  C   UNL     1      -5.002  12.760  22.021  0.00  0.00    +0.000 A 
ATOM     19  C   UNL     1      -5.707  12.425  20.862  0.00  0.00    +0.000 A 
ATOM     20  C   UNL     1      -7.101  12.536  20.853  0.00  0.00    +0.000 A 
ATOM     21  C   UNL     1      -7.781  12.989  21.985  0.00  0.00    +0.000 A 
ATOM     22  C   UNL     1      -7.069  13.336  23.132  0.00  0.00    +0.000 A 
ATOM     23 CL   UNL     1      -7.910  13.889  24.527  0.00  0.00    +0.000 Cl
ATOM     24  C   UNL     1      -5.682  13.222  23.157  0.00  0.00    +0.000 A 
ENDBRANCH  15  18
ENDBRANCH  12  14
TORSDOF 2
ENDMDL
MODEL 9
REMARK VINA RESULT:      -6.2      9.914     13.056
REMARK  Name = 
REMARK  5 active torsions:
REMARK  status: ('A' for Active; 'I' for Inactive)
REMARK    1  A    between atoms: C_1  and  C_2
REMARK    2  A    between atoms: C_4  and  C_5
REMARK    3  A    between atoms: C_10  and  C_11
REMARK    4  A    between atoms: N_12  and  N_13
REMARK    5  A    between atoms: C_14  and  C_16
REMARK                            x       y       z     vdW  Elec       q    Type
REMARK                         _______ _______ _______ _____ _____    ______ ____
ROOT
ATOM      1  C   UNL     1      -0.316  11.500  19.968  0.00  0.00    +0.000 C 
ATOM      2  C   UNL     1      -1.467  11.266  19.063  0.00  0.00    +0.000 A 
ATOM      3  C   UNL     1      -1.474  10.478  17.895  0.00  0.00    +0.000 A 
ATOM      4  C   UNL     1      -2.740  10.614  17.376  0.00  0.00    +0.000 A 
ATOM      5  C   UNL     1      -3.315  10.051  16.126  0.00  0.00    +0.000 C 
ATOM      6  N   UNL     1      -3.428  11.462  18.231  0.00  0.00    +0.000 N 
ATOM      7  C   UNL     1      -4.732  11.926  18.131  0.00  0.00    +0.000 A 
ATOM      8  N   UNL     1      -5.573  11.503  17.206  0.00  0.00    +0.000 NA
ATOM      9  N   UNL     1      -6.774  12.136  17.393  0.00  0.00    +0.000 NA
ATOM     10  C   UNL     1      -6.652  12.952  18.424  0.00  0.00    +0.000 A 
ATOM     11  C   UNL     1      -7.712  13.849  18.933  0.00  0.00    +0.000 C 
ATOM     12  N   UNL     1      -5.365  12.857  18.909  0.00  0.00    +0.000 N 
ATOM     13  N   UNL     1      -2.657  11.839  19.293  0.00  0.00    +0.000 NA
ENDROOT
BRANCH  12  14
ATOM     14  N   UNL     1      -4.898  13.455  20.038  0.00  0.00    +0.000 N 
ATOM     15  C   UNL     1      -5.205  12.913  21.265  0.00  0.00    +0.000 C 
ATOM     16  O   UNL     1      -5.871  11.900  21.439  0.00  0.00    +0.000 OA
ATOM     17  H   UNL     1      -4.553  14.403  19.924  0.00  0.00    +0.000 HD
BRANCH  15  18
ATOM     18  C   UNL     1      -4.623  13.567  22.462  0.00  0.00    +0.000 A 
ATOM     19  C   UNL     1      -3.446  13.104  23.054  0.00  0.00    +0.000 A 
ATOM     20  C   UNL     1      -2.889  13.818  24.120  0.00  0.00    +0.000 A 
ATOM     21  C   UNL     1      -3.509  14.974  24.596  0.00  0.00    +0.000 A 
ATOM     22  C   UNL     1      -4.692  15.421  24.010  0.00  0.00    +0.000 A 
ATOM     23 CL   UNL     1      -5.452  16.849  24.596  0.00  0.00    +0.000 Cl
ATOM     24  C   UNL     1      -5.252  14.724  22.943  0.00  0.00    +0.000 A 
ENDBRANCH  15  18
ENDBRANCH  12  14
TORSDOF 2
ENDMDL
