MODEL 1
REMARK VINA RESULT:      -6.8      0.000      0.000
REMARK  Name = 
REMARK  6 active torsions:
REMARK  status: ('A' for Active; 'I' for Inactive)
REMARK    1  A    between atoms: C_1  and  C_2
REMARK    2  A    between atoms: C_4  and  S_5
REMARK    3  A    between atoms: S_5  and  C_6
REMARK    4  A    between atoms: C_6  and  C_7
REMARK    5  A    between atoms: C_11  and  C_12
REMARK    6  A    between atoms: C_13  and  C_14
REMARK                            x       y       z     vdW  Elec       q    Type
REMARK                         _______ _______ _______ _____ _____    ______ ____
ROOT
ATOM      1  C   UNL     1       7.622   8.274  17.538  0.00  0.00    +0.000 C 
ATOM      2  C   UNL     1       6.592   7.189  17.326  0.00  0.00    +0.000 A 
ATOM      3  C   UNL     1       7.009   5.981  16.553  0.00  0.00    +0.000 A 
ATOM      4  C   UNL     1       6.071   5.030  16.384  0.00  0.00    +0.000 A 
ATOM      5  N   UNL     1       4.790   5.218  16.940  0.00  0.00    +0.000 N 
ATOM      6  N   UNL     1       3.720   4.380  16.883  0.00  0.00    +0.000 NA
ATOM      7  C   UNL     1       2.758   4.995  17.581  0.00  0.00    +0.000 A 
ATOM      8  C   UNL     1       1.453   4.305  17.754  0.00  0.00    +0.000 C 
ATOM      9  C   UNL     1       3.167   6.265  18.077  0.00  0.00    +0.000 A 
ATOM     10  C   UNL     1       4.485   6.383  17.661  0.00  0.00    +0.000 A 
ATOM     11  N   UNL     1       5.414   7.376  17.838  0.00  0.00    +0.000 NA
ENDROOT
BRANCH   9  12
ATOM     12  C   UNL     1       2.432   7.286  18.830  0.00  0.00    +0.000 A 
ATOM     13  C   UNL     1       1.992   8.475  18.230  0.00  0.00    +0.000 A 
ATOM     14  C   UNL     1       1.255   9.421  18.954  0.00  0.00    +0.000 A 
ATOM     15  C   UNL     1       0.964   9.203  20.298  0.00  0.00    +0.000 A 
ATOM     16  C   UNL     1       1.408   8.039  20.915  0.00  0.00    +0.000 A 
ATOM     17  C   UNL     1       2.124   7.086  20.184  0.00  0.00    +0.000 A 
ENDBRANCH   9  12
BRANCH   4  18
ATOM     18  S   UNL     1       6.499   3.542  15.561  0.00  0.00    +0.000 S 
BRANCH  18  19
ATOM     19  C   UNL     1       6.253   3.954  13.791  0.00  0.00    +0.000 C 
BRANCH  19  20
ATOM     20  C   UNL     1       7.322   4.915  13.297  0.00  0.00    +0.000 C 
ATOM     21  N   UNL     1       8.209   5.713  12.887  0.00  0.00    +0.000 NA
ENDBRANCH  19  20
ENDBRANCH  18  19
ENDBRANCH   4  18
TORSDOF 4
ENDMDL
MODEL 2
REMARK VINA RESULT:      -6.7      0.057      1.050
REMARK  Name = 
REMARK  6 active torsions:
REMARK  status: ('A' for Active; 'I' for Inactive)
REMARK    1  A    between atoms: C_1  and  C_2
REMARK    2  A    between atoms: C_4  and  S_5
REMARK    3  A    between atoms: S_5  and  C_6
REMARK    4  A    between atoms: C_6  and  C_7
REMARK    5  A    between atoms: C_11  and  C_12
REMARK    6  A    between atoms: C_13  and  C_14
REMARK                            x       y       z     vdW  Elec       q    Type
REMARK                         _______ _______ _______ _____ _____    ______ ____
ROOT
ATOM      1  C   UNL     1       7.596   8.337  17.581  0.00  0.00    +0.000 C 
ATOM      2  C   UNL     1       6.584   7.239  17.359  0.00  0.00    +0.000 A 
ATOM      3  C   UNL     1       7.026   6.035  16.593  0.00  0.00    +0.000 A 
ATOM      4  C   UNL     1       6.104   5.071  16.416  0.00  0.00    +0.000 A 
ATOM      5  N   UNL     1       4.813   5.242  16.957  0.00  0.00    +0.000 N 
ATOM      6  N   UNL     1       3.756   4.390  16.890  0.00  0.00    +0.000 NA
ATOM      7  C   UNL     1       2.778   4.992  17.577  0.00  0.00    +0.000 A 
ATOM      8  C   UNL     1       1.481   4.284  17.737  0.00  0.00    +0.000 C 
ATOM      9  C   UNL     1       3.165   6.268  18.075  0.00  0.00    +0.000 A 
ATOM     10  C   UNL     1       4.485   6.404  17.673  0.00  0.00    +0.000 A 
ATOM     11  N   UNL     1       5.398   7.409  17.859  0.00  0.00    +0.000 NA
ENDROOT
BRANCH   9  12
ATOM     12  C   UNL     1       2.407   7.280  18.819  0.00  0.00    +0.000 A 
ATOM     13  C   UNL     1       2.097   7.122  20.178  0.00  0.00    +0.000 A 
ATOM     14  C   UNL     1       1.409   8.118  20.883  0.00  0.00    +0.000 A 
ATOM     15  C   UNL     1       1.001   9.280  20.234  0.00  0.00    +0.000 A 
ATOM     16  C   UNL     1       1.283   9.447  18.883  0.00  0.00    +0.000 A 
ATOM     17  C   UNL     1       1.990   8.461  18.187  0.00  0.00    +0.000 A 
ENDBRANCH   9  12
BRANCH   4  18
ATOM     18  S   UNL     1       6.560   3.587  15.599  0.00  0.00    +0.000 S 
BRANCH  18  19
ATOM     19  C   UNL     1       6.265   3.971  13.831  0.00  0.00    +0.000 C 
BRANCH  19  20
ATOM     20  C   UNL     1       7.318   4.926  13.292  0.00  0.00    +0.000 C 
ATOM     21  N   UNL     1       8.191   5.718  12.845  0.00  0.00    +0.000 NA
ENDBRANCH  19  20
ENDBRANCH  18  19
ENDBRANCH   4  18
TORSDOF 4
ENDMDL
MODEL 3
REMARK VINA RESULT:      -6.7      1.005      1.070
REMARK  Name = 
REMARK  6 active torsions:
REMARK  status: ('A' for Active; 'I' for Inactive)
REMARK    1  A    between atoms: C_1  and  C_2
REMARK    2  A    between atoms: C_4  and  S_5
REMARK    3  A    between atoms: S_5  and  C_6
REMARK    4  A    between atoms: C_6  and  C_7
REMARK    5  A    between atoms: C_11  and  C_12
REMARK    6  A    between atoms: C_13  and  C_14
REMARK                            x       y       z     vdW  Elec       q    Type
REMARK                         _______ _______ _______ _____ _____    ______ ____
ROOT
ATOM      1  C   UNL     1       7.597   8.207  17.550  0.00  0.00    +0.000 C 
ATOM      2  C   UNL     1       6.555   7.142  17.302  0.00  0.00    +0.000 A 
ATOM      3  C   UNL     1       6.945   5.977  16.452  0.00  0.00    +0.000 A 
ATOM      4  C   UNL     1       5.998   5.042  16.254  0.00  0.00    +0.000 A 
ATOM      5  N   UNL     1       4.731   5.205  16.850  0.00  0.00    +0.000 N 
ATOM      6  N   UNL     1       3.656   4.377  16.773  0.00  0.00    +0.000 NA
ATOM      7  C   UNL     1       2.714   4.955  17.529  0.00  0.00    +0.000 A 
ATOM      8  C   UNL     1       1.410   4.263  17.695  0.00  0.00    +0.000 C 
ATOM      9  C   UNL     1       3.144   6.193  18.085  0.00  0.00    +0.000 A 
ATOM     10  C   UNL     1       4.452   6.328  17.644  0.00  0.00    +0.000 A 
ATOM     11  N   UNL     1       5.392   7.304  17.854  0.00  0.00    +0.000 NA
ENDROOT
BRANCH   9  12
ATOM     12  C   UNL     1       2.435   7.174  18.914  0.00  0.00    +0.000 A 
ATOM     13  C   UNL     1       2.020   8.413  18.403  0.00  0.00    +0.000 A 
ATOM     14  C   UNL     1       1.307   9.320  19.196  0.00  0.00    +0.000 A 
ATOM     15  C   UNL     1       1.015   9.012  20.522  0.00  0.00    +0.000 A 
ATOM     16  C   UNL     1       1.432   7.796  21.051  0.00  0.00    +0.000 A 
ATOM     17  C   UNL     1       2.125   6.883  20.250  0.00  0.00    +0.000 A 
ENDBRANCH   9  12
BRANCH   4  18
ATOM     18  S   UNL     1       6.395   3.601  15.336  0.00  0.00    +0.000 S 
BRANCH  18  19
ATOM     19  C   UNL     1       6.655   4.240  13.638  0.00  0.00    +0.000 C 
BRANCH  19  20
ATOM     20  C   UNL     1       6.025   3.323  12.602  0.00  0.00    +0.000 C 
ATOM     21  N   UNL     1       5.502   2.561  11.744  0.00  0.00    +0.000 NA
ENDBRANCH  19  20
ENDBRANCH  18  19
ENDBRANCH   4  18
TORSDOF 4
ENDMDL
MODEL 4
REMARK VINA RESULT:      -6.7      0.987      1.487
REMARK  Name = 
REMARK  6 active torsions:
REMARK  status: ('A' for Active; 'I' for Inactive)
REMARK    1  A    between atoms: C_1  and  C_2
REMARK    2  A    between atoms: C_4  and  S_5
REMARK    3  A    between atoms: S_5  and  C_6
REMARK    4  A    between atoms: C_6  and  C_7
REMARK    5  A    between atoms: C_11  and  C_12
REMARK    6  A    between atoms: C_13  and  C_14
REMARK                            x       y       z     vdW  Elec       q    Type
REMARK                         _______ _______ _______ _____ _____    ______ ____
ROOT
ATOM      1  C   UNL     1       7.556   8.251  17.492  0.00  0.00    +0.000 C 
ATOM      2  C   UNL     1       6.535   7.159  17.274  0.00  0.00    +0.000 A 
ATOM      3  C   UNL     1       6.947   5.981  16.454  0.00  0.00    +0.000 A 
ATOM      4  C   UNL     1       6.019   5.022  16.281  0.00  0.00    +0.000 A 
ATOM      5  N   UNL     1       4.750   5.175  16.875  0.00  0.00    +0.000 N 
ATOM      6  N   UNL     1       3.691   4.325  16.821  0.00  0.00    +0.000 NA
ATOM      7  C   UNL     1       2.739   4.904  17.563  0.00  0.00    +0.000 A 
ATOM      8  C   UNL     1       1.448   4.190  17.749  0.00  0.00    +0.000 C 
ATOM      9  C   UNL     1       3.145   6.164  18.086  0.00  0.00    +0.000 A 
ATOM     10  C   UNL     1       4.450   6.313  17.639  0.00  0.00    +0.000 A 
ATOM     11  N   UNL     1       5.370   7.313  17.823  0.00  0.00    +0.000 NA
ENDROOT
BRANCH   9  12
ATOM     12  C   UNL     1       2.417   7.152  18.890  0.00  0.00    +0.000 A 
ATOM     13  C   UNL     1       2.114   6.928  20.242  0.00  0.00    +0.000 A 
ATOM     14  C   UNL     1       1.455   7.900  21.005  0.00  0.00    +0.000 A 
ATOM     15  C   UNL     1       1.067   9.104  20.423  0.00  0.00    +0.000 A 
ATOM     16  C   UNL     1       1.342   9.336  19.080  0.00  0.00    +0.000 A 
ATOM     17  C   UNL     1       2.021   8.373  18.326  0.00  0.00    +0.000 A 
ENDBRANCH   9  12
BRANCH   4  18
ATOM     18  S   UNL     1       6.444   3.566  15.401  0.00  0.00    +0.000 S 
BRANCH  18  19
ATOM     19  C   UNL     1       6.779   4.180  13.706  0.00  0.00    +0.000 C 
BRANCH  19  20
ATOM     20  C   UNL     1       5.901   3.478  12.683  0.00  0.00    +0.000 C 
ATOM     21  N   UNL     1       5.172   2.896  11.834  0.00  0.00    +0.000 NA
ENDBRANCH  19  20
ENDBRANCH  18  19
ENDBRANCH   4  18
TORSDOF 4
ENDMDL
MODEL 5
REMARK VINA RESULT:      -6.7      2.623      4.408
REMARK  Name = 
REMARK  6 active torsions:
REMARK  status: ('A' for Active; 'I' for Inactive)
REMARK    1  A    between atoms: C_1  and  C_2
REMARK    2  A    between atoms: C_4  and  S_5
REMARK    3  A    between atoms: S_5  and  C_6
REMARK    4  A    between atoms: C_6  and  C_7
REMARK    5  A    between atoms: C_11  and  C_12
REMARK    6  A    between atoms: C_13  and  C_14
REMARK                            x       y       z     vdW  Elec       q    Type
REMARK                         _______ _______ _______ _____ _____    ______ ____
ROOT
ATOM      1  C   UNL     1       2.062   3.711  21.589  0.00  0.00    +0.000 C 
ATOM      2  C   UNL     1       2.349   4.772  20.553  0.00  0.00    +0.000 A 
ATOM      3  C   UNL     1       3.180   4.381  19.375  0.00  0.00    +0.000 A 
ATOM      4  C   UNL     1       3.416   5.346  18.467  0.00  0.00    +0.000 A 
ATOM      5  N   UNL     1       2.871   6.631  18.668  0.00  0.00    +0.000 N 
ATOM      6  N   UNL     1       2.990   7.726  17.871  0.00  0.00    +0.000 NA
ATOM      7  C   UNL     1       2.275   8.680  18.479  0.00  0.00    +0.000 A 
ATOM      8  C   UNL     1       2.161  10.010  17.825  0.00  0.00    +0.000 C 
ATOM      9  C   UNL     1       1.704   8.238  19.706  0.00  0.00    +0.000 A 
ATOM     10  C   UNL     1       2.092   6.909  19.801  0.00  0.00    +0.000 A 
ATOM     11  N   UNL     1       1.846   5.951  20.751  0.00  0.00    +0.000 NA
ENDROOT
BRANCH   9  12
ATOM     12  C   UNL     1       0.907   8.952  20.709  0.00  0.00    +0.000 A 
ATOM     13  C   UNL     1      -0.149   9.802  20.347  0.00  0.00    +0.000 A 
ATOM     14  C   UNL     1      -0.926  10.444  21.320  0.00  0.00    +0.000 A 
ATOM     15  C   UNL     1      -0.646  10.263  22.672  0.00  0.00    +0.000 A 
ATOM     16  C   UNL     1       0.408   9.438  23.049  0.00  0.00    +0.000 A 
ATOM     17  C   UNL     1       1.168   8.781  22.076  0.00  0.00    +0.000 A 
ENDBRANCH   9  12
BRANCH   4  18
ATOM     18  S   UNL     1       4.313   4.954  17.012  0.00  0.00    +0.000 S 
BRANCH  18  19
ATOM     19  C   UNL     1       5.891   5.861  17.232  0.00  0.00    +0.000 C 
BRANCH  19  20
ATOM     20  C   UNL     1       6.492   5.594  18.603  0.00  0.00    +0.000 C 
ATOM     21  N   UNL     1       6.991   5.372  19.740  0.00  0.00    +0.000 NA
ENDBRANCH  19  20
ENDBRANCH  18  19
ENDBRANCH   4  18
TORSDOF 4
ENDMDL
MODEL 6
REMARK VINA RESULT:      -6.6      2.358      4.304
REMARK  Name = 
REMARK  6 active torsions:
REMARK  status: ('A' for Active; 'I' for Inactive)
REMARK    1  A    between atoms: C_1  and  C_2
REMARK    2  A    between atoms: C_4  and  S_5
REMARK    3  A    between atoms: S_5  and  C_6
REMARK    4  A    between atoms: C_6  and  C_7
REMARK    5  A    between atoms: C_11  and  C_12
REMARK    6  A    between atoms: C_13  and  C_14
REMARK                            x       y       z     vdW  Elec       q    Type
REMARK                         _______ _______ _______ _____ _____    ______ ____
ROOT
ATOM      1  C   UNL     1       2.218   3.788  21.507  0.00  0.00    +0.000 C 
ATOM      2  C   UNL     1       2.469   4.877  20.492  0.00  0.00    +0.000 A 
ATOM      3  C   UNL     1       3.318   4.538  19.310  0.00  0.00    +0.000 A 
ATOM      4  C   UNL     1       3.521   5.527  18.420  0.00  0.00    +0.000 A 
ATOM      5  N   UNL     1       2.929   6.786  18.641  0.00  0.00    +0.000 N 
ATOM      6  N   UNL     1       3.010   7.899  17.864  0.00  0.00    +0.000 NA
ATOM      7  C   UNL     1       2.258   8.815  18.485  0.00  0.00    +0.000 A 
ATOM      8  C   UNL     1       2.098  10.151  17.854  0.00  0.00    +0.000 C 
ATOM      9  C   UNL     1       1.700   8.331  19.702  0.00  0.00    +0.000 A 
ATOM     10  C   UNL     1       2.137   7.016  19.776  0.00  0.00    +0.000 A 
ATOM     11  N   UNL     1       1.922   6.033  20.708  0.00  0.00    +0.000 NA
ENDROOT
BRANCH   9  12
ATOM     12  C   UNL     1       0.874   8.998  20.714  0.00  0.00    +0.000 A 
ATOM     13  C   UNL     1       1.102   8.823  22.088  0.00  0.00    +0.000 A 
ATOM     14  C   UNL     1       0.330   9.500  23.040  0.00  0.00    +0.000 A 
ATOM     15  C   UNL     1      -0.697  10.348  22.635  0.00  0.00    +0.000 A 
ATOM     16  C   UNL     1      -0.949  10.520  21.279  0.00  0.00    +0.000 A 
ATOM     17  C   UNL     1      -0.163   9.860  20.329  0.00  0.00    +0.000 A 
ENDBRANCH   9  12
BRANCH   4  18
ATOM     18  S   UNL     1       4.437   5.193  16.962  0.00  0.00    +0.000 S 
BRANCH  18  19
ATOM     19  C   UNL     1       6.037   6.035  17.267  0.00  0.00    +0.000 C 
BRANCH  19  20
ATOM     20  C   UNL     1       7.169   5.031  17.410  0.00  0.00    +0.000 C 
ATOM     21  N   UNL     1       8.108   4.198  17.529  0.00  0.00    +0.000 NA
ENDBRANCH  19  20
ENDBRANCH  18  19
ENDBRANCH   4  18
TORSDOF 4
ENDMDL
MODEL 7
REMARK VINA RESULT:      -6.6      2.312      4.016
REMARK  Name = 
REMARK  6 active torsions:
REMARK  status: ('A' for Active; 'I' for Inactive)
REMARK    1  A    between atoms: C_1  and  C_2
REMARK    2  A    between atoms: C_4  and  S_5
REMARK    3  A    between atoms: S_5  and  C_6
REMARK    4  A    between atoms: C_6  and  C_7
REMARK    5  A    between atoms: C_11  and  C_12
REMARK    6  A    between atoms: C_13  and  C_14
REMARK                            x       y       z     vdW  Elec       q    Type
REMARK                         _______ _______ _______ _____ _____    ______ ____
ROOT
ATOM      1  C   UNL     1       2.254   2.897  21.709  0.00  0.00    +0.000 C 
ATOM      2  C   UNL     1       2.497   3.968  20.672  0.00  0.00    +0.000 A 
ATOM      3  C   UNL     1       3.246   3.580  19.440  0.00  0.00    +0.000 A 
ATOM      4  C   UNL     1       3.443   4.554  18.532  0.00  0.00    +0.000 A 
ATOM      5  N   UNL     1       2.936   5.844  18.784  0.00  0.00    +0.000 N 
ATOM      6  N   UNL     1       3.026   6.949  17.996  0.00  0.00    +0.000 NA
ATOM      7  C   UNL     1       2.368   7.907  18.660  0.00  0.00    +0.000 A 
ATOM      8  C   UNL     1       2.239   9.248  18.033  0.00  0.00    +0.000 C 
ATOM      9  C   UNL     1       1.866   7.456  19.914  0.00  0.00    +0.000 A 
ATOM     10  C   UNL     1       2.234   6.120  19.967  0.00  0.00    +0.000 A 
ATOM     11  N   UNL     1       2.029   5.153  20.917  0.00  0.00    +0.000 NA
ENDROOT
BRANCH   9  12
ATOM     12  C   UNL     1       1.146   8.170  20.974  0.00  0.00    +0.000 A 
ATOM     13  C   UNL     1      -0.254   8.147  21.063  0.00  0.00    +0.000 A 
ATOM     14  C   UNL     1      -0.923   8.800  22.107  0.00  0.00    +0.000 A 
ATOM     15  C   UNL     1      -0.203   9.505  23.067  0.00  0.00    +0.000 A 
ATOM     16  C   UNL     1       1.184   9.553  22.986  0.00  0.00    +0.000 A 
ATOM     17  C   UNL     1       1.851   8.882  21.955  0.00  0.00    +0.000 A 
ENDBRANCH   9  12
BRANCH   4  18
ATOM     18  S   UNL     1       4.241   4.167  17.019  0.00  0.00    +0.000 S 
BRANCH  18  19
ATOM     19  C   UNL     1       6.003   4.539  17.364  0.00  0.00    +0.000 C 
BRANCH  19  20
ATOM     20  C   UNL     1       6.746   4.913  16.092  0.00  0.00    +0.000 C 
ATOM     21  N   UNL     1       7.361   5.223  15.036  0.00  0.00    +0.000 NA
ENDBRANCH  19  20
ENDBRANCH  18  19
ENDBRANCH   4  18
TORSDOF 4
ENDMDL
MODEL 8
REMARK VINA RESULT:      -6.6      2.310      4.059
REMARK  Name = 
REMARK  6 active torsions:
REMARK  status: ('A' for Active; 'I' for Inactive)
REMARK    1  A    between atoms: C_1  and  C_2
REMARK    2  A    between atoms: C_4  and  S_5
REMARK    3  A    between atoms: S_5  and  C_6
REMARK    4  A    between atoms: C_6  and  C_7
REMARK    5  A    between atoms: C_11  and  C_12
REMARK    6  A    between atoms: C_13  and  C_14
REMARK                            x       y       z     vdW  Elec       q    Type
REMARK                         _______ _______ _______ _____ _____    ______ ____
ROOT
ATOM      1  C   UNL     1       2.186   2.794  21.681  0.00  0.00    +0.000 C 
ATOM      2  C   UNL     1       2.457   3.878  20.665  0.00  0.00    +0.000 A 
ATOM      3  C   UNL     1       3.210   3.497  19.433  0.00  0.00    +0.000 A 
ATOM      4  C   UNL     1       3.432   4.483  18.543  0.00  0.00    +0.000 A 
ATOM      5  N   UNL     1       2.946   5.778  18.812  0.00  0.00    +0.000 N 
ATOM      6  N   UNL     1       3.062   6.894  18.044  0.00  0.00    +0.000 NA
ATOM      7  C   UNL     1       2.415   7.852  18.719  0.00  0.00    +0.000 A 
ATOM      8  C   UNL     1       2.315   9.205  18.113  0.00  0.00    +0.000 C 
ATOM      9  C   UNL     1       1.894   7.390  19.960  0.00  0.00    +0.000 A 
ATOM     10  C   UNL     1       2.238   6.046  19.994  0.00  0.00    +0.000 A 
ATOM     11  N   UNL     1       2.007   5.067  20.926  0.00  0.00    +0.000 NA
ENDROOT
BRANCH   9  12
ATOM     12  C   UNL     1       1.177   8.098  21.026  0.00  0.00    +0.000 A 
ATOM     13  C   UNL     1       1.853   8.852  21.998  0.00  0.00    +0.000 A 
ATOM     14  C   UNL     1       1.150   9.556  22.984  0.00  0.00    +0.000 A 
ATOM     15  C   UNL     1      -0.240   9.500  23.028  0.00  0.00    +0.000 A 
ATOM     16  C   UNL     1      -0.926   8.744  22.084  0.00  0.00    +0.000 A 
ATOM     17  C   UNL     1      -0.223   8.060  21.087  0.00  0.00    +0.000 A 
ENDBRANCH   9  12
BRANCH   4  18
ATOM     18  S   UNL     1       4.236   4.107  17.030  0.00  0.00    +0.000 S 
BRANCH  18  19
ATOM     19  C   UNL     1       5.992   4.509  17.375  0.00  0.00    +0.000 C 
BRANCH  19  20
ATOM     20  C   UNL     1       6.742   4.840  16.095  0.00  0.00    +0.000 C 
ATOM     21  N   UNL     1       7.364   5.114  15.033  0.00  0.00    +0.000 NA
ENDBRANCH  19  20
ENDBRANCH  18  19
ENDBRANCH   4  18
TORSDOF 4
ENDMDL
MODEL 9
REMARK VINA RESULT:      -6.4      3.495      7.069
REMARK  Name = 
REMARK  6 active torsions:
REMARK  status: ('A' for Active; 'I' for Inactive)
REMARK    1  A    between atoms: C_1  and  C_2
REMARK    2  A    between atoms: C_4  and  S_5
REMARK    3  A    between atoms: S_5  and  C_6
REMARK    4  A    between atoms: C_6  and  C_7
REMARK    5  A    between atoms: C_11  and  C_12
REMARK    6  A    between atoms: C_13  and  C_14
REMARK                            x       y       z     vdW  Elec       q    Type
REMARK                         _______ _______ _______ _____ _____    ______ ____
ROOT
ATOM      1  C   UNL     1       3.539   3.021  17.767  0.00  0.00    +0.000 C 
ATOM      2  C   UNL     1       4.665   3.776  17.101  0.00  0.00    +0.000 A 
ATOM      3  C   UNL     1       5.492   4.679  17.955  0.00  0.00    +0.000 A 
ATOM      4  C   UNL     1       6.491   5.335  17.335  0.00  0.00    +0.000 A 
ATOM      5  N   UNL     1       6.698   5.130  15.956  0.00  0.00    +0.000 N 
ATOM      6  N   UNL     1       7.647   5.691  15.158  0.00  0.00    +0.000 NA
ATOM      7  C   UNL     1       7.445   5.158  13.947  0.00  0.00    +0.000 A 
ATOM      8  C   UNL     1       8.364   5.534  12.842  0.00  0.00    +0.000 C 
ATOM      9  C   UNL     1       6.336   4.266  13.921  0.00  0.00    +0.000 A 
ATOM     10  C   UNL     1       5.877   4.255  15.230  0.00  0.00    +0.000 A 
ATOM     11  N   UNL     1       4.844   3.582  15.830  0.00  0.00    +0.000 NA
ENDROOT
BRANCH   9  12
ATOM     12  C   UNL     1       5.731   3.516  12.815  0.00  0.00    +0.000 A 
ATOM     13  C   UNL     1       4.500   3.888  12.254  0.00  0.00    +0.000 A 
ATOM     14  C   UNL     1       3.957   3.185  11.170  0.00  0.00    +0.000 A 
ATOM     15  C   UNL     1       4.626   2.084  10.644  0.00  0.00    +0.000 A 
ATOM     16  C   UNL     1       5.839   1.689  11.198  0.00  0.00    +0.000 A 
ATOM     17  C   UNL     1       6.389   2.406  12.265  0.00  0.00    +0.000 A 
ENDBRANCH   9  12
BRANCH   4  18
ATOM     18  S   UNL     1       7.564   6.353  18.277  0.00  0.00    +0.000 S 
BRANCH  18  19
ATOM     19  C   UNL     1       7.400   7.994  17.476  0.00  0.00    +0.000 C 
BRANCH  19  20
ATOM     20  C   UNL     1       8.282   9.028  18.156  0.00  0.00    +0.000 C 
ATOM     21  N   UNL     1       9.014   9.886  18.721  0.00  0.00    +0.000 NA
ENDBRANCH  19  20
ENDBRANCH  18  19
ENDBRANCH   4  18
TORSDOF 4
ENDMDL
