MODEL 1
REMARK VINA RESULT:      -8.2      0.000      0.000
REMARK  Name = 
REMARK  10 active torsions:
REMARK  status: ('A' for Active; 'I' for Inactive)
REMARK    1  A    between atoms: C_1  and  C_2
REMARK    2  A    between atoms: C_2  and  C_3
REMARK    3  A    between atoms: C_10  and  S_11
REMARK    4  A    between atoms: S_11  and  N_14
REMARK    5  A    between atoms: N_14  and  C_15
REMARK    6  A    between atoms: C_15  and  C_16
REMARK    7  A    between atoms: C_15  and  C_20
REMARK    8  A    between atoms: C_16  and  C_17
REMARK    9  A    between atoms: C_17  and  C_18
REMARK   10  A    between atoms: C_17  and  C_19
REMARK                            x       y       z     vdW  Elec       q    Type
REMARK                         _______ _______ _______ _____ _____    ______ ____
ROOT
ATOM      1  N   UNL     1       1.024  10.135  19.988  0.00  0.00    +0.000 NA
ATOM      2  H   UNL     1       1.505   9.717  19.189  0.00  0.00    +0.000 HD
ENDROOT
BRANCH   1   3
ATOM      3  S   UNL     1       0.829   9.049  21.234  0.00  0.00    +0.000 S 
ATOM      4  O   UNL     1      -0.584   8.779  21.327  0.00  0.00    +0.000 OA
ATOM      5  O   UNL     1       1.601   9.504  22.359  0.00  0.00    +0.000 OA
BRANCH   3  13
ATOM      6  C   UNL     1       3.490   3.463  17.802  0.00  0.00    +0.000 C 
ATOM      7  O   UNL     1       3.512   2.248  17.575  0.00  0.00    +0.000 OA
ATOM      8  N   UNL     1       2.913   3.953  18.958  0.00  0.00    +0.000 N 
ATOM      9  C   UNL     1       2.400   2.993  19.954  0.00  0.00    +0.000 C 
ATOM     10  C   UNL     1       1.687   3.785  21.047  0.00  0.00    +0.000 C 
ATOM     11  C   UNL     1       1.883   5.198  20.593  0.00  0.00    +0.000 A 
ATOM     12  C   UNL     1       1.366   6.332  21.206  0.00  0.00    +0.000 A 
ATOM     13  C   UNL     1       1.588   7.573  20.599  0.00  0.00    +0.000 A 
ATOM     14  C   UNL     1       2.344   7.651  19.410  0.00  0.00    +0.000 A 
ATOM     15  C   UNL     1       2.875   6.493  18.821  0.00  0.00    +0.000 A 
ATOM     16  C   UNL     1       2.615   5.261  19.398  0.00  0.00    +0.000 A 
BRANCH   6  18
ATOM     17  C   UNL     1       5.619   4.590  17.016  0.00  0.00    +0.000 C 
ATOM     18  C   UNL     1       4.118   4.433  16.822  0.00  0.00    +0.000 C 
ENDBRANCH   6  18
ENDBRANCH   3  13
ENDBRANCH   1   3
BRANCH   1  19
ATOM     19  C   UNL     1      -0.072  11.076  19.601  0.00  0.00    +0.000 C 
BRANCH  19  20
ATOM     20  C   UNL     1      -0.662  10.543  18.277  0.00  0.00    +0.000 C 
ATOM     21  O   UNL     1      -0.015   9.679  17.655  0.00  0.00    +0.000 OA
ATOM     22  N   UNL     1      -1.890  10.938  17.780  0.00  0.00    +0.000 N 
ATOM     23  C   UNL     1      -2.340  10.322  16.516  0.00  0.00    +0.000 C 
ATOM     24  C   UNL     1      -3.803  10.691  16.297  0.00  0.00    +0.000 C 
ATOM     25  C   UNL     1      -4.145  11.320  17.606  0.00  0.00    +0.000 A 
ATOM     26  C   UNL     1      -5.422  11.652  18.039  0.00  0.00    +0.000 A 
ATOM     27  C   UNL     1      -5.552  12.293  19.266  0.00  0.00    +0.000 A 
ATOM     28  C   UNL     1      -4.411  12.629  20.006  0.00  0.00    +0.000 A 
ATOM     29  C   UNL     1      -3.128  12.266  19.568  0.00  0.00    +0.000 A 
ATOM     30  C   UNL     1      -3.002  11.564  18.383  0.00  0.00    +0.000 A 
ENDBRANCH  19  20
BRANCH  19  31
ATOM     31  C   UNL     1       0.417  12.529  19.527  0.00  0.00    +0.000 C 
BRANCH  31  32
ATOM     32  C   UNL     1       1.944  12.795  19.564  0.00  0.00    +0.000 C 
ATOM     33  C   UNL     1       2.612  12.909  18.196  0.00  0.00    +0.000 C 
ATOM     34  C   UNL     1       2.220  14.096  20.334  0.00  0.00    +0.000 C 
ENDBRANCH  31  32
ENDBRANCH  19  31
ENDBRANCH   1  19
TORSDOF 7
ENDMDL
MODEL 2
REMARK VINA RESULT:      -7.9      1.712      2.897
REMARK  Name = 
REMARK  10 active torsions:
REMARK  status: ('A' for Active; 'I' for Inactive)
REMARK    1  A    between atoms: C_1  and  C_2
REMARK    2  A    between atoms: C_2  and  C_3
REMARK    3  A    between atoms: C_10  and  S_11
REMARK    4  A    between atoms: S_11  and  N_14
REMARK    5  A    between atoms: N_14  and  C_15
REMARK    6  A    between atoms: C_15  and  C_16
REMARK    7  A    between atoms: C_15  and  C_20
REMARK    8  A    between atoms: C_16  and  C_17
REMARK    9  A    between atoms: C_17  and  C_18
REMARK   10  A    between atoms: C_17  and  C_19
REMARK                            x       y       z     vdW  Elec       q    Type
REMARK                         _______ _______ _______ _____ _____    ______ ____
ROOT
ATOM      1  N   UNL     1      -0.491  10.424  18.780  0.00  0.00    +0.000 NA
ATOM      2  H   UNL     1      -0.974   9.550  19.004  0.00  0.00    +0.000 HD
ENDROOT
BRANCH   1   3
ATOM      3  S   UNL     1       1.043  10.469  19.421  0.00  0.00    +0.000 S 
ATOM      4  O   UNL     1       0.896  10.797  20.817  0.00  0.00    +0.000 OA
ATOM      5  O   UNL     1       1.884  11.229  18.537  0.00  0.00    +0.000 OA
BRANCH   3  13
ATOM      6  C   UNL     1       3.368   3.821  20.109  0.00  0.00    +0.000 C 
ATOM      7  O   UNL     1       4.171   2.927  19.824  0.00  0.00    +0.000 OA
ATOM      8  N   UNL     1       3.230   4.928  19.293  0.00  0.00    +0.000 N 
ATOM      9  C   UNL     1       3.998   4.980  18.035  0.00  0.00    +0.000 C 
ATOM     10  C   UNL     1       3.784   6.355  17.408  0.00  0.00    +0.000 C 
ATOM     11  C   UNL     1       2.843   7.001  18.377  0.00  0.00    +0.000 A 
ATOM     12  C   UNL     1       2.373   8.306  18.312  0.00  0.00    +0.000 A 
ATOM     13  C   UNL     1       1.556   8.768  19.350  0.00  0.00    +0.000 A 
ATOM     14  C   UNL     1       1.209   7.906  20.412  0.00  0.00    +0.000 A 
ATOM     15  C   UNL     1       1.679   6.584  20.445  0.00  0.00    +0.000 A 
ATOM     16  C   UNL     1       2.525   6.143  19.440  0.00  0.00    +0.000 A 
BRANCH   6  18
ATOM     17  C   UNL     1       1.243   2.887  21.123  0.00  0.00    +0.000 C 
ATOM     18  C   UNL     1       2.505   3.706  21.348  0.00  0.00    +0.000 C 
ENDBRANCH   6  18
ENDBRANCH   3  13
ENDBRANCH   1   3
BRANCH   1  19
ATOM     19  C   UNL     1      -1.382  11.625  18.815  0.00  0.00    +0.000 C 
BRANCH  19  20
ATOM     20  C   UNL     1      -2.590  11.304  17.908  0.00  0.00    +0.000 C 
ATOM     21  O   UNL     1      -2.393  10.598  16.900  0.00  0.00    +0.000 OA
ATOM     22  N   UNL     1      -3.879  11.716  18.188  0.00  0.00    +0.000 N 
ATOM     23  C   UNL     1      -4.941  11.310  17.245  0.00  0.00    +0.000 C 
ATOM     24  C   UNL     1      -6.291  11.635  17.874  0.00  0.00    +0.000 C 
ATOM     25  C   UNL     1      -5.885  12.004  19.262  0.00  0.00    +0.000 A 
ATOM     26  C   UNL     1      -6.744  12.187  20.337  0.00  0.00    +0.000 A 
ATOM     27  C   UNL     1      -6.200  12.594  21.550  0.00  0.00    +0.000 A 
ATOM     28  C   UNL     1      -4.826  12.853  21.649  0.00  0.00    +0.000 A 
ATOM     29  C   UNL     1      -3.966  12.641  20.560  0.00  0.00    +0.000 A 
ATOM     30  C   UNL     1      -4.496  12.166  19.374  0.00  0.00    +0.000 A 
ENDBRANCH  19  20
BRANCH  19  31
ATOM     31  C   UNL     1      -0.633  12.907  18.427  0.00  0.00    +0.000 C 
BRANCH  31  32
ATOM     32  C   UNL     1      -0.788  14.155  19.336  0.00  0.00    +0.000 C 
ATOM     33  C   UNL     1      -0.409  13.937  20.799  0.00  0.00    +0.000 C 
ATOM     34  C   UNL     1       0.077  15.299  18.788  0.00  0.00    +0.000 C 
ENDBRANCH  31  32
ENDBRANCH  19  31
ENDBRANCH   1  19
TORSDOF 7
ENDMDL
MODEL 3
REMARK VINA RESULT:      -7.8      1.169      2.254
REMARK  Name = 
REMARK  10 active torsions:
REMARK  status: ('A' for Active; 'I' for Inactive)
REMARK    1  A    between atoms: C_1  and  C_2
REMARK    2  A    between atoms: C_2  and  C_3
REMARK    3  A    between atoms: C_10  and  S_11
REMARK    4  A    between atoms: S_11  and  N_14
REMARK    5  A    between atoms: N_14  and  C_15
REMARK    6  A    between atoms: C_15  and  C_16
REMARK    7  A    between atoms: C_15  and  C_20
REMARK    8  A    between atoms: C_16  and  C_17
REMARK    9  A    between atoms: C_17  and  C_18
REMARK   10  A    between atoms: C_17  and  C_19
REMARK                            x       y       z     vdW  Elec       q    Type
REMARK                         _______ _______ _______ _____ _____    ______ ____
ROOT
ATOM      1  N   UNL     1       0.842  10.519  20.490  0.00  0.00    +0.000 NA
ATOM      2  H   UNL     1       1.363  10.276  19.644  0.00  0.00    +0.000 HD
ENDROOT
BRANCH   1   3
ATOM      3  S   UNL     1       0.781   9.252  21.567  0.00  0.00    +0.000 S 
ATOM      4  O   UNL     1      -0.614   8.983  21.808  0.00  0.00    +0.000 OA
ATOM      5  O   UNL     1       1.709   9.517  22.633  0.00  0.00    +0.000 OA
BRANCH   3  13
ATOM      6  C   UNL     1       3.643   3.474  18.652  0.00  0.00    +0.000 C 
ATOM      7  O   UNL     1       4.472   2.943  17.905  0.00  0.00    +0.000 OA
ATOM      8  N   UNL     1       3.335   4.815  18.518  0.00  0.00    +0.000 N 
ATOM      9  C   UNL     1       3.950   5.576  17.415  0.00  0.00    +0.000 C 
ATOM     10  C   UNL     1       3.567   7.045  17.585  0.00  0.00    +0.000 C 
ATOM     11  C   UNL     1       2.698   7.005  18.803  0.00  0.00    +0.000 A 
ATOM     12  C   UNL     1       2.130   8.103  19.437  0.00  0.00    +0.000 A 
ATOM     13  C   UNL     1       1.404   7.887  20.614  0.00  0.00    +0.000 A 
ATOM     14  C   UNL     1       1.243   6.577  21.112  0.00  0.00    +0.000 A 
ATOM     15  C   UNL     1       1.807   5.480  20.442  0.00  0.00    +0.000 A 
ATOM     16  C   UNL     1       2.565   5.701  19.303  0.00  0.00    +0.000 A 
BRANCH   6  18
ATOM     17  C   UNL     1       1.678   1.972  19.199  0.00  0.00    +0.000 C 
ATOM     18  C   UNL     1       2.936   2.657  19.712  0.00  0.00    +0.000 C 
ENDBRANCH   6  18
ENDBRANCH   3  13
ENDBRANCH   1   3
BRANCH   1  19
ATOM     19  C   UNL     1      -0.359  11.372  20.228  0.00  0.00    +0.000 C 
BRANCH  19  20
ATOM     20  C   UNL     1      -0.880  10.981  18.828  0.00  0.00    +0.000 C 
ATOM     21  O   UNL     1      -0.175  10.226  18.131  0.00  0.00    +0.000 OA
ATOM     22  N   UNL     1      -2.106  11.385  18.335  0.00  0.00    +0.000 N 
ATOM     23  C   UNL     1      -2.486  10.911  16.990  0.00  0.00    +0.000 C 
ATOM     24  C   UNL     1      -3.955  11.245  16.760  0.00  0.00    +0.000 C 
ATOM     25  C   UNL     1      -4.369  11.695  18.122  0.00  0.00    +0.000 A 
ATOM     26  C   UNL     1      -5.673  11.921  18.541  0.00  0.00    +0.000 A 
ATOM     27  C   UNL     1      -5.873  12.402  19.830  0.00  0.00    +0.000 A 
ATOM     28  C   UNL     1      -4.773  12.690  20.649  0.00  0.00    +0.000 A 
ATOM     29  C   UNL     1      -3.461  12.435  20.220  0.00  0.00    +0.000 A 
ATOM     30  C   UNL     1      -3.264  11.888  18.965  0.00  0.00    +0.000 A 
ENDBRANCH  19  20
BRANCH  19  31
ATOM     31  C   UNL     1      -0.046  12.867  20.384  0.00  0.00    +0.000 C 
BRANCH  31  32
ATOM     32  C   UNL     1       0.133  13.436  21.816  0.00  0.00    +0.000 C 
ATOM     33  C   UNL     1       0.202  14.960  21.899  0.00  0.00    +0.000 C 
ATOM     34  C   UNL     1      -1.029  12.967  22.704  0.00  0.00    +0.000 C 
ENDBRANCH  31  32
ENDBRANCH  19  31
ENDBRANCH   1  19
TORSDOF 7
ENDMDL
MODEL 4
REMARK VINA RESULT:      -7.8      1.663      4.545
REMARK  Name = 
REMARK  10 active torsions:
REMARK  status: ('A' for Active; 'I' for Inactive)
REMARK    1  A    between atoms: C_1  and  C_2
REMARK    2  A    between atoms: C_2  and  C_3
REMARK    3  A    between atoms: C_10  and  S_11
REMARK    4  A    between atoms: S_11  and  N_14
REMARK    5  A    between atoms: N_14  and  C_15
REMARK    6  A    between atoms: C_15  and  C_16
REMARK    7  A    between atoms: C_15  and  C_20
REMARK    8  A    between atoms: C_16  and  C_17
REMARK    9  A    between atoms: C_17  and  C_18
REMARK   10  A    between atoms: C_17  and  C_19
REMARK                            x       y       z     vdW  Elec       q    Type
REMARK                         _______ _______ _______ _____ _____    ______ ____
ROOT
ATOM      1  N   UNL     1      -0.883  10.062  20.607  0.00  0.00    +0.000 NA
ATOM      2  H   UNL     1      -1.645  10.309  21.244  0.00  0.00    +0.000 HD
ENDROOT
BRANCH   1   3
ATOM      3  S   UNL     1       0.542   9.788  21.420  0.00  0.00    +0.000 S 
ATOM      4  O   UNL     1       0.182   9.353  22.747  0.00  0.00    +0.000 OA
ATOM      5  O   UNL     1       1.420  10.904  21.189  0.00  0.00    +0.000 OA
BRANCH   3  13
ATOM      6  C   UNL     1       3.605   3.888  18.998  0.00  0.00    +0.000 C 
ATOM      7  O   UNL     1       4.452   3.324  18.296  0.00  0.00    +0.000 OA
ATOM      8  N   UNL     1       3.250   5.201  18.752  0.00  0.00    +0.000 N 
ATOM      9  C   UNL     1       3.838   5.887  17.586  0.00  0.00    +0.000 C 
ATOM     10  C   UNL     1       3.403   7.350  17.632  0.00  0.00    +0.000 C 
ATOM     11  C   UNL     1       2.536   7.384  18.852  0.00  0.00    +0.000 A 
ATOM     12  C   UNL     1       1.930   8.511  19.392  0.00  0.00    +0.000 A 
ATOM     13  C   UNL     1       1.213   8.370  20.585  0.00  0.00    +0.000 A 
ATOM     14  C   UNL     1       1.097   7.102  21.193  0.00  0.00    +0.000 A 
ATOM     15  C   UNL     1       1.700   5.973  20.617  0.00  0.00    +0.000 A 
ATOM     16  C   UNL     1       2.449   6.123  19.461  0.00  0.00    +0.000 A 
BRANCH   6  18
ATOM     17  C   UNL     1       1.669   2.406  19.685  0.00  0.00    +0.000 C 
ATOM     18  C   UNL     1       2.928   3.139  20.126  0.00  0.00    +0.000 C 
ENDBRANCH   6  18
ENDBRANCH   3  13
ENDBRANCH   1   3
BRANCH   1  19
ATOM     19  C   UNL     1      -0.908  10.827  19.322  0.00  0.00    +0.000 C 
BRANCH  19  20
ATOM     20  C   UNL     1      -1.338  12.267  19.674  0.00  0.00    +0.000 C 
ATOM     21  O   UNL     1      -2.338  12.417  20.404  0.00  0.00    +0.000 OA
ATOM     22  N   UNL     1      -0.642  13.388  19.265  0.00  0.00    +0.000 N 
ATOM     23  C   UNL     1      -1.155  14.703  19.702  0.00  0.00    +0.000 C 
ATOM     24  C   UNL     1      -0.108  15.760  19.372  0.00  0.00    +0.000 C 
ATOM     25  C   UNL     1       1.048  14.909  18.964  0.00  0.00    +0.000 A 
ATOM     26  C   UNL     1       2.349  15.350  18.760  0.00  0.00    +0.000 A 
ATOM     27  C   UNL     1       3.292  14.429  18.319  0.00  0.00    +0.000 A 
ATOM     28  C   UNL     1       2.909  13.109  18.048  0.00  0.00    +0.000 A 
ATOM     29  C   UNL     1       1.596  12.671  18.281  0.00  0.00    +0.000 A 
ATOM     30  C   UNL     1       0.674  13.569  18.789  0.00  0.00    +0.000 A 
ENDBRANCH  19  20
BRANCH  19  31
ATOM     31  C   UNL     1      -1.795  10.150  18.267  0.00  0.00    +0.000 C 
BRANCH  31  32
ATOM     32  C   UNL     1      -2.707  11.044  17.388  0.00  0.00    +0.000 C 
ATOM     33  C   UNL     1      -2.651  10.745  15.891  0.00  0.00    +0.000 C 
ATOM     34  C   UNL     1      -4.166  10.895  17.845  0.00  0.00    +0.000 C 
ENDBRANCH  31  32
ENDBRANCH  19  31
ENDBRANCH   1  19
TORSDOF 7
ENDMDL
MODEL 5
REMARK VINA RESULT:      -7.7      1.294      2.146
REMARK  Name = 
REMARK  10 active torsions:
REMARK  status: ('A' for Active; 'I' for Inactive)
REMARK    1  A    between atoms: C_1  and  C_2
REMARK    2  A    between atoms: C_2  and  C_3
REMARK    3  A    between atoms: C_10  and  S_11
REMARK    4  A    between atoms: S_11  and  N_14
REMARK    5  A    between atoms: N_14  and  C_15
REMARK    6  A    between atoms: C_15  and  C_16
REMARK    7  A    between atoms: C_15  and  C_20
REMARK    8  A    between atoms: C_16  and  C_17
REMARK    9  A    between atoms: C_17  and  C_18
REMARK   10  A    between atoms: C_17  and  C_19
REMARK                            x       y       z     vdW  Elec       q    Type
REMARK                         _______ _______ _______ _____ _____    ______ ____
ROOT
ATOM      1  N   UNL     1      -0.332   9.933  20.181  0.00  0.00    +0.000 NA
ATOM      2  H   UNL     1      -1.283   9.673  19.911  0.00  0.00    +0.000 HD
ENDROOT
BRANCH   1   3
ATOM      3  S   UNL     1       0.238   8.991  21.428  0.00  0.00    +0.000 S 
ATOM      4  O   UNL     1      -0.879   8.209  21.897  0.00  0.00    +0.000 OA
ATOM      5  O   UNL     1       1.018   9.821  22.305  0.00  0.00    +0.000 OA
BRANCH   3  13
ATOM      6  C   UNL     1       4.196   4.831  17.294  0.00  0.00    +0.000 C 
ATOM      7  O   UNL     1       4.518   3.709  16.888  0.00  0.00    +0.000 OA
ATOM      8  N   UNL     1       3.517   4.978  18.489  0.00  0.00    +0.000 N 
ATOM      9  C   UNL     1       3.259   3.779  19.308  0.00  0.00    +0.000 C 
ATOM     10  C   UNL     1       2.373   4.192  20.481  0.00  0.00    +0.000 C 
ATOM     11  C   UNL     1       2.213   5.663  20.254  0.00  0.00    +0.000 A 
ATOM     12  C   UNL     1       1.431   6.526  21.011  0.00  0.00    +0.000 A 
ATOM     13  C   UNL     1       1.338   7.862  20.607  0.00  0.00    +0.000 A 
ATOM     14  C   UNL     1       2.050   8.307  19.472  0.00  0.00    +0.000 A 
ATOM     15  C   UNL     1       2.851   7.421  18.735  0.00  0.00    +0.000 A 
ATOM     16  C   UNL     1       2.904   6.088  19.110  0.00  0.00    +0.000 A 
BRANCH   6  18
ATOM     17  C   UNL     1       5.983   6.544  16.755  0.00  0.00    +0.000 C 
ATOM     18  C   UNL     1       4.562   6.065  16.497  0.00  0.00    +0.000 C 
ENDBRANCH   6  18
ENDBRANCH   3  13
ENDBRANCH   1   3
BRANCH   1  19
ATOM     19  C   UNL     1      -0.081  11.407  20.145  0.00  0.00    +0.000 C 
BRANCH  19  20
ATOM     20  C   UNL     1      -1.450  12.091  20.353  0.00  0.00    +0.000 C 
ATOM     21  O   UNL     1      -1.530  12.992  21.211  0.00  0.00    +0.000 OA
ATOM     22  N   UNL     1      -2.570  11.790  19.601  0.00  0.00    +0.000 N 
ATOM     23  C   UNL     1      -3.805  12.546  19.892  0.00  0.00    +0.000 C 
ATOM     24  C   UNL     1      -4.818  12.251  18.792  0.00  0.00    +0.000 C 
ATOM     25  C   UNL     1      -3.976  11.504  17.812  0.00  0.00    +0.000 A 
ATOM     26  C   UNL     1      -4.341  11.173  16.514  0.00  0.00    +0.000 A 
ATOM     27  C   UNL     1      -3.455  10.415  15.756  0.00  0.00    +0.000 A 
ATOM     28  C   UNL     1      -2.254   9.968  16.323  0.00  0.00    +0.000 A 
ATOM     29  C   UNL     1      -1.887  10.330  17.628  0.00  0.00    +0.000 A 
ATOM     30  C   UNL     1      -2.734  11.144  18.358  0.00  0.00    +0.000 A 
ENDBRANCH  19  20
BRANCH  19  31
ATOM     31  C   UNL     1       0.644  11.836  18.862  0.00  0.00    +0.000 C 
BRANCH  31  32
ATOM     32  C   UNL     1       2.018  12.542  18.993  0.00  0.00    +0.000 C 
ATOM     33  C   UNL     1       2.263  13.665  17.988  0.00  0.00    +0.000 C 
ATOM     34  C   UNL     1       2.159  13.131  20.405  0.00  0.00    +0.000 C 
ENDBRANCH  31  32
ENDBRANCH  19  31
ENDBRANCH   1  19
TORSDOF 7
ENDMDL
MODEL 6
REMARK VINA RESULT:      -7.7      2.238      3.757
REMARK  Name = 
REMARK  10 active torsions:
REMARK  status: ('A' for Active; 'I' for Inactive)
REMARK    1  A    between atoms: C_1  and  C_2
REMARK    2  A    between atoms: C_2  and  C_3
REMARK    3  A    between atoms: C_10  and  S_11
REMARK    4  A    between atoms: S_11  and  N_14
REMARK    5  A    between atoms: N_14  and  C_15
REMARK    6  A    between atoms: C_15  and  C_16
REMARK    7  A    between atoms: C_15  and  C_20
REMARK    8  A    between atoms: C_16  and  C_17
REMARK    9  A    between atoms: C_17  and  C_18
REMARK   10  A    between atoms: C_17  and  C_19
REMARK                            x       y       z     vdW  Elec       q    Type
REMARK                         _______ _______ _______ _____ _____    ______ ____
ROOT
ATOM      1  N   UNL     1      -1.731  11.871  21.251  0.00  0.00    +0.000 NA
ATOM      2  H   UNL     1      -2.536  11.532  21.782  0.00  0.00    +0.000 HD
ENDROOT
BRANCH   1   3
ATOM      3  S   UNL     1      -0.297  11.574  22.040  0.00  0.00    +0.000 S 
ATOM      4  O   UNL     1      -0.641  11.110  23.360  0.00  0.00    +0.000 OA
ATOM      5  O   UNL     1       0.582  12.692  21.823  0.00  0.00    +0.000 OA
BRANCH   3  13
ATOM      6  C   UNL     1       2.876   5.833  19.387  0.00  0.00    +0.000 C 
ATOM      7  O   UNL     1       3.645   5.305  18.577  0.00  0.00    +0.000 OA
ATOM      8  N   UNL     1       2.360   7.093  19.149  0.00  0.00    +0.000 N 
ATOM      9  C   UNL     1       2.678   7.758  17.872  0.00  0.00    +0.000 C 
ATOM     10  C   UNL     1       2.119   9.177  17.928  0.00  0.00    +0.000 C 
ATOM     11  C   UNL     1       1.466   9.207  19.275  0.00  0.00    +0.000 A 
ATOM     12  C   UNL     1       0.853  10.306  19.861  0.00  0.00    +0.000 A 
ATOM     13  C   UNL     1       0.360  10.173  21.164  0.00  0.00    +0.000 A 
ATOM     14  C   UNL     1       0.469   8.938  21.837  0.00  0.00    +0.000 A 
ATOM     15  C   UNL     1       1.074   7.834  21.216  0.00  0.00    +0.000 A 
ATOM     16  C   UNL     1       1.603   7.981  19.944  0.00  0.00    +0.000 A 
BRANCH   6  18
ATOM     17  C   UNL     1       1.224   4.241  20.462  0.00  0.00    +0.000 C 
ATOM     18  C   UNL     1       2.470   5.095  20.646  0.00  0.00    +0.000 C 
ENDBRANCH   6  18
ENDBRANCH   3  13
ENDBRANCH   1   3
BRANCH   1  19
ATOM     19  C   UNL     1      -1.978  13.171  20.555  0.00  0.00    +0.000 C 
BRANCH  19  20
ATOM     20  C   UNL     1      -3.467  13.176  20.147  0.00  0.00    +0.000 C 
ATOM     21  O   UNL     1      -4.197  14.076  20.605  0.00  0.00    +0.000 OA
ATOM     22  N   UNL     1      -4.014  12.265  19.262  0.00  0.00    +0.000 N 
ATOM     23  C   UNL     1      -5.449  12.408  18.942  0.00  0.00    +0.000 C 
ATOM     24  C   UNL     1      -5.772  11.490  17.769  0.00  0.00    +0.000 C 
ATOM     25  C   UNL     1      -4.407  11.052  17.356  0.00  0.00    +0.000 A 
ATOM     26  C   UNL     1      -4.092  10.365  16.191  0.00  0.00    +0.000 A 
ATOM     27  C   UNL     1      -2.772   9.977  15.995  0.00  0.00    +0.000 A 
ATOM     28  C   UNL     1      -1.811  10.240  16.980  0.00  0.00    +0.000 A 
ATOM     29  C   UNL     1      -2.138  10.956  18.142  0.00  0.00    +0.000 A 
ATOM     30  C   UNL     1      -3.436  11.406  18.304  0.00  0.00    +0.000 A 
ENDBRANCH  19  20
BRANCH  19  31
ATOM     31  C   UNL     1      -1.009  13.390  19.384  0.00  0.00    +0.000 C 
BRANCH  31  32
ATOM     32  C   UNL     1      -0.419  14.809  19.172  0.00  0.00    +0.000 C 
ATOM     33  C   UNL     1      -0.721  15.806  20.288  0.00  0.00    +0.000 C 
ATOM     34  C   UNL     1       1.107  14.713  19.023  0.00  0.00    +0.000 C 
ENDBRANCH  31  32
ENDBRANCH  19  31
ENDBRANCH   1  19
TORSDOF 7
ENDMDL
MODEL 7
REMARK VINA RESULT:      -7.7      1.516      2.199
REMARK  Name = 
REMARK  10 active torsions:
REMARK  status: ('A' for Active; 'I' for Inactive)
REMARK    1  A    between atoms: C_1  and  C_2
REMARK    2  A    between atoms: C_2  and  C_3
REMARK    3  A    between atoms: C_10  and  S_11
REMARK    4  A    between atoms: S_11  and  N_14
REMARK    5  A    between atoms: N_14  and  C_15
REMARK    6  A    between atoms: C_15  and  C_16
REMARK    7  A    between atoms: C_15  and  C_20
REMARK    8  A    between atoms: C_16  and  C_17
REMARK    9  A    between atoms: C_17  and  C_18
REMARK   10  A    between atoms: C_17  and  C_19
REMARK                            x       y       z     vdW  Elec       q    Type
REMARK                         _______ _______ _______ _____ _____    ______ ____
ROOT
ATOM      1  N   UNL     1       0.050   9.813  19.682  0.00  0.00    +0.000 NA
ATOM      2  H   UNL     1      -0.646   9.249  19.190  0.00  0.00    +0.000 HD
ENDROOT
BRANCH   1   3
ATOM      3  S   UNL     1       0.560   9.082  21.087  0.00  0.00    +0.000 S 
ATOM      4  O   UNL     1      -0.621   8.578  21.741  0.00  0.00    +0.000 OA
ATOM      5  O   UNL     1       1.489   9.960  21.745  0.00  0.00    +0.000 OA
BRANCH   3  13
ATOM      6  C   UNL     1       3.766   3.684  17.822  0.00  0.00    +0.000 C 
ATOM      7  O   UNL     1       3.897   2.472  17.621  0.00  0.00    +0.000 OA
ATOM      8  N   UNL     1       3.123   4.143  18.957  0.00  0.00    +0.000 N 
ATOM      9  C   UNL     1       2.673   3.161  19.961  0.00  0.00    +0.000 C 
ATOM     10  C   UNL     1       1.870   3.908  21.023  0.00  0.00    +0.000 C 
ATOM     11  C   UNL     1       1.955   5.324  20.545  0.00  0.00    +0.000 A 
ATOM     12  C   UNL     1       1.329   6.420  21.125  0.00  0.00    +0.000 A 
ATOM     13  C   UNL     1       1.457   7.665  20.497  0.00  0.00    +0.000 A 
ATOM     14  C   UNL     1       2.229   7.786  19.323  0.00  0.00    +0.000 A 
ATOM     15  C   UNL     1       2.871   6.668  18.768  0.00  0.00    +0.000 A 
ATOM     16  C   UNL     1       2.704   5.428  19.364  0.00  0.00    +0.000 A 
BRANCH   6  18
ATOM     17  C   UNL     1       5.802   4.990  17.068  0.00  0.00    +0.000 C 
ATOM     18  C   UNL     1       4.329   4.686  16.837  0.00  0.00    +0.000 C 
ENDBRANCH   6  18
ENDBRANCH   3  13
ENDBRANCH   1   3
BRANCH   1  19
ATOM     19  C   UNL     1      -0.223  11.282  19.628  0.00  0.00    +0.000 C 
BRANCH  19  20
ATOM     20  C   UNL     1      -1.660  11.443  19.086  0.00  0.00    +0.000 C 
ATOM     21  O   UNL     1      -1.946  10.882  18.010  0.00  0.00    +0.000 OA
ATOM     22  N   UNL     1      -2.651  12.132  19.758  0.00  0.00    +0.000 N 
ATOM     23  C   UNL     1      -3.989  12.179  19.133  0.00  0.00    +0.000 C 
ATOM     24  C   UNL     1      -4.974  12.745  20.149  0.00  0.00    +0.000 C 
ATOM     25  C   UNL     1      -4.139  12.766  21.386  0.00  0.00    +0.000 A 
ATOM     26  C   UNL     1      -4.601  12.995  22.674  0.00  0.00    +0.000 A 
ATOM     27  C   UNL     1      -3.671  13.043  23.706  0.00  0.00    +0.000 A 
ATOM     28  C   UNL     1      -2.305  12.909  23.425  0.00  0.00    +0.000 A 
ATOM     29  C   UNL     1      -1.853  12.654  22.121  0.00  0.00    +0.000 A 
ATOM     30  C   UNL     1      -2.784  12.533  21.105  0.00  0.00    +0.000 A 
ENDBRANCH  19  20
BRANCH  19  31
ATOM     31  C   UNL     1       0.840  12.035  18.814  0.00  0.00    +0.000 C 
BRANCH  31  32
ATOM     32  C   UNL     1       1.232  13.467  19.261  0.00  0.00    +0.000 C 
ATOM     33  C   UNL     1       0.172  14.535  19.002  0.00  0.00    +0.000 C 
ATOM     34  C   UNL     1       1.546  13.467  20.765  0.00  0.00    +0.000 C 
ENDBRANCH  31  32
ENDBRANCH  19  31
ENDBRANCH   1  19
TORSDOF 7
ENDMDL
MODEL 8
REMARK VINA RESULT:      -7.6      1.641      2.870
REMARK  Name = 
REMARK  10 active torsions:
REMARK  status: ('A' for Active; 'I' for Inactive)
REMARK    1  A    between atoms: C_1  and  C_2
REMARK    2  A    between atoms: C_2  and  C_3
REMARK    3  A    between atoms: C_10  and  S_11
REMARK    4  A    between atoms: S_11  and  N_14
REMARK    5  A    between atoms: N_14  and  C_15
REMARK    6  A    between atoms: C_15  and  C_16
REMARK    7  A    between atoms: C_15  and  C_20
REMARK    8  A    between atoms: C_16  and  C_17
REMARK    9  A    between atoms: C_17  and  C_18
REMARK   10  A    between atoms: C_17  and  C_19
REMARK                            x       y       z     vdW  Elec       q    Type
REMARK                         _______ _______ _______ _____ _____    ______ ____
ROOT
ATOM      1  N   UNL     1       0.855  10.442  20.598  0.00  0.00    +0.000 NA
ATOM      2  H   UNL     1       0.805  10.143  19.621  0.00  0.00    +0.000 HD
ENDROOT
BRANCH   1   3
ATOM      3  S   UNL     1       0.849   9.148  21.644  0.00  0.00    +0.000 S 
ATOM      4  O   UNL     1      -0.533   8.863  21.938  0.00  0.00    +0.000 OA
ATOM      5  O   UNL     1       1.819   9.394  22.676  0.00  0.00    +0.000 OA
BRANCH   3  13
ATOM      6  C   UNL     1       3.572   3.438  18.476  0.00  0.00    +0.000 C 
ATOM      7  O   UNL     1       4.388   2.920  17.706  0.00  0.00    +0.000 OA
ATOM      8  N   UNL     1       3.296   4.790  18.402  0.00  0.00    +0.000 N 
ATOM      9  C   UNL     1       3.929   5.584  17.332  0.00  0.00    +0.000 C 
ATOM     10  C   UNL     1       3.581   7.052  17.567  0.00  0.00    +0.000 C 
ATOM     11  C   UNL     1       2.711   6.980  18.783  0.00  0.00    +0.000 A 
ATOM     12  C   UNL     1       2.170   8.063  19.465  0.00  0.00    +0.000 A 
ATOM     13  C   UNL     1       1.439   7.812  20.632  0.00  0.00    +0.000 A 
ATOM     14  C   UNL     1       1.247   6.485  21.072  0.00  0.00    +0.000 A 
ATOM     15  C   UNL     1       1.785   5.406  20.355  0.00  0.00    +0.000 A 
ATOM     16  C   UNL     1       2.547   5.659  19.225  0.00  0.00    +0.000 A 
BRANCH   6  18
ATOM     17  C   UNL     1       1.512   2.060  18.999  0.00  0.00    +0.000 C 
ATOM     18  C   UNL     1       2.846   2.591  19.500  0.00  0.00    +0.000 C 
ENDBRANCH   6  18
ENDBRANCH   3  13
ENDBRANCH   1   3
BRANCH   1  19
ATOM     19  C   UNL     1       0.062  11.676  20.886  0.00  0.00    +0.000 C 
BRANCH  19  20
ATOM     20  C   UNL     1      -1.165  11.641  19.949  0.00  0.00    +0.000 C 
ATOM     21  O   UNL     1      -1.069  10.998  18.885  0.00  0.00    +0.000 OA
ATOM     22  N   UNL     1      -2.372  12.240  20.256  0.00  0.00    +0.000 N 
ATOM     23  C   UNL     1      -3.468  12.099  19.276  0.00  0.00    +0.000 C 
ATOM     24  C   UNL     1      -4.756  12.594  19.923  0.00  0.00    +0.000 C 
ATOM     25  C   UNL     1      -4.322  12.772  21.339  0.00  0.00    +0.000 A 
ATOM     26  C   UNL     1      -5.159  13.008  22.422  0.00  0.00    +0.000 A 
ATOM     27  C   UNL     1      -4.578  13.214  23.668  0.00  0.00    +0.000 A 
ATOM     28  C   UNL     1      -3.183  13.228  23.796  0.00  0.00    +0.000 A 
ATOM     29  C   UNL     1      -2.349  12.965  22.698  0.00  0.00    +0.000 A 
ATOM     30  C   UNL     1      -2.928  12.687  21.473  0.00  0.00    +0.000 A 
ENDBRANCH  19  20
BRANCH  19  31
ATOM     31  C   UNL     1       0.911  12.949  20.756  0.00  0.00    +0.000 C 
BRANCH  31  32
ATOM     32  C   UNL     1       0.936  13.681  19.390  0.00  0.00    +0.000 C 
ATOM     33  C   UNL     1       1.111  15.196  19.474  0.00  0.00    +0.000 C 
ATOM     34  C   UNL     1       2.078  13.121  18.528  0.00  0.00    +0.000 C 
ENDBRANCH  31  32
ENDBRANCH  19  31
ENDBRANCH   1  19
TORSDOF 7
ENDMDL
MODEL 9
REMARK VINA RESULT:      -7.5      2.708      4.178
REMARK  Name = 
REMARK  10 active torsions:
REMARK  status: ('A' for Active; 'I' for Inactive)
REMARK    1  A    between atoms: C_1  and  C_2
REMARK    2  A    between atoms: C_2  and  C_3
REMARK    3  A    between atoms: C_10  and  S_11
REMARK    4  A    between atoms: S_11  and  N_14
REMARK    5  A    between atoms: N_14  and  C_15
REMARK    6  A    between atoms: C_15  and  C_16
REMARK    7  A    between atoms: C_15  and  C_20
REMARK    8  A    between atoms: C_16  and  C_17
REMARK    9  A    between atoms: C_17  and  C_18
REMARK   10  A    between atoms: C_17  and  C_19
REMARK                            x       y       z     vdW  Elec       q    Type
REMARK                         _______ _______ _______ _____ _____    ______ ____
ROOT
ATOM      1  N   UNL     1      -1.246  12.297  20.403  0.00  0.00    +0.000 NA
ATOM      2  H   UNL     1      -1.358  11.618  19.647  0.00  0.00    +0.000 HD
ENDROOT
BRANCH   1   3
ATOM      3  S   UNL     1      -0.193  11.758  21.572  0.00  0.00    +0.000 S 
ATOM      4  O   UNL     1      -0.995  11.399  22.715  0.00  0.00    +0.000 OA
ATOM      5  O   UNL     1       0.902  12.686  21.662  0.00  0.00    +0.000 OA
BRANCH   3  13
ATOM      6  C   UNL     1       2.759   5.601  19.717  0.00  0.00    +0.000 C 
ATOM      7  O   UNL     1       3.536   4.949  19.011  0.00  0.00    +0.000 OA
ATOM      8  N   UNL     1       2.333   6.855  19.320  0.00  0.00    +0.000 N 
ATOM      9  C   UNL     1       2.755   7.360  18.000  0.00  0.00    +0.000 C 
ATOM     10  C   UNL     1       2.280   8.806  17.877  0.00  0.00    +0.000 C 
ATOM     11  C   UNL     1       1.563   9.015  19.174  0.00  0.00    +0.000 A 
ATOM     12  C   UNL     1       0.988  10.203  19.606  0.00  0.00    +0.000 A 
ATOM     13  C   UNL     1       0.422  10.238  20.886  0.00  0.00    +0.000 A 
ATOM     14  C   UNL     1       0.422   9.077  21.689  0.00  0.00    +0.000 A 
ATOM     15  C   UNL     1       0.990   7.882  21.222  0.00  0.00    +0.000 A 
ATOM     16  C   UNL     1       1.592   7.863  19.973  0.00  0.00    +0.000 A 
BRANCH   6  18
ATOM     17  C   UNL     1       2.364   3.510  21.091  0.00  0.00    +0.000 C 
ATOM     18  C   UNL     1       2.246   5.025  21.020  0.00  0.00    +0.000 C 
ENDBRANCH   6  18
ENDBRANCH   3  13
ENDBRANCH   1   3
BRANCH   1  19
ATOM     19  C   UNL     1      -2.515  13.001  20.767  0.00  0.00    +0.000 C 
BRANCH  19  20
ATOM     20  C   UNL     1      -3.615  12.431  19.846  0.00  0.00    +0.000 C 
ATOM     21  O   UNL     1      -3.262  11.890  18.779  0.00  0.00    +0.000 OA
ATOM     22  N   UNL     1      -4.958  12.445  20.170  0.00  0.00    +0.000 N 
ATOM     23  C   UNL     1      -5.895  11.837  19.204  0.00  0.00    +0.000 C 
ATOM     24  C   UNL     1      -7.262  11.722  19.869  0.00  0.00    +0.000 C 
ATOM     25  C   UNL     1      -6.931  12.077  21.280  0.00  0.00    +0.000 A 
ATOM     26  C   UNL     1      -7.773  11.928  22.374  0.00  0.00    +0.000 A 
ATOM     27  C   UNL     1      -7.324  12.372  23.613  0.00  0.00    +0.000 A 
ATOM     28  C   UNL     1      -6.073  12.994  23.723  0.00  0.00    +0.000 A 
ATOM     29  C   UNL     1      -5.223  13.116  22.613  0.00  0.00    +0.000 A 
ATOM     30  C   UNL     1      -5.638  12.609  21.395  0.00  0.00    +0.000 A 
ENDBRANCH  19  20
BRANCH  19  31
ATOM     31  C   UNL     1      -2.367  14.528  20.693  0.00  0.00    +0.000 C 
BRANCH  31  32
ATOM     32  C   UNL     1      -2.002  15.296  21.989  0.00  0.00    +0.000 C 
ATOM     33  C   UNL     1      -2.111  14.479  23.275  0.00  0.00    +0.000 C 
ATOM     34  C   UNL     1      -0.562  15.823  21.885  0.00  0.00    +0.000 C 
ENDBRANCH  31  32
ENDBRANCH  19  31
ENDBRANCH   1  19
TORSDOF 7
ENDMDL
