MODEL 1
REMARK VINA RESULT:      -8.8      0.000      0.000
REMARK  Name = 
REMARK  3 active torsions:
REMARK  status: ('A' for Active; 'I' for Inactive)
REMARK    1  A    between atoms: S_2  and  N_4
REMARK    2  A    between atoms: S_2  and  C_16
REMARK    3  A    between atoms: N_4  and  N_5
REMARK                            x       y       z     vdW  Elec       q    Type
REMARK                         _______ _______ _______ _____ _____    ______ ____
ROOT
ATOM      1  N   UNL     1       5.110   5.753  16.230  0.00  0.00    +0.000 N 
ATOM      2  H   UNL     1       4.811   5.982  15.278  0.00  0.00    +0.000 HD
ENDROOT
BRANCH   1   3
ATOM      3  N   UNL     1       4.223   4.802  16.896  0.00  0.00    +0.000 NA
ATOM      4  C   UNL     1       3.502   5.264  17.879  0.00  0.00    +0.000 C 
ATOM      5  C   UNL     1       3.635   6.689  18.407  0.00  0.00    +0.000 C 
ATOM      6  C   UNL     1       2.405   7.159  19.165  0.00  0.00    +0.000 C 
ATOM      7  C   UNL     1       2.058   6.183  20.275  0.00  0.00    +0.000 C 
ATOM      8  C   UNL     1       1.818   4.814  19.703  0.00  0.00    +0.000 A 
ATOM      9  C   UNL     1       0.889   3.966  20.324  0.00  0.00    +0.000 A 
ATOM     10  C   UNL     1       0.657   2.685  19.824  0.00  0.00    +0.000 A 
ATOM     11  C   UNL     1       1.367   2.233  18.714  0.00  0.00    +0.000 A 
ATOM     12  C   UNL     1       2.304   3.064  18.094  0.00  0.00    +0.000 A 
ATOM     13  C   UNL     1       2.530   4.359  18.577  0.00  0.00    +0.000 A 
ENDBRANCH   1   3
BRANCH   1  15
ATOM     14  O   UNL     1       7.597   6.557  16.216  0.00  0.00    +0.000 OA
ATOM     15  S   UNL     1       6.783   5.366  16.122  0.00  0.00    +0.000 S 
ATOM     16  O   UNL     1       6.986   4.216  16.981  0.00  0.00    +0.000 OA
BRANCH  15  17
ATOM     17  C   UNL     1       6.859   4.804  14.433  0.00  0.00    +0.000 A 
ATOM     18  C   UNL     1       7.763   5.417  13.560  0.00  0.00    +0.000 A 
ATOM     19  C   UNL     1       7.794   5.028  12.221  0.00  0.00    +0.000 A 
ATOM     20  C   UNL     1       6.931   4.032  11.761  0.00  0.00    +0.000 A 
ATOM     21  C   UNL     1       6.045   3.408  12.642  0.00  0.00    +0.000 A 
ATOM     22  C   UNL     1       6.007   3.789  13.984  0.00  0.00    +0.000 A 
ENDBRANCH  15  17
ENDBRANCH   1  15
TORSDOF 3
ENDMDL
MODEL 2
REMARK VINA RESULT:      -8.7      0.050      1.060
REMARK  Name = 
REMARK  3 active torsions:
REMARK  status: ('A' for Active; 'I' for Inactive)
REMARK    1  A    between atoms: S_2  and  N_4
REMARK    2  A    between atoms: S_2  and  C_16
REMARK    3  A    between atoms: N_4  and  N_5
REMARK                            x       y       z     vdW  Elec       q    Type
REMARK                         _______ _______ _______ _____ _____    ______ ____
ROOT
ATOM      1  N   UNL     1       5.118   5.785  16.253  0.00  0.00    +0.000 N 
ATOM      2  H   UNL     1       4.807   6.049  15.314  0.00  0.00    +0.000 HD
ENDROOT
BRANCH   1   3
ATOM      3  N   UNL     1       4.229   4.826  16.903  0.00  0.00    +0.000 NA
ATOM      4  C   UNL     1       3.504   5.276  17.890  0.00  0.00    +0.000 C 
ATOM      5  C   UNL     1       3.636   6.695  18.435  0.00  0.00    +0.000 C 
ATOM      6  C   UNL     1       2.404   7.156  19.195  0.00  0.00    +0.000 C 
ATOM      7  C   UNL     1       2.051   6.167  20.291  0.00  0.00    +0.000 C 
ATOM      8  C   UNL     1       1.811   4.806  19.701  0.00  0.00    +0.000 A 
ATOM      9  C   UNL     1       0.879   3.950  20.307  0.00  0.00    +0.000 A 
ATOM     10  C   UNL     1       0.648   2.676  19.790  0.00  0.00    +0.000 A 
ATOM     11  C   UNL     1       1.362   2.238  18.677  0.00  0.00    +0.000 A 
ATOM     12  C   UNL     1       2.303   3.075  18.071  0.00  0.00    +0.000 A 
ATOM     13  C   UNL     1       2.527   4.364  18.572  0.00  0.00    +0.000 A 
ENDBRANCH   1   3
BRANCH   1  15
ATOM     14  O   UNL     1       7.617   6.551  16.209  0.00  0.00    +0.000 OA
ATOM     15  S   UNL     1       6.783   5.375  16.102  0.00  0.00    +0.000 S 
ATOM     16  O   UNL     1       6.985   4.202  16.930  0.00  0.00    +0.000 OA
BRANCH  15  17
ATOM     17  C   UNL     1       6.818   4.852  14.400  0.00  0.00    +0.000 A 
ATOM     18  C   UNL     1       5.936   3.849  13.986  0.00  0.00    +0.000 A 
ATOM     19  C   UNL     1       5.991   3.388  12.670  0.00  0.00    +0.000 A 
ATOM     20  C   UNL     1       6.917   3.930  11.777  0.00  0.00    +0.000 A 
ATOM     21  C   UNL     1       7.781   4.947  12.189  0.00  0.00    +0.000 A 
ATOM     22  C   UNL     1       7.733   5.415  13.503  0.00  0.00    +0.000 A 
ENDBRANCH  15  17
ENDBRANCH   1  15
TORSDOF 3
ENDMDL
MODEL 3
REMARK VINA RESULT:      -8.6      2.393      3.238
REMARK  Name = 
REMARK  3 active torsions:
REMARK  status: ('A' for Active; 'I' for Inactive)
REMARK    1  A    between atoms: S_2  and  N_4
REMARK    2  A    between atoms: S_2  and  C_16
REMARK    3  A    between atoms: N_4  and  N_5
REMARK                            x       y       z     vdW  Elec       q    Type
REMARK                         _______ _______ _______ _____ _____    ______ ____
ROOT
ATOM      1  N   UNL     1       4.844   5.197  15.606  0.00  0.00    +0.000 N 
ATOM      2  H   UNL     1       4.450   5.150  14.662  0.00  0.00    +0.000 HD
ENDROOT
BRANCH   1   3
ATOM      3  N   UNL     1       4.068   4.445  16.588  0.00  0.00    +0.000 NA
ATOM      4  C   UNL     1       3.490   5.136  17.532  0.00  0.00    +0.000 C 
ATOM      5  C   UNL     1       3.686   6.640  17.696  0.00  0.00    +0.000 C 
ATOM      6  C   UNL     1       2.574   7.301  18.492  0.00  0.00    +0.000 C 
ATOM      7  C   UNL     1       2.394   6.611  19.833  0.00  0.00    +0.000 C 
ATOM      8  C   UNL     1       2.085   5.155  19.627  0.00  0.00    +0.000 A 
ATOM      9  C   UNL     1       1.259   4.493  20.548  0.00  0.00    +0.000 A 
ATOM     10  C   UNL     1       0.968   3.139  20.391  0.00  0.00    +0.000 A 
ATOM     11  C   UNL     1       1.516   2.429  19.325  0.00  0.00    +0.000 A 
ATOM     12  C   UNL     1       2.350   3.073  18.407  0.00  0.00    +0.000 A 
ATOM     13  C   UNL     1       2.633   4.438  18.546  0.00  0.00    +0.000 A 
ENDBRANCH   1   3
BRANCH   1  15
ATOM     14  O   UNL     1       6.759   3.419  15.620  0.00  0.00    +0.000 OA
ATOM     15  S   UNL     1       6.517   4.833  15.441  0.00  0.00    +0.000 S 
ATOM     16  O   UNL     1       6.973   5.557  14.270  0.00  0.00    +0.000 OA
BRANCH  15  17
ATOM     17  C   UNL     1       7.157   5.667  16.879  0.00  0.00    +0.000 A 
ATOM     18  C   UNL     1       7.327   7.053  16.833  0.00  0.00    +0.000 A 
ATOM     19  C   UNL     1       7.881   7.713  17.930  0.00  0.00    +0.000 A 
ATOM     20  C   UNL     1       8.256   6.992  19.065  0.00  0.00    +0.000 A 
ATOM     21  C   UNL     1       8.064   5.609  19.115  0.00  0.00    +0.000 A 
ATOM     22  C   UNL     1       7.510   4.940  18.022  0.00  0.00    +0.000 A 
ENDBRANCH  15  17
ENDBRANCH   1  15
TORSDOF 3
ENDMDL
MODEL 4
REMARK VINA RESULT:      -8.6      2.357      3.318
REMARK  Name = 
REMARK  3 active torsions:
REMARK  status: ('A' for Active; 'I' for Inactive)
REMARK    1  A    between atoms: S_2  and  N_4
REMARK    2  A    between atoms: S_2  and  C_16
REMARK    3  A    between atoms: N_4  and  N_5
REMARK                            x       y       z     vdW  Elec       q    Type
REMARK                         _______ _______ _______ _____ _____    ______ ____
ROOT
ATOM      1  N   UNL     1       4.838   5.226  15.580  0.00  0.00    +0.000 N 
ATOM      2  H   UNL     1       4.433   5.228  14.640  0.00  0.00    +0.000 HD
ENDROOT
BRANCH   1   3
ATOM      3  N   UNL     1       4.045   4.469  16.544  0.00  0.00    +0.000 NA
ATOM      4  C   UNL     1       3.480   5.152  17.502  0.00  0.00    +0.000 C 
ATOM      5  C   UNL     1       3.708   6.647  17.700  0.00  0.00    +0.000 C 
ATOM      6  C   UNL     1       2.608   7.314  18.508  0.00  0.00    +0.000 C 
ATOM      7  C   UNL     1       2.411   6.599  19.833  0.00  0.00    +0.000 C 
ATOM      8  C   UNL     1       2.071   5.154  19.595  0.00  0.00    +0.000 A 
ATOM      9  C   UNL     1       1.230   4.490  20.500  0.00  0.00    +0.000 A 
ATOM     10  C   UNL     1       0.910   3.147  20.313  0.00  0.00    +0.000 A 
ATOM     11  C   UNL     1       1.445   2.449  19.232  0.00  0.00    +0.000 A 
ATOM     12  C   UNL     1       2.295   3.095  18.330  0.00  0.00    +0.000 A 
ATOM     13  C   UNL     1       2.606   4.450  18.500  0.00  0.00    +0.000 A 
ENDBRANCH   1   3
BRANCH   1  15
ATOM     14  O   UNL     1       6.693   3.385  15.568  0.00  0.00    +0.000 OA
ATOM     15  S   UNL     1       6.495   4.804  15.382  0.00  0.00    +0.000 S 
ATOM     16  O   UNL     1       6.949   5.503  14.194  0.00  0.00    +0.000 OA
BRANCH  15  17
ATOM     17  C   UNL     1       7.194   5.627  16.798  0.00  0.00    +0.000 A 
ATOM     18  C   UNL     1       7.550   4.863  17.913  0.00  0.00    +0.000 A 
ATOM     19  C   UNL     1       8.045   5.500  19.051  0.00  0.00    +0.000 A 
ATOM     20  C   UNL     1       8.185   6.888  19.072  0.00  0.00    +0.000 A 
ATOM     21  C   UNL     1       7.847   7.646  17.948  0.00  0.00    +0.000 A 
ATOM     22  C   UNL     1       7.353   7.018  16.803  0.00  0.00    +0.000 A 
ENDBRANCH  15  17
ENDBRANCH   1  15
TORSDOF 3
ENDMDL
MODEL 5
REMARK VINA RESULT:      -7.9      0.892      2.551
REMARK  Name = 
REMARK  3 active torsions:
REMARK  status: ('A' for Active; 'I' for Inactive)
REMARK    1  A    between atoms: S_2  and  N_4
REMARK    2  A    between atoms: S_2  and  C_16
REMARK    3  A    between atoms: N_4  and  N_5
REMARK                            x       y       z     vdW  Elec       q    Type
REMARK                         _______ _______ _______ _____ _____    ______ ____
ROOT
ATOM      1  N   UNL     1       5.446   4.225  16.332  0.00  0.00    +0.000 N 
ATOM      2  H   UNL     1       5.753   3.295  16.633  0.00  0.00    +0.000 HD
ENDROOT
BRANCH   1   3
ATOM      3  N   UNL     1       4.522   4.854  17.272  0.00  0.00    +0.000 NA
ATOM      4  C   UNL     1       3.710   4.061  17.915  0.00  0.00    +0.000 C 
ATOM      5  C   UNL     1       3.626   2.562  17.641  0.00  0.00    +0.000 C 
ATOM      6  C   UNL     1       3.027   1.780  18.797  0.00  0.00    +0.000 C 
ATOM      7  C   UNL     1       1.676   2.353  19.186  0.00  0.00    +0.000 C 
ATOM      8  C   UNL     1       1.818   3.801  19.564  0.00  0.00    +0.000 A 
ATOM      9  C   UNL     1       0.967   4.342  20.539  0.00  0.00    +0.000 A 
ATOM     10  C   UNL     1       1.066   5.685  20.897  0.00  0.00    +0.000 A 
ATOM     11  C   UNL     1       2.002   6.504  20.270  0.00  0.00    +0.000 A 
ATOM     12  C   UNL     1       2.847   5.981  19.288  0.00  0.00    +0.000 A 
ATOM     13  C   UNL     1       2.767   4.628  18.935  0.00  0.00    +0.000 A 
ENDBRANCH   1   3
BRANCH   1  15
ATOM     14  O   UNL     1       6.691   6.506  16.054  0.00  0.00    +0.000 OA
ATOM     15  S   UNL     1       6.875   5.081  15.902  0.00  0.00    +0.000 S 
ATOM     16  O   UNL     1       7.974   4.369  16.526  0.00  0.00    +0.000 OA
BRANCH  15  17
ATOM     17  C   UNL     1       6.926   4.736  14.155  0.00  0.00    +0.000 A 
ATOM     18  C   UNL     1       6.097   3.734  13.643  0.00  0.00    +0.000 A 
ATOM     19  C   UNL     1       6.167   3.412  12.287  0.00  0.00    +0.000 A 
ATOM     20  C   UNL     1       7.055   4.091  11.452  0.00  0.00    +0.000 A 
ATOM     21  C   UNL     1       7.867   5.105  11.964  0.00  0.00    +0.000 A 
ATOM     22  C   UNL     1       7.803   5.435  13.319  0.00  0.00    +0.000 A 
ENDBRANCH  15  17
ENDBRANCH   1  15
TORSDOF 3
ENDMDL
MODEL 6
REMARK VINA RESULT:      -7.9      2.465      3.974
REMARK  Name = 
REMARK  3 active torsions:
REMARK  status: ('A' for Active; 'I' for Inactive)
REMARK    1  A    between atoms: S_2  and  N_4
REMARK    2  A    between atoms: S_2  and  C_16
REMARK    3  A    between atoms: N_4  and  N_5
REMARK                            x       y       z     vdW  Elec       q    Type
REMARK                         _______ _______ _______ _____ _____    ______ ____
ROOT
ATOM      1  N   UNL     1       4.989   4.174  15.846  0.00  0.00    +0.000 N 
ATOM      2  H   UNL     1       5.412   3.286  16.131  0.00  0.00    +0.000 HD
ENDROOT
BRANCH   1   3
ATOM      3  N   UNL     1       4.153   4.769  16.886  0.00  0.00    +0.000 NA
ATOM      4  C   UNL     1       3.529   3.943  17.680  0.00  0.00    +0.000 C 
ATOM      5  C   UNL     1       3.558   2.430  17.490  0.00  0.00    +0.000 C 
ATOM      6  C   UNL     1       3.218   1.666  18.757  0.00  0.00    +0.000 C 
ATOM      7  C   UNL     1       1.887   2.132  19.321  0.00  0.00    +0.000 C 
ATOM      8  C   UNL     1       1.936   3.607  19.606  0.00  0.00    +0.000 A 
ATOM      9  C   UNL     1       1.186   4.123  20.674  0.00  0.00    +0.000 A 
ATOM     10  C   UNL     1       1.200   5.488  20.952  0.00  0.00    +0.000 A 
ATOM     11  C   UNL     1       1.946   6.353  20.154  0.00  0.00    +0.000 A 
ATOM     12  C   UNL     1       2.687   5.854  19.080  0.00  0.00    +0.000 A 
ATOM     13  C   UNL     1       2.694   4.480  18.804  0.00  0.00    +0.000 A 
ENDBRANCH   1   3
BRANCH   1  15
ATOM     14  O   UNL     1       7.212   4.292  14.476  0.00  0.00    +0.000 OA
ATOM     15  S   UNL     1       6.268   5.121  15.191  0.00  0.00    +0.000 S 
ATOM     16  O   UNL     1       5.642   6.282  14.589  0.00  0.00    +0.000 OA
BRANCH  15  17
ATOM     17  C   UNL     1       7.061   5.650  16.696  0.00  0.00    +0.000 A 
ATOM     18  C   UNL     1       7.409   4.686  17.647  0.00  0.00    +0.000 A 
ATOM     19  C   UNL     1       7.978   5.090  18.856  0.00  0.00    +0.000 A 
ATOM     20  C   UNL     1       8.199   6.446  19.107  0.00  0.00    +0.000 A 
ATOM     21  C   UNL     1       7.868   7.402  18.145  0.00  0.00    +0.000 A 
ATOM     22  C   UNL     1       7.300   7.008  16.932  0.00  0.00    +0.000 A 
ENDBRANCH  15  17
ENDBRANCH   1  15
TORSDOF 3
ENDMDL
MODEL 7
REMARK VINA RESULT:      -7.8      4.563      6.638
REMARK  Name = 
REMARK  3 active torsions:
REMARK  status: ('A' for Active; 'I' for Inactive)
REMARK    1  A    between atoms: S_2  and  N_4
REMARK    2  A    between atoms: S_2  and  C_16
REMARK    3  A    between atoms: N_4  and  N_5
REMARK                            x       y       z     vdW  Elec       q    Type
REMARK                         _______ _______ _______ _____ _____    ______ ____
ROOT
ATOM      1  N   UNL     1       2.813   6.981  18.254  0.00  0.00    +0.000 N 
ATOM      2  H   UNL     1       2.093   6.761  17.560  0.00  0.00    +0.000 HD
ENDROOT
BRANCH   1   3
ATOM      3  N   UNL     1       2.272   7.586  19.468  0.00  0.00    +0.000 NA
ATOM      4  C   UNL     1       1.470   8.603  19.307  0.00  0.00    +0.000 C 
ATOM      5  C   UNL     1       1.181   9.223  17.944  0.00  0.00    +0.000 C 
ATOM      6  C   UNL     1      -0.113  10.018  17.916  0.00  0.00    +0.000 C 
ATOM      7  C   UNL     1      -0.122  11.063  19.018  0.00  0.00    +0.000 C 
ATOM      8  C   UNL     1       0.047  10.402  20.357  0.00  0.00    +0.000 A 
ATOM      9  C   UNL     1      -0.568  10.970  21.484  0.00  0.00    +0.000 A 
ATOM     10  C   UNL     1      -0.415  10.387  22.740  0.00  0.00    +0.000 A 
ATOM     11  C   UNL     1       0.368   9.245  22.887  0.00  0.00    +0.000 A 
ATOM     12  C   UNL     1       0.996   8.676  21.775  0.00  0.00    +0.000 A 
ATOM     13  C   UNL     1       0.834   9.244  20.505  0.00  0.00    +0.000 A 
ENDBRANCH   1   3
BRANCH   1  15
ATOM     14  O   UNL     1       3.956   4.915  17.132  0.00  0.00    +0.000 OA
ATOM     15  S   UNL     1       3.769   5.559  18.412  0.00  0.00    +0.000 S 
ATOM     16  O   UNL     1       4.882   5.915  19.272  0.00  0.00    +0.000 OA
BRANCH  15  17
ATOM     17  C   UNL     1       2.654   4.542  19.359  0.00  0.00    +0.000 A 
ATOM     18  C   UNL     1       2.847   4.437  20.739  0.00  0.00    +0.000 A 
ATOM     19  C   UNL     1       2.018   3.600  21.486  0.00  0.00    +0.000 A 
ATOM     20  C   UNL     1       1.002   2.878  20.856  0.00  0.00    +0.000 A 
ATOM     21  C   UNL     1       0.800   3.003  19.480  0.00  0.00    +0.000 A 
ATOM     22  C   UNL     1       1.624   3.839  18.725  0.00  0.00    +0.000 A 
ENDBRANCH  15  17
ENDBRANCH   1  15
TORSDOF 3
ENDMDL
MODEL 8
REMARK VINA RESULT:      -7.8      2.487      3.893
REMARK  Name = 
REMARK  3 active torsions:
REMARK  status: ('A' for Active; 'I' for Inactive)
REMARK    1  A    between atoms: S_2  and  N_4
REMARK    2  A    between atoms: S_2  and  C_16
REMARK    3  A    between atoms: N_4  and  N_5
REMARK                            x       y       z     vdW  Elec       q    Type
REMARK                         _______ _______ _______ _____ _____    ______ ____
ROOT
ATOM      1  N   UNL     1       4.999   4.165  15.867  0.00  0.00    +0.000 N 
ATOM      2  H   UNL     1       5.423   3.274  16.142  0.00  0.00    +0.000 HD
ENDROOT
BRANCH   1   3
ATOM      3  N   UNL     1       4.162   4.747  16.912  0.00  0.00    +0.000 NA
ATOM      4  C   UNL     1       3.504   3.913  17.669  0.00  0.00    +0.000 C 
ATOM      5  C   UNL     1       3.498   2.406  17.430  0.00  0.00    +0.000 C 
ATOM      6  C   UNL     1       3.117   1.610  18.666  0.00  0.00    +0.000 C 
ATOM      7  C   UNL     1       1.790   2.093  19.224  0.00  0.00    +0.000 C 
ATOM      8  C   UNL     1       1.872   3.556  19.558  0.00  0.00    +0.000 A 
ATOM      9  C   UNL     1       1.118   4.056  20.630  0.00  0.00    +0.000 A 
ATOM     10  C   UNL     1       1.162   5.411  20.953  0.00  0.00    +0.000 A 
ATOM     11  C   UNL     1       1.942   6.282  20.196  0.00  0.00    +0.000 A 
ATOM     12  C   UNL     1       2.688   5.798  19.117  0.00  0.00    +0.000 A 
ATOM     13  C   UNL     1       2.665   4.435  18.797  0.00  0.00    +0.000 A 
ENDBRANCH   1   3
BRANCH   1  15
ATOM     14  O   UNL     1       7.264   4.291  14.568  0.00  0.00    +0.000 OA
ATOM     15  S   UNL     1       6.277   5.120  15.222  0.00  0.00    +0.000 S 
ATOM     16  O   UNL     1       5.645   6.244  14.560  0.00  0.00    +0.000 OA
BRANCH  15  17
ATOM     17  C   UNL     1       7.006   5.718  16.734  0.00  0.00    +0.000 A 
ATOM     18  C   UNL     1       7.218   7.092  16.880  0.00  0.00    +0.000 A 
ATOM     19  C   UNL     1       7.841   7.570  18.034  0.00  0.00    +0.000 A 
ATOM     20  C   UNL     1       8.242   6.681  19.032  0.00  0.00    +0.000 A 
ATOM     21  C   UNL     1       8.009   5.312  18.891  0.00  0.00    +0.000 A 
ATOM     22  C   UNL     1       7.386   4.824  17.741  0.00  0.00    +0.000 A 
ENDBRANCH  15  17
ENDBRANCH   1  15
TORSDOF 3
ENDMDL
MODEL 9
REMARK VINA RESULT:      -7.7      4.494      6.617
REMARK  Name = 
REMARK  3 active torsions:
REMARK  status: ('A' for Active; 'I' for Inactive)
REMARK    1  A    between atoms: S_2  and  N_4
REMARK    2  A    between atoms: S_2  and  C_16
REMARK    3  A    between atoms: N_4  and  N_5
REMARK                            x       y       z     vdW  Elec       q    Type
REMARK                         _______ _______ _______ _____ _____    ______ ____
ROOT
ATOM      1  N   UNL     1       2.840   6.962  18.239  0.00  0.00    +0.000 N 
ATOM      2  H   UNL     1       2.116   6.717  17.558  0.00  0.00    +0.000 HD
ENDROOT
BRANCH   1   3
ATOM      3  N   UNL     1       2.302   7.569  19.454  0.00  0.00    +0.000 NA
ATOM      4  C   UNL     1       1.494   8.580  19.294  0.00  0.00    +0.000 C 
ATOM      5  C   UNL     1       1.195   9.195  17.930  0.00  0.00    +0.000 C 
ATOM      6  C   UNL     1      -0.104   9.983  17.906  0.00  0.00    +0.000 C 
ATOM      7  C   UNL     1      -0.113  11.031  19.005  0.00  0.00    +0.000 C 
ATOM      8  C   UNL     1       0.066  10.375  20.345  0.00  0.00    +0.000 A 
ATOM      9  C   UNL     1      -0.546  10.943  21.473  0.00  0.00    +0.000 A 
ATOM     10  C   UNL     1      -0.384  10.366  22.731  0.00  0.00    +0.000 A 
ATOM     11  C   UNL     1       0.406   9.228  22.877  0.00  0.00    +0.000 A 
ATOM     12  C   UNL     1       1.032   8.659  21.764  0.00  0.00    +0.000 A 
ATOM     13  C   UNL     1       0.860   9.222  20.493  0.00  0.00    +0.000 A 
ENDBRANCH   1   3
BRANCH   1  15
ATOM     14  O   UNL     1       4.066   4.946  17.115  0.00  0.00    +0.000 OA
ATOM     15  S   UNL     1       3.832   5.565  18.400  0.00  0.00    +0.000 S 
ATOM     16  O   UNL     1       4.914   5.940  19.290  0.00  0.00    +0.000 OA
BRANCH  15  17
ATOM     17  C   UNL     1       2.724   4.504  19.306  0.00  0.00    +0.000 A 
ATOM     18  C   UNL     1       1.738   3.805  18.604  0.00  0.00    +0.000 A 
ATOM     19  C   UNL     1       0.826   3.016  19.306  0.00  0.00    +0.000 A 
ATOM     20  C   UNL     1       0.904   2.924  20.696  0.00  0.00    +0.000 A 
ATOM     21  C   UNL     1       1.905   3.608  21.391  0.00  0.00    +0.000 A 
ATOM     22  C   UNL     1       2.823   4.399  20.698  0.00  0.00    +0.000 A 
ENDBRANCH  15  17
ENDBRANCH   1  15
TORSDOF 3
ENDMDL
