MODEL 1
REMARK VINA RESULT:      -7.2      0.000      0.000
REMARK  Name = 
REMARK  5 active torsions:
REMARK  status: ('A' for Active; 'I' for Inactive)
REMARK    1  A    between atoms: C_1  and  N_2
REMARK    2  A    between atoms: N_2  and  C_18
REMARK    3  A    between atoms: N_8  and  C_9
REMARK    4  A    between atoms: C_12  and  C_13
REMARK    5  A    between atoms: C_13  and  O_14
REMARK                            x       y       z     vdW  Elec       q    Type
REMARK                         _______ _______ _______ _____ _____    ______ ____
ROOT
ATOM      1  C   UNL     1       4.824   3.700  19.678  0.00  0.00    +0.000 C 
ATOM      2  N   UNL     1       4.683   3.923  18.243  0.00  0.00    +0.000 N 
ATOM      3  C   UNL     1       5.641   4.745  17.642  0.00  0.00    +0.000 A 
ATOM      4  C   UNL     1       5.799   4.808  16.267  0.00  0.00    +0.000 A 
ATOM      5  C   UNL     1       6.801   5.604  15.773  0.00  0.00    +0.000 A 
ATOM      6  N   UNL     1       7.576   6.369  16.540  0.00  0.00    +0.000 NA
ATOM      7  C   UNL     1       7.346   6.317  17.858  0.00  0.00    +0.000 A 
ATOM      8  N   UNL     1       8.070   7.148  18.718  0.00  0.00    +0.000 N 
ATOM      9  N   UNL     1       6.433   5.507  18.425  0.00  0.00    +0.000 NA
ATOM     10  H   UNL     1       7.694   6.993  19.646  0.00  0.00    +0.000 HD
ENDROOT
BRANCH   8  11
ATOM     11  C   UNL     1       8.368   8.514  18.500  0.00  0.00    +0.000 A 
ATOM     12  C   UNL     1       7.760   9.272  17.493  0.00  0.00    +0.000 A 
ATOM     13  C   UNL     1       8.009  10.641  17.367  0.00  0.00    +0.000 A 
ATOM     14  C   UNL     1       8.871  11.292  18.253  0.00  0.00    +0.000 A 
ATOM     15  C   UNL     1       9.530  10.529  19.225  0.00  0.00    +0.000 A 
ATOM     16  C   UNL     1       9.266   9.160  19.359  0.00  0.00    +0.000 A 
BRANCH  14  17
ATOM     17  C   UNL     1       9.103  12.774  18.116  0.00  0.00    +0.000 C 
BRANCH  17  18
ATOM     18  O   UNL     1       8.326  13.334  17.065  0.00  0.00    +0.000 OA
ATOM     19  H   UNL     1       7.980  12.587  16.547  0.00  0.00    +0.000 HD
ENDBRANCH  17  18
ENDBRANCH  14  17
ENDBRANCH   8  11
BRANCH   2  20
ATOM     20  C   UNL     1       3.645   3.217  17.458  0.00  0.00    +0.000 C 
ATOM     21  C   UNL     1       3.342   1.814  18.010  0.00  0.00    +0.000 C 
ATOM     22  C   UNL     1       2.521   1.845  19.291  0.00  0.00    +0.000 C 
ATOM     23  C   UNL     1       1.203   2.577  19.088  0.00  0.00    +0.000 C 
ATOM     24  C   UNL     1       1.357   3.956  18.451  0.00  0.00    +0.000 C 
ATOM     25  C   UNL     1       2.328   3.996  17.268  0.00  0.00    +0.000 C 
ENDBRANCH   2  20
TORSDOF 4
ENDMDL
MODEL 2
REMARK VINA RESULT:      -7.2      6.627      7.762
REMARK  Name = 
REMARK  5 active torsions:
REMARK  status: ('A' for Active; 'I' for Inactive)
REMARK    1  A    between atoms: C_1  and  N_2
REMARK    2  A    between atoms: N_2  and  C_18
REMARK    3  A    between atoms: N_8  and  C_9
REMARK    4  A    between atoms: C_12  and  C_13
REMARK    5  A    between atoms: C_13  and  O_14
REMARK                            x       y       z     vdW  Elec       q    Type
REMARK                         _______ _______ _______ _____ _____    ______ ____
ROOT
ATOM      1  C   UNL     1       2.553   5.197  20.413  0.00  0.00    +0.000 C 
ATOM      2  N   UNL     1       2.355   5.818  19.108  0.00  0.00    +0.000 N 
ATOM      3  C   UNL     1       2.081   7.189  19.106  0.00  0.00    +0.000 A 
ATOM      4  C   UNL     1       2.158   7.953  17.952  0.00  0.00    +0.000 A 
ATOM      5  C   UNL     1       1.921   9.300  18.059  0.00  0.00    +0.000 A 
ATOM      6  N   UNL     1       1.554   9.893  19.194  0.00  0.00    +0.000 NA
ATOM      7  C   UNL     1       1.437   9.102  20.268  0.00  0.00    +0.000 A 
ATOM      8  N   UNL     1       0.984   9.642  21.475  0.00  0.00    +0.000 N 
ATOM      9  N   UNL     1       1.723   7.787  20.262  0.00  0.00    +0.000 NA
ATOM     10  H   UNL     1       0.911   8.865  22.123  0.00  0.00    +0.000 HD
ENDROOT
BRANCH   8  11
ATOM     11  C   UNL     1      -0.090  10.549  21.630  0.00  0.00    +0.000 A 
ATOM     12  C   UNL     1      -0.633  11.272  20.561  0.00  0.00    +0.000 A 
ATOM     13  C   UNL     1      -1.754  12.089  20.735  0.00  0.00    +0.000 A 
ATOM     14  C   UNL     1      -2.366  12.200  21.986  0.00  0.00    +0.000 A 
ATOM     15  C   UNL     1      -1.791  11.529  23.073  0.00  0.00    +0.000 A 
ATOM     16  C   UNL     1      -0.678  10.698  22.893  0.00  0.00    +0.000 A 
BRANCH  14  17
ATOM     17  C   UNL     1      -3.590  13.064  22.145  0.00  0.00    +0.000 C 
BRANCH  17  18
ATOM     18  O   UNL     1      -4.744  12.292  22.455  0.00  0.00    +0.000 OA
ATOM     19  H   UNL     1      -5.234  12.178  21.623  0.00  0.00    +0.000 HD
ENDBRANCH  17  18
ENDBRANCH  14  17
ENDBRANCH   8  11
BRANCH   2  20
ATOM     20  C   UNL     1       2.552   5.051  17.858  0.00  0.00    +0.000 C 
ATOM     21  C   UNL     1       3.964   4.451  17.752  0.00  0.00    +0.000 C 
ATOM     22  C   UNL     1       4.169   3.249  18.662  0.00  0.00    +0.000 C 
ATOM     23  C   UNL     1       3.157   2.152  18.368  0.00  0.00    +0.000 C 
ATOM     24  C   UNL     1       1.711   2.638  18.348  0.00  0.00    +0.000 C 
ATOM     25  C   UNL     1       1.501   3.954  17.593  0.00  0.00    +0.000 C 
ENDBRANCH   2  20
TORSDOF 4
ENDMDL
MODEL 3
REMARK VINA RESULT:      -7.1      6.601      7.798
REMARK  Name = 
REMARK  5 active torsions:
REMARK  status: ('A' for Active; 'I' for Inactive)
REMARK    1  A    between atoms: C_1  and  N_2
REMARK    2  A    between atoms: N_2  and  C_18
REMARK    3  A    between atoms: N_8  and  C_9
REMARK    4  A    between atoms: C_12  and  C_13
REMARK    5  A    between atoms: C_13  and  O_14
REMARK                            x       y       z     vdW  Elec       q    Type
REMARK                         _______ _______ _______ _____ _____    ______ ____
ROOT
ATOM      1  C   UNL     1       2.811   5.196  20.406  0.00  0.00    +0.000 C 
ATOM      2  N   UNL     1       2.504   5.801  19.114  0.00  0.00    +0.000 N 
ATOM      3  C   UNL     1       2.135   7.148  19.129  0.00  0.00    +0.000 A 
ATOM      4  C   UNL     1       2.099   7.915  17.975  0.00  0.00    +0.000 A 
ATOM      5  C   UNL     1       1.775   9.242  18.096  0.00  0.00    +0.000 A 
ATOM      6  N   UNL     1       1.426   9.810  19.250  0.00  0.00    +0.000 NA
ATOM      7  C   UNL     1       1.420   9.014  20.327  0.00  0.00    +0.000 A 
ATOM      8  N   UNL     1       0.993   9.523  21.557  0.00  0.00    +0.000 N 
ATOM      9  N   UNL     1       1.796   7.722  20.303  0.00  0.00    +0.000 NA
ATOM     10  H   UNL     1       1.007   8.744  22.206  0.00  0.00    +0.000 HD
ENDROOT
BRANCH   8  11
ATOM     11  C   UNL     1      -0.132  10.354  21.769  0.00  0.00    +0.000 A 
ATOM     12  C   UNL     1      -0.781  10.451  23.005  0.00  0.00    +0.000 A 
ATOM     13  C   UNL     1      -1.831  11.352  23.203  0.00  0.00    +0.000 A 
ATOM     14  C   UNL     1      -2.257  12.187  22.166  0.00  0.00    +0.000 A 
ATOM     15  C   UNL     1      -1.654  12.051  20.909  0.00  0.00    +0.000 A 
ATOM     16  C   UNL     1      -0.591  11.159  20.719  0.00  0.00    +0.000 A 
BRANCH  14  17
ATOM     17  C   UNL     1      -3.372  13.170  22.409  0.00  0.00    +0.000 C 
BRANCH  17  18
ATOM     18  O   UNL     1      -4.561  12.521  22.843  0.00  0.00    +0.000 OA
ATOM     19  H   UNL     1      -4.902  13.036  23.594  0.00  0.00    +0.000 HD
ENDBRANCH  17  18
ENDBRANCH  14  17
ENDBRANCH   8  11
BRANCH   2  20
ATOM     20  C   UNL     1       2.689   5.047  17.854  0.00  0.00    +0.000 C 
ATOM     21  C   UNL     1       4.068   4.372  17.770  0.00  0.00    +0.000 C 
ATOM     22  C   UNL     1       4.183   3.143  18.660  0.00  0.00    +0.000 C 
ATOM     23  C   UNL     1       3.120   2.109  18.320  0.00  0.00    +0.000 C 
ATOM     24  C   UNL     1       1.704   2.676  18.275  0.00  0.00    +0.000 C 
ATOM     25  C   UNL     1       1.586   4.016  17.542  0.00  0.00    +0.000 C 
ENDBRANCH   2  20
TORSDOF 4
ENDMDL
MODEL 4
REMARK VINA RESULT:      -7.0      0.120      1.009
REMARK  Name = 
REMARK  5 active torsions:
REMARK  status: ('A' for Active; 'I' for Inactive)
REMARK    1  A    between atoms: C_1  and  N_2
REMARK    2  A    between atoms: N_2  and  C_18
REMARK    3  A    between atoms: N_8  and  C_9
REMARK    4  A    between atoms: C_12  and  C_13
REMARK    5  A    between atoms: C_13  and  O_14
REMARK                            x       y       z     vdW  Elec       q    Type
REMARK                         _______ _______ _______ _____ _____    ______ ____
ROOT
ATOM      1  C   UNL     1       4.952   3.543  19.627  0.00  0.00    +0.000 C 
ATOM      2  N   UNL     1       4.750   3.846  18.214  0.00  0.00    +0.000 N 
ATOM      3  C   UNL     1       5.666   4.723  17.627  0.00  0.00    +0.000 A 
ATOM      4  C   UNL     1       5.768   4.869  16.252  0.00  0.00    +0.000 A 
ATOM      5  C   UNL     1       6.733   5.716  15.768  0.00  0.00    +0.000 A 
ATOM      6  N   UNL     1       7.522   6.453  16.549  0.00  0.00    +0.000 NA
ATOM      7  C   UNL     1       7.345   6.319  17.869  0.00  0.00    +0.000 A 
ATOM      8  N   UNL     1       8.085   7.115  18.748  0.00  0.00    +0.000 N 
ATOM      9  N   UNL     1       6.473   5.457  18.422  0.00  0.00    +0.000 NA
ATOM     10  H   UNL     1       7.749   6.898  19.679  0.00  0.00    +0.000 HD
ENDROOT
BRANCH   8  11
ATOM     11  C   UNL     1       8.346   8.498  18.600  0.00  0.00    +0.000 A 
ATOM     12  C   UNL     1       9.249   9.191  19.415  0.00  0.00    +0.000 A 
ATOM     13  C   UNL     1       9.551  10.535  19.180  0.00  0.00    +0.000 A 
ATOM     14  C   UNL     1       8.960  11.222  18.116  0.00  0.00    +0.000 A 
ATOM     15  C   UNL     1       8.009  10.553  17.335  0.00  0.00    +0.000 A 
ATOM     16  C   UNL     1       7.721   9.201  17.563  0.00  0.00    +0.000 A 
BRANCH  14  17
ATOM     17  C   UNL     1       9.321  12.663  17.865  0.00  0.00    +0.000 C 
BRANCH  17  18
ATOM     18  O   UNL     1       8.407  13.287  16.971  0.00  0.00    +0.000 OA
ATOM     19  H   UNL     1       8.405  14.234  17.191  0.00  0.00    +0.000 HD
ENDBRANCH  17  18
ENDBRANCH  14  17
ENDBRANCH   8  11
BRANCH   2  20
ATOM     20  C   UNL     1       3.696   3.163  17.429  0.00  0.00    +0.000 C 
ATOM     21  C   UNL     1       3.347   1.776  17.995  0.00  0.00    +0.000 C 
ATOM     22  C   UNL     1       2.518   1.847  19.269  0.00  0.00    +0.000 C 
ATOM     23  C   UNL     1       1.224   2.617  19.048  0.00  0.00    +0.000 C 
ATOM     24  C   UNL     1       1.425   3.982  18.397  0.00  0.00    +0.000 C 
ATOM     25  C   UNL     1       2.406   3.980  17.220  0.00  0.00    +0.000 C 
ENDBRANCH   2  20
TORSDOF 4
ENDMDL
MODEL 5
REMARK VINA RESULT:      -6.9      5.695      6.568
REMARK  Name = 
REMARK  5 active torsions:
REMARK  status: ('A' for Active; 'I' for Inactive)
REMARK    1  A    between atoms: C_1  and  N_2
REMARK    2  A    between atoms: N_2  and  C_18
REMARK    3  A    between atoms: N_8  and  C_9
REMARK    4  A    between atoms: C_12  and  C_13
REMARK    5  A    between atoms: C_13  and  O_14
REMARK                            x       y       z     vdW  Elec       q    Type
REMARK                         _______ _______ _______ _____ _____    ______ ____
ROOT
ATOM      1  C   UNL     1       2.544   6.509  17.801  0.00  0.00    +0.000 C 
ATOM      2  N   UNL     1       2.467   6.709  19.244  0.00  0.00    +0.000 N 
ATOM      3  C   UNL     1       1.870   7.896  19.678  0.00  0.00    +0.000 A 
ATOM      4  C   UNL     1       1.473   8.083  20.992  0.00  0.00    +0.000 A 
ATOM      5  C   UNL     1       0.848   9.261  21.311  0.00  0.00    +0.000 A 
ATOM      6  N   UNL     1       0.669  10.256  20.444  0.00  0.00    +0.000 NA
ATOM      7  C   UNL     1       1.122  10.050  19.200  0.00  0.00    +0.000 A 
ATOM      8  N   UNL     1       1.036  11.077  18.256  0.00  0.00    +0.000 N 
ATOM      9  N   UNL     1       1.678   8.895  18.791  0.00  0.00    +0.000 NA
ATOM     10  H   UNL     1       1.489  10.731  17.418  0.00  0.00    +0.000 HD
ENDROOT
BRANCH   8  11
ATOM     11  C   UNL     1       1.334  12.441  18.481  0.00  0.00    +0.000 A 
ATOM     12  C   UNL     1       2.633  12.957  18.399  0.00  0.00    +0.000 A 
ATOM     13  C   UNL     1       2.879  14.326  18.536  0.00  0.00    +0.000 A 
ATOM     14  C   UNL     1       1.826  15.220  18.751  0.00  0.00    +0.000 A 
ATOM     15  C   UNL     1       0.531  14.704  18.895  0.00  0.00    +0.000 A 
ATOM     16  C   UNL     1       0.287  13.334  18.742  0.00  0.00    +0.000 A 
BRANCH  14  17
ATOM     17  C   UNL     1       2.110  16.695  18.867  0.00  0.00    +0.000 C 
BRANCH  17  18
ATOM     18  O   UNL     1       3.096  17.116  17.933  0.00  0.00    +0.000 OA
ATOM     19  H   UNL     1       2.708  17.853  17.431  0.00  0.00    +0.000 HD
ENDBRANCH  17  18
ENDBRANCH  14  17
ENDBRANCH   8  11
BRANCH   2  20
ATOM     20  C   UNL     1       2.897   5.652  20.187  0.00  0.00    +0.000 C 
ATOM     21  C   UNL     1       1.710   4.884  20.791  0.00  0.00    +0.000 C 
ATOM     22  C   UNL     1       1.069   3.914  19.810  0.00  0.00    +0.000 C 
ATOM     23  C   UNL     1       2.080   2.903  19.288  0.00  0.00    +0.000 C 
ATOM     24  C   UNL     1       3.357   3.536  18.743  0.00  0.00    +0.000 C 
ATOM     25  C   UNL     1       3.928   4.654  19.621  0.00  0.00    +0.000 C 
ENDBRANCH   2  20
TORSDOF 4
ENDMDL
MODEL 6
REMARK VINA RESULT:      -6.9      6.562      7.666
REMARK  Name = 
REMARK  5 active torsions:
REMARK  status: ('A' for Active; 'I' for Inactive)
REMARK    1  A    between atoms: C_1  and  N_2
REMARK    2  A    between atoms: N_2  and  C_18
REMARK    3  A    between atoms: N_8  and  C_9
REMARK    4  A    between atoms: C_12  and  C_13
REMARK    5  A    between atoms: C_13  and  O_14
REMARK                            x       y       z     vdW  Elec       q    Type
REMARK                         _______ _______ _______ _____ _____    ______ ____
ROOT
ATOM      1  C   UNL     1       2.303   5.366  20.841  0.00  0.00    +0.000 C 
ATOM      2  N   UNL     1       2.326   5.812  19.452  0.00  0.00    +0.000 N 
ATOM      3  C   UNL     1       2.086   7.170  19.229  0.00  0.00    +0.000 A 
ATOM      4  C   UNL     1       2.360   7.776  18.013  0.00  0.00    +0.000 A 
ATOM      5  C   UNL     1       2.139   9.126  17.906  0.00  0.00    +0.000 A 
ATOM      6  N   UNL     1       1.611   9.863  18.882  0.00  0.00    +0.000 NA
ATOM      7  C   UNL     1       1.310   9.220  20.017  0.00  0.00    +0.000 A 
ATOM      8  N   UNL     1       0.685   9.914  21.057  0.00  0.00    +0.000 N 
ATOM      9  N   UNL     1       1.564   7.916  20.226  0.00  0.00    +0.000 NA
ATOM     10  H   UNL     1       0.494   9.230  21.780  0.00  0.00    +0.000 HD
ENDROOT
BRANCH   8  11
ATOM     11  C   UNL     1      -0.379  10.836  20.921  0.00  0.00    +0.000 A 
ATOM     12  C   UNL     1      -0.996  11.107  19.694  0.00  0.00    +0.000 A 
ATOM     13  C   UNL     1      -2.105  11.953  19.613  0.00  0.00    +0.000 A 
ATOM     14  C   UNL     1      -2.634  12.547  20.763  0.00  0.00    +0.000 A 
ATOM     15  C   UNL     1      -1.985  12.328  21.985  0.00  0.00    +0.000 A 
ATOM     16  C   UNL     1      -0.883  11.468  22.065  0.00  0.00    +0.000 A 
BRANCH  14  17
ATOM     17  C   UNL     1      -3.847  13.433  20.656  0.00  0.00    +0.000 C 
BRANCH  17  18
ATOM     18  O   UNL     1      -4.592  13.165  19.474  0.00  0.00    +0.000 OA
ATOM     19  H   UNL     1      -4.274  13.787  18.797  0.00  0.00    +0.000 HD
ENDBRANCH  17  18
ENDBRANCH  14  17
ENDBRANCH   8  11
BRANCH   2  20
ATOM     20  C   UNL     1       2.700   4.886  18.358  0.00  0.00    +0.000 C 
ATOM     21  C   UNL     1       3.850   3.945  18.752  0.00  0.00    +0.000 C 
ATOM     22  C   UNL     1       3.413   2.837  19.700  0.00  0.00    +0.000 C 
ATOM     23  C   UNL     1       2.292   2.002  19.099  0.00  0.00    +0.000 C 
ATOM     24  C   UNL     1       1.121   2.830  18.577  0.00  0.00    +0.000 C 
ATOM     25  C   UNL     1       1.534   4.065  17.771  0.00  0.00    +0.000 C 
ENDBRANCH   2  20
TORSDOF 4
ENDMDL
MODEL 7
REMARK VINA RESULT:      -6.8      5.596      6.440
REMARK  Name = 
REMARK  5 active torsions:
REMARK  status: ('A' for Active; 'I' for Inactive)
REMARK    1  A    between atoms: C_1  and  N_2
REMARK    2  A    between atoms: N_2  and  C_18
REMARK    3  A    between atoms: N_8  and  C_9
REMARK    4  A    between atoms: C_12  and  C_13
REMARK    5  A    between atoms: C_13  and  O_14
REMARK                            x       y       z     vdW  Elec       q    Type
REMARK                         _______ _______ _______ _____ _____    ______ ____
ROOT
ATOM      1  C   UNL     1       2.496   6.431  17.806  0.00  0.00    +0.000 C 
ATOM      2  N   UNL     1       2.439   6.654  19.247  0.00  0.00    +0.000 N 
ATOM      3  C   UNL     1       1.858   7.853  19.669  0.00  0.00    +0.000 A 
ATOM      4  C   UNL     1       1.479   8.063  20.986  0.00  0.00    +0.000 A 
ATOM      5  C   UNL     1       0.870   9.253  21.295  0.00  0.00    +0.000 A 
ATOM      6  N   UNL     1       0.689  10.236  20.414  0.00  0.00    +0.000 NA
ATOM      7  C   UNL     1       1.124  10.006  19.169  0.00  0.00    +0.000 A 
ATOM      8  N   UNL     1       1.036  11.020  18.210  0.00  0.00    +0.000 N 
ATOM      9  N   UNL     1       1.665   8.841  18.770  0.00  0.00    +0.000 NA
ATOM     10  H   UNL     1       1.476  10.657  17.372  0.00  0.00    +0.000 HD
ENDROOT
BRANCH   8  11
ATOM     11  C   UNL     1       1.350  12.385  18.411  0.00  0.00    +0.000 A 
ATOM     12  C   UNL     1       0.408  13.324  18.846  0.00  0.00    +0.000 A 
ATOM     13  C   UNL     1       0.776  14.644  19.122  0.00  0.00    +0.000 A 
ATOM     14  C   UNL     1       2.103  15.058  18.976  0.00  0.00    +0.000 A 
ATOM     15  C   UNL     1       3.038  14.140  18.482  0.00  0.00    +0.000 A 
ATOM     16  C   UNL     1       2.670  12.814  18.221  0.00  0.00    +0.000 A 
BRANCH  14  17
ATOM     17  C   UNL     1       2.483  16.478  19.306  0.00  0.00    +0.000 C 
BRANCH  17  18
ATOM     18  O   UNL     1       3.327  17.043  18.310  0.00  0.00    +0.000 OA
ATOM     19  H   UNL     1       3.292  18.008  18.430  0.00  0.00    +0.000 HD
ENDBRANCH  17  18
ENDBRANCH  14  17
ENDBRANCH   8  11
BRANCH   2  20
ATOM     20  C   UNL     1       2.871   5.607  20.200  0.00  0.00    +0.000 C 
ATOM     21  C   UNL     1       1.684   4.849  20.818  0.00  0.00    +0.000 C 
ATOM     22  C   UNL     1       1.038   3.868  19.851  0.00  0.00    +0.000 C 
ATOM     23  C   UNL     1       2.044   2.850  19.337  0.00  0.00    +0.000 C 
ATOM     24  C   UNL     1       3.320   3.474  18.780  0.00  0.00    +0.000 C 
ATOM     25  C   UNL     1       3.897   4.601  19.642  0.00  0.00    +0.000 C 
ENDBRANCH   2  20
TORSDOF 4
ENDMDL
MODEL 8
REMARK VINA RESULT:      -6.7      6.303      7.352
REMARK  Name = 
REMARK  5 active torsions:
REMARK  status: ('A' for Active; 'I' for Inactive)
REMARK    1  A    between atoms: C_1  and  N_2
REMARK    2  A    between atoms: N_2  and  C_18
REMARK    3  A    between atoms: N_8  and  C_9
REMARK    4  A    between atoms: C_12  and  C_13
REMARK    5  A    between atoms: C_13  and  O_14
REMARK                            x       y       z     vdW  Elec       q    Type
REMARK                         _______ _______ _______ _____ _____    ______ ____
ROOT
ATOM      1  C   UNL     1       2.443   4.585  20.653  0.00  0.00    +0.000 C 
ATOM      2  N   UNL     1       2.154   5.182  19.353  0.00  0.00    +0.000 N 
ATOM      3  C   UNL     1       1.991   6.570  19.327  0.00  0.00    +0.000 A 
ATOM      4  C   UNL     1       2.002   7.291  18.144  0.00  0.00    +0.000 A 
ATOM      5  C   UNL     1       1.886   8.655  18.223  0.00  0.00    +0.000 A 
ATOM      6  N   UNL     1       1.693   9.311  19.367  0.00  0.00    +0.000 NA
ATOM      7  C   UNL     1       1.632   8.564  20.477  0.00  0.00    +0.000 A 
ATOM      8  N   UNL     1       1.358   9.175  21.704  0.00  0.00    +0.000 N 
ATOM      9  N   UNL     1       1.810   7.230  20.491  0.00  0.00    +0.000 NA
ATOM     10  H   UNL     1       1.294   8.427  22.385  0.00  0.00    +0.000 HD
ENDROOT
BRANCH   8  11
ATOM     11  C   UNL     1       0.383  10.173  21.937  0.00  0.00    +0.000 A 
ATOM     12  C   UNL     1      -0.602  10.055  22.925  0.00  0.00    +0.000 A 
ATOM     13  C   UNL     1      -1.491  11.101  23.189  0.00  0.00    +0.000 A 
ATOM     14  C   UNL     1      -1.412  12.300  22.475  0.00  0.00    +0.000 A 
ATOM     15  C   UNL     1      -0.469  12.402  21.444  0.00  0.00    +0.000 A 
ATOM     16  C   UNL     1       0.430  11.358  21.192  0.00  0.00    +0.000 A 
BRANCH  14  17
ATOM     17  C   UNL     1      -2.362  13.424  22.796  0.00  0.00    +0.000 C 
BRANCH  17  18
ATOM     18  O   UNL     1      -2.051  14.036  24.042  0.00  0.00    +0.000 OA
ATOM     19  H   UNL     1      -2.768  14.667  24.229  0.00  0.00    +0.000 HD
ENDBRANCH  17  18
ENDBRANCH  14  17
ENDBRANCH   8  11
BRANCH   2  20
ATOM     20  C   UNL     1       2.151   4.364  18.119  0.00  0.00    +0.000 C 
ATOM     21  C   UNL     1       3.571   4.060  17.612  0.00  0.00    +0.000 C 
ATOM     22  C   UNL     1       4.288   3.010  18.449  0.00  0.00    +0.000 C 
ATOM     23  C   UNL     1       3.504   1.707  18.495  0.00  0.00    +0.000 C 
ATOM     24  C   UNL     1       2.042   1.883  18.895  0.00  0.00    +0.000 C 
ATOM     25  C   UNL     1       1.339   3.056  18.206  0.00  0.00    +0.000 C 
ENDBRANCH   2  20
TORSDOF 4
ENDMDL
MODEL 9
REMARK VINA RESULT:      -6.7      6.478      8.105
REMARK  Name = 
REMARK  5 active torsions:
REMARK  status: ('A' for Active; 'I' for Inactive)
REMARK    1  A    between atoms: C_1  and  N_2
REMARK    2  A    between atoms: N_2  and  C_18
REMARK    3  A    between atoms: N_8  and  C_9
REMARK    4  A    between atoms: C_12  and  C_13
REMARK    5  A    between atoms: C_13  and  O_14
REMARK                            x       y       z     vdW  Elec       q    Type
REMARK                         _______ _______ _______ _____ _____    ______ ____
ROOT
ATOM      1  C   UNL     1      -0.377   9.463  22.019  0.00  0.00    +0.000 C 
ATOM      2  N   UNL     1       0.218  10.458  21.133  0.00  0.00    +0.000 N 
ATOM      3  C   UNL     1       0.921   9.968  20.029  0.00  0.00    +0.000 A 
ATOM      4  C   UNL     1       1.282  10.781  18.966  0.00  0.00    +0.000 A 
ATOM      5  C   UNL     1       1.925  10.198  17.904  0.00  0.00    +0.000 A 
ATOM      6  N   UNL     1       2.281   8.915  17.875  0.00  0.00    +0.000 NA
ATOM      7  C   UNL     1       1.961   8.184  18.950  0.00  0.00    +0.000 A 
ATOM      8  N   UNL     1       2.368   6.849  19.022  0.00  0.00    +0.000 N 
ATOM      9  N   UNL     1       1.267   8.663  19.999  0.00  0.00    +0.000 NA
ATOM     10  H   UNL     1       2.079   6.513  19.935  0.00  0.00    +0.000 HD
ENDROOT
BRANCH   8  11
ATOM     11  C   UNL     1       3.640   6.345  18.663  0.00  0.00    +0.000 A 
ATOM     12  C   UNL     1       4.375   5.484  19.486  0.00  0.00    +0.000 A 
ATOM     13  C   UNL     1       5.586   4.932  19.059  0.00  0.00    +0.000 A 
ATOM     14  C   UNL     1       6.092   5.224  17.789  0.00  0.00    +0.000 A 
ATOM     15  C   UNL     1       5.393   6.134  16.985  0.00  0.00    +0.000 A 
ATOM     16  C   UNL     1       4.172   6.672  17.409  0.00  0.00    +0.000 A 
BRANCH  14  17
ATOM     17  C   UNL     1       7.385   4.597  17.338  0.00  0.00    +0.000 C 
BRANCH  17  18
ATOM     18  O   UNL     1       7.580   4.742  15.936  0.00  0.00    +0.000 OA
ATOM     19  H   UNL     1       7.471   3.858  15.547  0.00  0.00    +0.000 HD
ENDBRANCH  17  18
ENDBRANCH  14  17
ENDBRANCH   8  11
BRANCH   2  20
ATOM     20  C   UNL     1      -0.017  11.905  21.340  0.00  0.00    +0.000 C 
ATOM     21  C   UNL     1      -0.745  12.558  20.153  0.00  0.00    +0.000 C 
ATOM     22  C   UNL     1      -2.224  12.205  20.096  0.00  0.00    +0.000 C 
ATOM     23  C   UNL     1      -2.940  12.604  21.377  0.00  0.00    +0.000 C 
ATOM     24  C   UNL     1      -2.260  12.096  22.645  0.00  0.00    +0.000 C 
ATOM     25  C   UNL     1      -0.738  12.267  22.654  0.00  0.00    +0.000 C 
ENDBRANCH   2  20
TORSDOF 4
ENDMDL
