MODEL 1
REMARK VINA RESULT:      -7.4      0.000      0.000
REMARK  Name = 
REMARK  7 active torsions:
REMARK  status: ('A' for Active; 'I' for Inactive)
REMARK    1  A    between atoms: C_1  and  C_2
REMARK    2  A    between atoms: C_2  and  C_3
REMARK    3  A    between atoms: C_3  and  C_4
REMARK    4  A    between atoms: C_4  and  N_5
REMARK    5  A    between atoms: C_4  and  C_6
REMARK    6  A    between atoms: C_11  and  C_12
REMARK    7  A    between atoms: C_12  and  C_14
REMARK                            x       y       z     vdW  Elec       q    Type
REMARK                         _______ _______ _______ _____ _____    ______ ____
ROOT
ATOM      1  C   UNL     1       5.597   5.152  16.611  0.00  0.00    +0.000 A 
ATOM      2  C   UNL     1       5.795   6.530  16.735  0.00  0.00    +0.000 A 
ATOM      3  C   UNL     1       4.772   7.347  17.228  0.00  0.00    +0.000 A 
ATOM      4  C   UNL     1       3.543   6.803  17.619  0.00  0.00    +0.000 A 
ATOM      5 CL   UNL     1       2.400   7.911  18.294  0.00  0.00    +0.000 Cl
ATOM      6  C   UNL     1       3.312   5.425  17.491  0.00  0.00    +0.000 A 
ATOM      7  C   UNL     1       4.337   4.634  16.944  0.00  0.00    +0.000 A 
ATOM      8  F   UNL     1       4.121   3.330  16.702  0.00  0.00    +0.000 F 
ENDROOT
BRANCH   6   9
ATOM      9  C   UNL     1       2.013   4.801  17.857  0.00  0.00    +0.000 C 
ATOM     10  O   UNL     1       1.115   4.715  17.025  0.00  0.00    +0.000 OA
BRANCH   9  11
ATOM     11  C   UNL     1       1.775   4.194  19.190  0.00  0.00    +0.000 A 
ATOM     12  C   UNL     1       2.312   4.690  20.376  0.00  0.00    +0.000 A 
ATOM     13  C   UNL     1       2.169   3.948  21.549  0.00  0.00    +0.000 A 
ATOM     14  C   UNL     1       1.450   2.761  21.516  0.00  0.00    +0.000 A 
ATOM     15  N   UNL     1       1.387   1.943  22.638  0.00  0.00    +0.000 N 
ATOM     16  N   UNL     1       0.854   2.304  20.404  0.00  0.00    +0.000 NA
ATOM     17  C   UNL     1       1.024   3.028  19.266  0.00  0.00    +0.000 A 
ATOM     18  H   UNL     1       1.099   2.439  23.470  0.00  0.00    +0.000 HD
ATOM     19  H   UNL     1       0.770   1.167  22.411  0.00  0.00    +0.000 HD
ENDBRANCH   9  11
ENDBRANCH   6   9
BRANCH   1  20
ATOM     20  C   UNL     1       6.681   4.204  16.118  0.00  0.00    +0.000 C 
BRANCH  20  21
ATOM     21  N   UNL     1       7.878   4.273  16.966  0.00  0.00    +0.000 NA
ATOM     22  H   UNL     1       7.641   4.712  17.853  0.00  0.00    +0.000 HD
ATOM     23  H   UNL     1       8.561   4.892  16.532  0.00  0.00    +0.000 HD
ENDBRANCH  20  21
BRANCH  20  24
ATOM     24  C   UNL     1       7.007   4.474  14.641  0.00  0.00    +0.000 C 
BRANCH  24  26
ATOM     25  C   UNL     1       6.628   3.752  12.252  0.00  0.00    +0.000 C 
ATOM     26  C   UNL     1       6.059   3.773  13.662  0.00  0.00    +0.000 C 
ENDBRANCH  24  26
ENDBRANCH  20  24
ENDBRANCH   1  20
TORSDOF 6
ENDMDL
MODEL 2
REMARK VINA RESULT:      -7.3      0.597      1.028
REMARK  Name = 
REMARK  7 active torsions:
REMARK  status: ('A' for Active; 'I' for Inactive)
REMARK    1  A    between atoms: C_1  and  C_2
REMARK    2  A    between atoms: C_2  and  C_3
REMARK    3  A    between atoms: C_3  and  C_4
REMARK    4  A    between atoms: C_4  and  N_5
REMARK    5  A    between atoms: C_4  and  C_6
REMARK    6  A    between atoms: C_11  and  C_12
REMARK    7  A    between atoms: C_12  and  C_14
REMARK                            x       y       z     vdW  Elec       q    Type
REMARK                         _______ _______ _______ _____ _____    ______ ____
ROOT
ATOM      1  C   UNL     1       5.624   5.140  16.586  0.00  0.00    +0.000 A 
ATOM      2  C   UNL     1       5.818   6.519  16.717  0.00  0.00    +0.000 A 
ATOM      3  C   UNL     1       4.797   7.330  17.221  0.00  0.00    +0.000 A 
ATOM      4  C   UNL     1       3.572   6.780  17.617  0.00  0.00    +0.000 A 
ATOM      5 CL   UNL     1       2.431   7.882  18.306  0.00  0.00    +0.000 Cl
ATOM      6  C   UNL     1       3.343   5.403  17.482  0.00  0.00    +0.000 A 
ATOM      7  C   UNL     1       4.366   4.618  16.924  0.00  0.00    +0.000 A 
ATOM      8  F   UNL     1       4.152   3.315  16.675  0.00  0.00    +0.000 F 
ENDROOT
BRANCH   6   9
ATOM      9  C   UNL     1       2.048   4.774  17.852  0.00  0.00    +0.000 C 
ATOM     10  O   UNL     1       1.081   4.866  17.103  0.00  0.00    +0.000 OA
BRANCH   9  11
ATOM     11  C   UNL     1       1.889   3.953  19.079  0.00  0.00    +0.000 A 
ATOM     12  C   UNL     1       1.332   2.676  19.091  0.00  0.00    +0.000 A 
ATOM     13  C   UNL     1       1.070   2.062  20.315  0.00  0.00    +0.000 A 
ATOM     14  C   UNL     1       1.419   2.715  21.490  0.00  0.00    +0.000 A 
ATOM     15  N   UNL     1       1.068   2.182  22.725  0.00  0.00    +0.000 N 
ATOM     16  N   UNL     1       2.031   3.909  21.501  0.00  0.00    +0.000 NA
ATOM     17  C   UNL     1       2.257   4.503  20.300  0.00  0.00    +0.000 A 
ATOM     18  H   UNL     1       1.348   1.217  22.830  0.00  0.00    +0.000 HD
ATOM     19  H   UNL     1       1.468   2.786  23.438  0.00  0.00    +0.000 HD
ENDBRANCH   9  11
ENDBRANCH   6   9
BRANCH   1  20
ATOM     20  C   UNL     1       6.707   4.199  16.080  0.00  0.00    +0.000 C 
BRANCH  20  21
ATOM     21  N   UNL     1       7.915   4.278  16.910  0.00  0.00    +0.000 NA
ATOM     22  H   UNL     1       7.737   4.879  17.711  0.00  0.00    +0.000 HD
ATOM     23  H   UNL     1       8.653   4.742  16.383  0.00  0.00    +0.000 HD
ENDBRANCH  20  21
BRANCH  20  24
ATOM     24  C   UNL     1       7.009   4.466  14.597  0.00  0.00    +0.000 C 
BRANCH  24  26
ATOM     25  C   UNL     1       6.575   3.623  12.258  0.00  0.00    +0.000 C 
ATOM     26  C   UNL     1       5.981   3.854  13.638  0.00  0.00    +0.000 C 
ENDBRANCH  24  26
ENDBRANCH  20  24
ENDBRANCH   1  20
TORSDOF 6
ENDMDL
MODEL 3
REMARK VINA RESULT:      -7.1      2.135      6.308
REMARK  Name = 
REMARK  7 active torsions:
REMARK  status: ('A' for Active; 'I' for Inactive)
REMARK    1  A    between atoms: C_1  and  C_2
REMARK    2  A    between atoms: C_2  and  C_3
REMARK    3  A    between atoms: C_3  and  C_4
REMARK    4  A    between atoms: C_4  and  N_5
REMARK    5  A    between atoms: C_4  and  C_6
REMARK    6  A    between atoms: C_11  and  C_12
REMARK    7  A    between atoms: C_12  and  C_14
REMARK                            x       y       z     vdW  Elec       q    Type
REMARK                         _______ _______ _______ _____ _____    ______ ____
ROOT
ATOM      1  C   UNL     1       2.301   4.492  20.272  0.00  0.00    +0.000 A 
ATOM      2  C   UNL     1       1.688   5.730  20.056  0.00  0.00    +0.000 A 
ATOM      3  C   UNL     1       2.336   6.717  19.306  0.00  0.00    +0.000 A 
ATOM      4  C   UNL     1       3.598   6.480  18.745  0.00  0.00    +0.000 A 
ATOM      5 CL   UNL     1       4.245   7.749  17.766  0.00  0.00    +0.000 Cl
ATOM      6  C   UNL     1       4.242   5.252  18.958  0.00  0.00    +0.000 A 
ATOM      7  C   UNL     1       3.592   4.298  19.760  0.00  0.00    +0.000 A 
ATOM      8  F   UNL     1       4.218   3.153  20.080  0.00  0.00    +0.000 F 
ENDROOT
BRANCH   6   9
ATOM      9  C   UNL     1       5.596   4.963  18.417  0.00  0.00    +0.000 C 
ATOM     10  O   UNL     1       6.513   4.666  19.176  0.00  0.00    +0.000 OA
BRANCH   9  11
ATOM     11  C   UNL     1       5.878   4.940  16.960  0.00  0.00    +0.000 A 
ATOM     12  C   UNL     1       5.075   4.289  16.025  0.00  0.00    +0.000 A 
ATOM     13  C   UNL     1       5.520   4.181  14.707  0.00  0.00    +0.000 A 
ATOM     14  C   UNL     1       6.725   4.771  14.348  0.00  0.00    +0.000 A 
ATOM     15  N   UNL     1       7.249   4.584  13.074  0.00  0.00    +0.000 N 
ATOM     16  N   UNL     1       7.474   5.473  15.211  0.00  0.00    +0.000 NA
ATOM     17  C   UNL     1       7.038   5.547  16.496  0.00  0.00    +0.000 A 
ATOM     18  H   UNL     1       6.587   4.797  12.341  0.00  0.00    +0.000 HD
ATOM     19  H   UNL     1       8.096   5.144  13.012  0.00  0.00    +0.000 HD
ENDBRANCH   9  11
ENDBRANCH   6   9
BRANCH   1  20
ATOM     20  C   UNL     1       1.633   3.365  21.047  0.00  0.00    +0.000 C 
BRANCH  20  21
ATOM     21  N   UNL     1       2.392   3.025  22.256  0.00  0.00    +0.000 NA
ATOM     22  H   UNL     1       2.807   2.102  22.148  0.00  0.00    +0.000 HD
ATOM     23  H   UNL     1       1.749   2.941  23.042  0.00  0.00    +0.000 HD
ENDBRANCH  20  21
BRANCH  20  24
ATOM     24  C   UNL     1       1.411   2.142  20.144  0.00  0.00    +0.000 C 
BRANCH  24  26
ATOM     25  C   UNL     1       2.134   2.107  17.726  0.00  0.00    +0.000 C 
ATOM     26  C   UNL     1       1.036   2.500  18.701  0.00  0.00    +0.000 C 
ENDBRANCH  24  26
ENDBRANCH  20  24
ENDBRANCH   1  20
TORSDOF 6
ENDMDL
MODEL 4
REMARK VINA RESULT:      -7.1      3.503      4.687
REMARK  Name = 
REMARK  7 active torsions:
REMARK  status: ('A' for Active; 'I' for Inactive)
REMARK    1  A    between atoms: C_1  and  C_2
REMARK    2  A    between atoms: C_2  and  C_3
REMARK    3  A    between atoms: C_3  and  C_4
REMARK    4  A    between atoms: C_4  and  N_5
REMARK    5  A    between atoms: C_4  and  C_6
REMARK    6  A    between atoms: C_11  and  C_12
REMARK    7  A    between atoms: C_12  and  C_14
REMARK                            x       y       z     vdW  Elec       q    Type
REMARK                         _______ _______ _______ _____ _____    ______ ____
ROOT
ATOM      1  C   UNL     1       5.440   4.529  17.515  0.00  0.00    +0.000 A 
ATOM      2  C   UNL     1       4.761   3.586  16.738  0.00  0.00    +0.000 A 
ATOM      3  C   UNL     1       3.392   3.371  16.928  0.00  0.00    +0.000 A 
ATOM      4  C   UNL     1       2.675   4.102  17.884  0.00  0.00    +0.000 A 
ATOM      5 CL   UNL     1       0.974   3.801  17.953  0.00  0.00    +0.000 Cl
ATOM      6  C   UNL     1       3.335   5.043  18.688  0.00  0.00    +0.000 A 
ATOM      7  C   UNL     1       4.720   5.202  18.513  0.00  0.00    +0.000 A 
ATOM      8  F   UNL     1       5.411   6.012  19.334  0.00  0.00    +0.000 F 
ENDROOT
BRANCH   6   9
ATOM      9  C   UNL     1       2.629   5.819  19.742  0.00  0.00    +0.000 C 
ATOM     10  O   UNL     1       2.443   5.326  20.850  0.00  0.00    +0.000 OA
BRANCH   9  11
ATOM     11  C   UNL     1       2.198   7.224  19.535  0.00  0.00    +0.000 A 
ATOM     12  C   UNL     1       1.542   7.984  20.501  0.00  0.00    +0.000 A 
ATOM     13  C   UNL     1       1.027   9.232  20.148  0.00  0.00    +0.000 A 
ATOM     14  C   UNL     1       1.227   9.708  18.859  0.00  0.00    +0.000 A 
ATOM     15  N   UNL     1       0.630  10.892  18.444  0.00  0.00    +0.000 N 
ATOM     16  N   UNL     1       1.926   9.030  17.936  0.00  0.00    +0.000 NA
ATOM     17  C   UNL     1       2.400   7.806  18.290  0.00  0.00    +0.000 A 
ATOM     18  H   UNL     1       0.806  11.663  19.074  0.00  0.00    +0.000 HD
ATOM     19  H   UNL     1       0.954  11.077  17.498  0.00  0.00    +0.000 HD
ENDBRANCH   9  11
ENDBRANCH   6   9
BRANCH   1  20
ATOM     20  C   UNL     1       6.919   4.836  17.333  0.00  0.00    +0.000 C 
BRANCH  20  21
ATOM     21  N   UNL     1       7.694   4.464  18.522  0.00  0.00    +0.000 NA
ATOM     22  H   UNL     1       7.607   5.194  19.226  0.00  0.00    +0.000 HD
ATOM     23  H   UNL     1       8.684   4.438  18.282  0.00  0.00    +0.000 HD
ENDBRANCH  20  21
BRANCH  20  24
ATOM     24  C   UNL     1       7.125   6.311  16.950  0.00  0.00    +0.000 C 
BRANCH  24  26
ATOM     25  C   UNL     1       7.834   8.609  17.716  0.00  0.00    +0.000 C 
ATOM     26  C   UNL     1       7.903   7.116  17.997  0.00  0.00    +0.000 C 
ENDBRANCH  24  26
ENDBRANCH  20  24
ENDBRANCH   1  20
TORSDOF 6
ENDMDL
MODEL 5
REMARK VINA RESULT:      -7.0      3.440      4.711
REMARK  Name = 
REMARK  7 active torsions:
REMARK  status: ('A' for Active; 'I' for Inactive)
REMARK    1  A    between atoms: C_1  and  C_2
REMARK    2  A    between atoms: C_2  and  C_3
REMARK    3  A    between atoms: C_3  and  C_4
REMARK    4  A    between atoms: C_4  and  N_5
REMARK    5  A    between atoms: C_4  and  C_6
REMARK    6  A    between atoms: C_11  and  C_12
REMARK    7  A    between atoms: C_12  and  C_14
REMARK                            x       y       z     vdW  Elec       q    Type
REMARK                         _______ _______ _______ _____ _____    ______ ____
ROOT
ATOM      1  C   UNL     1       5.471   4.544  17.530  0.00  0.00    +0.000 A 
ATOM      2  C   UNL     1       4.813   3.582  16.759  0.00  0.00    +0.000 A 
ATOM      3  C   UNL     1       3.448   3.342  16.943  0.00  0.00    +0.000 A 
ATOM      4  C   UNL     1       2.712   4.069  17.888  0.00  0.00    +0.000 A 
ATOM      5 CL   UNL     1       1.017   3.737  17.951  0.00  0.00    +0.000 Cl
ATOM      6  C   UNL     1       3.350   5.030  18.686  0.00  0.00    +0.000 A 
ATOM      7  C   UNL     1       4.733   5.213  18.518  0.00  0.00    +0.000 A 
ATOM      8  F   UNL     1       5.404   6.043  19.334  0.00  0.00    +0.000 F 
ENDROOT
BRANCH   6   9
ATOM      9  C   UNL     1       2.624   5.802  19.729  0.00  0.00    +0.000 C 
ATOM     10  O   UNL     1       2.507   5.349  20.864  0.00  0.00    +0.000 OA
BRANCH   9  11
ATOM     11  C   UNL     1       2.089   7.163  19.477  0.00  0.00    +0.000 A 
ATOM     12  C   UNL     1       2.157   7.807  18.242  0.00  0.00    +0.000 A 
ATOM     13  C   UNL     1       1.782   9.148  18.155  0.00  0.00    +0.000 A 
ATOM     14  C   UNL     1       1.299   9.792  19.286  0.00  0.00    +0.000 A 
ATOM     15  N   UNL     1       1.026  11.154  19.260  0.00  0.00    +0.000 N 
ATOM     16  N   UNL     1       1.147   9.170  20.465  0.00  0.00    +0.000 NA
ATOM     17  C   UNL     1       1.540   7.871  20.538  0.00  0.00    +0.000 A 
ATOM     18  H   UNL     1       0.426  11.420  18.491  0.00  0.00    +0.000 HD
ATOM     19  H   UNL     1       0.634  11.401  20.166  0.00  0.00    +0.000 HD
ENDBRANCH   9  11
ENDBRANCH   6   9
BRANCH   1  20
ATOM     20  C   UNL     1       6.945   4.877  17.353  0.00  0.00    +0.000 C 
BRANCH  20  21
ATOM     21  N   UNL     1       7.730   4.476  18.526  0.00  0.00    +0.000 NA
ATOM     22  H   UNL     1       8.603   4.052  18.222  0.00  0.00    +0.000 HD
ATOM     23  H   UNL     1       7.232   3.740  19.026  0.00  0.00    +0.000 HD
ENDBRANCH  20  21
BRANCH  20  24
ATOM     24  C   UNL     1       7.129   6.366  17.019  0.00  0.00    +0.000 C 
BRANCH  24  26
ATOM     25  C   UNL     1       7.971   8.628  17.757  0.00  0.00    +0.000 C 
ATOM     26  C   UNL     1       7.900   7.147  18.090  0.00  0.00    +0.000 C 
ENDBRANCH  24  26
ENDBRANCH  20  24
ENDBRANCH   1  20
TORSDOF 6
ENDMDL
MODEL 6
REMARK VINA RESULT:      -6.9      2.082      2.788
REMARK  Name = 
REMARK  7 active torsions:
REMARK  status: ('A' for Active; 'I' for Inactive)
REMARK    1  A    between atoms: C_1  and  C_2
REMARK    2  A    between atoms: C_2  and  C_3
REMARK    3  A    between atoms: C_3  and  C_4
REMARK    4  A    between atoms: C_4  and  N_5
REMARK    5  A    between atoms: C_4  and  C_6
REMARK    6  A    between atoms: C_11  and  C_12
REMARK    7  A    between atoms: C_12  and  C_14
REMARK                            x       y       z     vdW  Elec       q    Type
REMARK                         _______ _______ _______ _____ _____    ______ ____
ROOT
ATOM      1  C   UNL     1       6.731   4.673  15.364  0.00  0.00    +0.000 A 
ATOM      2  C   UNL     1       7.714   4.325  16.296  0.00  0.00    +0.000 A 
ATOM      3  C   UNL     1       7.531   4.611  17.653  0.00  0.00    +0.000 A 
ATOM      4  C   UNL     1       6.360   5.232  18.105  0.00  0.00    +0.000 A 
ATOM      5 CL   UNL     1       6.224   5.446  19.815  0.00  0.00    +0.000 Cl
ATOM      6  C   UNL     1       5.365   5.605  17.190  0.00  0.00    +0.000 A 
ATOM      7  C   UNL     1       5.596   5.355  15.827  0.00  0.00    +0.000 A 
ATOM      8  F   UNL     1       4.721   5.792  14.907  0.00  0.00    +0.000 F 
ENDROOT
BRANCH   6   9
ATOM      9  C   UNL     1       4.120   6.301  17.612  0.00  0.00    +0.000 C 
ATOM     10  O   UNL     1       3.922   7.466  17.281  0.00  0.00    +0.000 OA
BRANCH   9  11
ATOM     11  C   UNL     1       3.045   5.610  18.367  0.00  0.00    +0.000 A 
ATOM     12  C   UNL     1       2.657   5.959  19.660  0.00  0.00    +0.000 A 
ATOM     13  C   UNL     1       1.760   5.140  20.344  0.00  0.00    +0.000 A 
ATOM     14  C   UNL     1       1.234   4.026  19.702  0.00  0.00    +0.000 A 
ATOM     15  N   UNL     1       0.429   3.128  20.392  0.00  0.00    +0.000 N 
ATOM     16  N   UNL     1       1.529   3.716  18.430  0.00  0.00    +0.000 NA
ATOM     17  C   UNL     1       2.424   4.512  17.787  0.00  0.00    +0.000 A 
ATOM     18  H   UNL     1      -0.336   3.578  20.876  0.00  0.00    +0.000 HD
ATOM     19  H   UNL     1       0.113   2.430  19.723  0.00  0.00    +0.000 HD
ENDBRANCH   9  11
ENDBRANCH   6   9
BRANCH   1  20
ATOM     20  C   UNL     1       6.853   4.356  13.881  0.00  0.00    +0.000 C 
BRANCH  20  21
ATOM     21  N   UNL     1       7.450   5.476  13.142  0.00  0.00    +0.000 NA
ATOM     22  H   UNL     1       8.302   5.163  12.683  0.00  0.00    +0.000 HD
ATOM     23  H   UNL     1       7.747   6.192  13.803  0.00  0.00    +0.000 HD
ENDBRANCH  20  21
BRANCH  20  24
ATOM     24  C   UNL     1       5.491   3.944  13.299  0.00  0.00    +0.000 C 
BRANCH  24  26
ATOM     25  C   UNL     1       4.259   3.130  11.253  0.00  0.00    +0.000 C 
ATOM     26  C   UNL     1       5.593   3.169  11.981  0.00  0.00    +0.000 C 
ENDBRANCH  24  26
ENDBRANCH  20  24
ENDBRANCH   1  20
TORSDOF 6
ENDMDL
MODEL 7
REMARK VINA RESULT:      -6.9      2.133      6.865
REMARK  Name = 
REMARK  7 active torsions:
REMARK  status: ('A' for Active; 'I' for Inactive)
REMARK    1  A    between atoms: C_1  and  C_2
REMARK    2  A    between atoms: C_2  and  C_3
REMARK    3  A    between atoms: C_3  and  C_4
REMARK    4  A    between atoms: C_4  and  N_5
REMARK    5  A    between atoms: C_4  and  C_6
REMARK    6  A    between atoms: C_11  and  C_12
REMARK    7  A    between atoms: C_12  and  C_14
REMARK                            x       y       z     vdW  Elec       q    Type
REMARK                         _______ _______ _______ _____ _____    ______ ____
ROOT
ATOM      1  C   UNL     1       2.339   4.048  18.786  0.00  0.00    +0.000 A 
ATOM      2  C   UNL     1       1.850   5.358  18.820  0.00  0.00    +0.000 A 
ATOM      3  C   UNL     1       2.627   6.414  18.336  0.00  0.00    +0.000 A 
ATOM      4  C   UNL     1       3.898   6.181  17.794  0.00  0.00    +0.000 A 
ATOM      5 CL   UNL     1       4.714   7.562  17.149  0.00  0.00    +0.000 Cl
ATOM      6  C   UNL     1       4.419   4.880  17.761  0.00  0.00    +0.000 A 
ATOM      7  C   UNL     1       3.640   3.844  18.302  0.00  0.00    +0.000 A 
ATOM      8  F   UNL     1       4.143   2.602  18.391  0.00  0.00    +0.000 F 
ENDROOT
BRANCH   6   9
ATOM      9  C   UNL     1       5.777   4.583  17.231  0.00  0.00    +0.000 C 
ATOM     10  O   UNL     1       6.678   4.251  17.995  0.00  0.00    +0.000 OA
BRANCH   9  11
ATOM     11  C   UNL     1       6.079   4.594  15.778  0.00  0.00    +0.000 A 
ATOM     12  C   UNL     1       5.339   3.895  14.826  0.00  0.00    +0.000 A 
ATOM     13  C   UNL     1       5.808   3.832  13.514  0.00  0.00    +0.000 A 
ATOM     14  C   UNL     1       6.971   4.512  13.176  0.00  0.00    +0.000 A 
ATOM     15  N   UNL     1       7.525   4.376  11.909  0.00  0.00    +0.000 N 
ATOM     16  N   UNL     1       7.655   5.259  14.056  0.00  0.00    +0.000 NA
ATOM     17  C   UNL     1       7.197   5.289  15.336  0.00  0.00    +0.000 A 
ATOM     18  H   UNL     1       6.858   4.546  11.169  0.00  0.00    +0.000 HD
ATOM     19  H   UNL     1       8.329   4.997  11.864  0.00  0.00    +0.000 HD
ENDBRANCH   9  11
ENDBRANCH   6   9
BRANCH   1  20
ATOM     20  C   UNL     1       1.528   2.852  19.263  0.00  0.00    +0.000 C 
BRANCH  20  21
ATOM     21  N   UNL     1       0.607   2.381  18.222  0.00  0.00    +0.000 NA
ATOM     22  H   UNL     1       0.858   2.802  17.331  0.00  0.00    +0.000 HD
ATOM     23  H   UNL     1      -0.332   2.722  18.427  0.00  0.00    +0.000 HD
ENDBRANCH  20  21
BRANCH  20  24
ATOM     24  C   UNL     1       0.797   3.180  20.574  0.00  0.00    +0.000 C 
BRANCH  24  26
ATOM     25  C   UNL     1       2.916   2.358  21.671  0.00  0.00    +0.000 C 
ATOM     26  C   UNL     1       1.409   2.506  21.807  0.00  0.00    +0.000 C 
ENDBRANCH  24  26
ENDBRANCH  20  24
ENDBRANCH   1  20
TORSDOF 6
ENDMDL
MODEL 8
REMARK VINA RESULT:      -6.9      3.097      6.963
REMARK  Name = 
REMARK  7 active torsions:
REMARK  status: ('A' for Active; 'I' for Inactive)
REMARK    1  A    between atoms: C_1  and  C_2
REMARK    2  A    between atoms: C_2  and  C_3
REMARK    3  A    between atoms: C_3  and  C_4
REMARK    4  A    between atoms: C_4  and  N_5
REMARK    5  A    between atoms: C_4  and  C_6
REMARK    6  A    between atoms: C_11  and  C_12
REMARK    7  A    between atoms: C_12  and  C_14
REMARK                            x       y       z     vdW  Elec       q    Type
REMARK                         _______ _______ _______ _____ _____    ______ ____
ROOT
ATOM      1  C   UNL     1       2.673   6.259  18.952  0.00  0.00    +0.000 A 
ATOM      2  C   UNL     1       1.762   5.209  19.101  0.00  0.00    +0.000 A 
ATOM      3  C   UNL     1       2.132   3.902  18.772  0.00  0.00    +0.000 A 
ATOM      4  C   UNL     1       3.421   3.617  18.304  0.00  0.00    +0.000 A 
ATOM      5 CL   UNL     1       3.775   1.948  18.019  0.00  0.00    +0.000 Cl
ATOM      6  C   UNL     1       4.351   4.652  18.130  0.00  0.00    +0.000 A 
ATOM      7  C   UNL     1       3.936   5.964  18.418  0.00  0.00    +0.000 A 
ATOM      8  F   UNL     1       4.756   6.997  18.164  0.00  0.00    +0.000 F 
ENDROOT
BRANCH   6   9
ATOM      9  C   UNL     1       5.719   4.410  17.602  0.00  0.00    +0.000 C 
ATOM     10  O   UNL     1       6.608   4.013  18.350  0.00  0.00    +0.000 OA
BRANCH   9  11
ATOM     11  C   UNL     1       6.048   4.554  16.162  0.00  0.00    +0.000 A 
ATOM     12  C   UNL     1       5.373   3.886  15.141  0.00  0.00    +0.000 A 
ATOM     13  C   UNL     1       5.871   3.957  13.840  0.00  0.00    +0.000 A 
ATOM     14  C   UNL     1       6.994   4.733  13.584  0.00  0.00    +0.000 A 
ATOM     15  N   UNL     1       7.580   4.732  12.325  0.00  0.00    +0.000 N 
ATOM     16  N   UNL     1       7.611   5.450  14.536  0.00  0.00    +0.000 NA
ATOM     17  C   UNL     1       7.127   5.351  15.802  0.00  0.00    +0.000 A 
ATOM     18  H   UNL     1       6.919   4.918  11.583  0.00  0.00    +0.000 HD
ATOM     19  H   UNL     1       8.343   5.404  12.347  0.00  0.00    +0.000 HD
ENDBRANCH   9  11
ENDBRANCH   6   9
BRANCH   1  20
ATOM     20  C   UNL     1       2.344   7.696  19.328  0.00  0.00    +0.000 C 
BRANCH  20  21
ATOM     21  N   UNL     1       1.669   7.768  20.630  0.00  0.00    +0.000 NA
ATOM     22  H   UNL     1       2.360   7.915  21.363  0.00  0.00    +0.000 HD
ATOM     23  H   UNL     1       1.244   6.865  20.837  0.00  0.00    +0.000 HD
ENDBRANCH  20  21
BRANCH  20  24
ATOM     24  C   UNL     1       1.526   8.375  18.218  0.00  0.00    +0.000 C 
BRANCH  24  26
ATOM     25  C   UNL     1       1.115  10.817  18.705  0.00  0.00    +0.000 C 
ATOM     26  C   UNL     1       1.957   9.817  17.928  0.00  0.00    +0.000 C 
ENDBRANCH  24  26
ENDBRANCH  20  24
ENDBRANCH   1  20
TORSDOF 6
ENDMDL
MODEL 9
REMARK VINA RESULT:      -6.9      3.135      6.788
REMARK  Name = 
REMARK  7 active torsions:
REMARK  status: ('A' for Active; 'I' for Inactive)
REMARK    1  A    between atoms: C_1  and  C_2
REMARK    2  A    between atoms: C_2  and  C_3
REMARK    3  A    between atoms: C_3  and  C_4
REMARK    4  A    between atoms: C_4  and  N_5
REMARK    5  A    between atoms: C_4  and  C_6
REMARK    6  A    between atoms: C_11  and  C_12
REMARK    7  A    between atoms: C_12  and  C_14
REMARK                            x       y       z     vdW  Elec       q    Type
REMARK                         _______ _______ _______ _____ _____    ______ ____
ROOT
ATOM      1  C   UNL     1       2.018   6.162  20.103  0.00  0.00    +0.000 A 
ATOM      2  C   UNL     1       0.941   5.280  20.238  0.00  0.00    +0.000 A 
ATOM      3  C   UNL     1       1.104   3.919  19.959  0.00  0.00    +0.000 A 
ATOM      4  C   UNL     1       2.347   3.413  19.557  0.00  0.00    +0.000 A 
ATOM      5 CL   UNL     1       2.433   1.701  19.332  0.00  0.00    +0.000 Cl
ATOM      6  C   UNL     1       3.440   4.277  19.399  0.00  0.00    +0.000 A 
ATOM      7  C   UNL     1       3.235   5.647  19.635  0.00  0.00    +0.000 A 
ATOM      8  F   UNL     1       4.223   6.524  19.391  0.00  0.00    +0.000 F 
ENDROOT
BRANCH   6   9
ATOM      9  C   UNL     1       4.771   3.797  18.940  0.00  0.00    +0.000 C 
ATOM     10  O   UNL     1       5.357   2.916  19.561  0.00  0.00    +0.000 OA
BRANCH   9  11
ATOM     11  C   UNL     1       5.402   4.292  17.692  0.00  0.00    +0.000 A 
ATOM     12  C   UNL     1       4.763   4.309  16.452  0.00  0.00    +0.000 A 
ATOM     13  C   UNL     1       5.501   4.631  15.313  0.00  0.00    +0.000 A 
ATOM     14  C   UNL     1       6.838   4.980  15.448  0.00  0.00    +0.000 A 
ATOM     15  N   UNL     1       7.628   5.193  14.324  0.00  0.00    +0.000 N 
ATOM     16  N   UNL     1       7.453   5.050  16.638  0.00  0.00    +0.000 NA
ATOM     17  C   UNL     1       6.726   4.710  17.735  0.00  0.00    +0.000 A 
ATOM     18  H   UNL     1       7.217   5.849  13.674  0.00  0.00    +0.000 HD
ATOM     19  H   UNL     1       8.544   5.489  14.652  0.00  0.00    +0.000 HD
ENDBRANCH   9  11
ENDBRANCH   6   9
BRANCH   1  20
ATOM     20  C   UNL     1       1.914   7.645  20.427  0.00  0.00    +0.000 C 
BRANCH  20  21
ATOM     21  N   UNL     1       0.864   7.904  21.420  0.00  0.00    +0.000 NA
ATOM     22  H   UNL     1       0.981   7.273  22.209  0.00  0.00    +0.000 HD
ATOM     23  H   UNL     1      -0.042   7.669  21.017  0.00  0.00    +0.000 HD
ENDBRANCH  20  21
BRANCH  20  24
ATOM     24  C   UNL     1       1.710   8.468  19.145  0.00  0.00    +0.000 C 
BRANCH  24  26
ATOM     25  C   UNL     1      -0.055   9.956  18.124  0.00  0.00    +0.000 C 
ATOM     26  C   UNL     1       0.822   9.702  19.340  0.00  0.00    +0.000 C 
ENDBRANCH  24  26
ENDBRANCH  20  24
ENDBRANCH   1  20
TORSDOF 6
ENDMDL
