MODEL 1
REMARK VINA RESULT:      -8.2      0.000      0.000
REMARK  Name = 
REMARK  5 active torsions:
REMARK  status: ('A' for Active; 'I' for Inactive)
REMARK    1  A    between atoms: C_1  and  C_2
REMARK    2  A    between atoms: C_2  and  C_18
REMARK    3  A    between atoms: N_3  and  N_4
REMARK    4  A    between atoms: C_5  and  C_7
REMARK    5  A    between atoms: C_7  and  C_8
REMARK                            x       y       z     vdW  Elec       q    Type
REMARK                         _______ _______ _______ _____ _____    ______ ____
ROOT
ATOM      1  N   UNL     1       8.698   8.475  18.775  0.00  0.00    +0.000 N 
ATOM      2  C   UNL     1       7.862   7.674  18.005  0.00  0.00    +0.000 C 
ATOM      3  O   UNL     1       7.352   8.002  16.934  0.00  0.00    +0.000 OA
ATOM      4  H   UNL     1       9.105   8.115  19.627  0.00  0.00    +0.000 HD
ENDROOT
BRANCH   1   7
ATOM      5  C   UNL     1       9.200  10.553  20.678  0.00  0.00    +0.000 C 
ATOM      6  C   UNL     1       9.319  10.663  19.170  0.00  0.00    +0.000 C 
ATOM      7  N   UNL     1       9.046   9.708  18.330  0.00  0.00    +0.000 NA
BRANCH   6   8
ATOM      8  C   UNL     1       9.719  11.998  18.603  0.00  0.00    +0.000 A 
ATOM      9  C   UNL     1       9.093  13.185  18.986  0.00  0.00    +0.000 A 
ATOM     10  C   UNL     1       9.492  14.364  18.377  0.00  0.00    +0.000 A 
ATOM     11  N   UNL     1      10.459  14.436  17.440  0.00  0.00    +0.000 NA
ATOM     12  C   UNL     1      11.057  13.277  17.090  0.00  0.00    +0.000 A 
ATOM     13  C   UNL     1      10.728  12.049  17.636  0.00  0.00    +0.000 A 
ENDBRANCH   6   8
ENDBRANCH   1   7
BRANCH   2  14
ATOM     14  C   UNL     1       7.620   6.309  18.622  0.00  0.00    +0.000 C 
BRANCH  14  15
ATOM     15  C   UNL     1       6.704   5.423  17.799  0.00  0.00    +0.000 A 
ATOM     16  C   UNL     1       7.246   4.794  16.662  0.00  0.00    +0.000 A 
ATOM     17  C   UNL     1       6.454   4.002  15.838  0.00  0.00    +0.000 A 
ATOM     18  C   UNL     1       5.105   3.831  16.129  0.00  0.00    +0.000 A 
ATOM     19  C   UNL     1       4.533   4.429  17.259  0.00  0.00    +0.000 A 
ATOM     20  C   UNL     1       3.167   4.243  17.528  0.00  0.00    +0.000 A 
ATOM     21  C   UNL     1       2.571   4.815  18.651  0.00  0.00    +0.000 A 
ATOM     22  C   UNL     1       3.342   5.568  19.525  0.00  0.00    +0.000 A 
ATOM     23  C   UNL     1       4.703   5.765  19.270  0.00  0.00    +0.000 A 
ATOM     24  C   UNL     1       5.332   5.219  18.127  0.00  0.00    +0.000 A 
ENDBRANCH  14  15
ENDBRANCH   2  14
TORSDOF 4
ENDMDL
MODEL 2
REMARK VINA RESULT:      -8.2      5.371      7.333
REMARK  Name = 
REMARK  5 active torsions:
REMARK  status: ('A' for Active; 'I' for Inactive)
REMARK    1  A    between atoms: C_1  and  C_2
REMARK    2  A    between atoms: C_2  and  C_18
REMARK    3  A    between atoms: N_3  and  N_4
REMARK    4  A    between atoms: C_5  and  C_7
REMARK    5  A    between atoms: C_7  and  C_8
REMARK                            x       y       z     vdW  Elec       q    Type
REMARK                         _______ _______ _______ _____ _____    ______ ____
ROOT
ATOM      1  N   UNL     1       2.517   6.689  19.254  0.00  0.00    +0.000 N 
ATOM      2  C   UNL     1       2.775   5.364  19.588  0.00  0.00    +0.000 C 
ATOM      3  O   UNL     1       2.549   4.850  20.682  0.00  0.00    +0.000 OA
ATOM      4  H   UNL     1       2.700   7.023  18.317  0.00  0.00    +0.000 HD
ENDROOT
BRANCH   1   7
ATOM      5  C   UNL     1       1.542   9.239  18.396  0.00  0.00    +0.000 C 
ATOM      6  C   UNL     1       1.437   8.657  19.793  0.00  0.00    +0.000 C 
ATOM      7  N   UNL     1       1.926   7.508  20.159  0.00  0.00    +0.000 NA
BRANCH   6   8
ATOM      8  C   UNL     1       0.775   9.501  20.847  0.00  0.00    +0.000 A 
ATOM      9  C   UNL     1       0.486  10.851  20.643  0.00  0.00    +0.000 A 
ATOM     10  C   UNL     1      -0.080  11.566  21.686  0.00  0.00    +0.000 A 
ATOM     11  N   UNL     1      -0.378  11.033  22.888  0.00  0.00    +0.000 NA
ATOM     12  C   UNL     1      -0.098   9.724  23.061  0.00  0.00    +0.000 A 
ATOM     13  C   UNL     1       0.470   8.926  22.084  0.00  0.00    +0.000 A 
ENDBRANCH   6   8
ENDBRANCH   1   7
BRANCH   2  14
ATOM     14  C   UNL     1       3.387   4.575  18.444  0.00  0.00    +0.000 C 
BRANCH  14  15
ATOM     15  C   UNL     1       4.862   4.857  18.231  0.00  0.00    +0.000 A 
ATOM     16  C   UNL     1       5.627   5.237  19.350  0.00  0.00    +0.000 A 
ATOM     17  C   UNL     1       6.975   5.551  19.222  0.00  0.00    +0.000 A 
ATOM     18  C   UNL     1       7.582   5.500  17.972  0.00  0.00    +0.000 A 
ATOM     19  C   UNL     1       6.858   5.113  16.837  0.00  0.00    +0.000 A 
ATOM     20  C   UNL     1       7.495   5.073  15.585  0.00  0.00    +0.000 A 
ATOM     21  C   UNL     1       6.805   4.680  14.440  0.00  0.00    +0.000 A 
ATOM     22  C   UNL     1       5.472   4.308  14.539  0.00  0.00    +0.000 A 
ATOM     23  C   UNL     1       4.822   4.345  15.777  0.00  0.00    +0.000 A 
ATOM     24  C   UNL     1       5.487   4.762  16.954  0.00  0.00    +0.000 A 
ENDBRANCH  14  15
ENDBRANCH   2  14
TORSDOF 4
ENDMDL
MODEL 3
REMARK VINA RESULT:      -7.7      5.332      7.284
REMARK  Name = 
REMARK  5 active torsions:
REMARK  status: ('A' for Active; 'I' for Inactive)
REMARK    1  A    between atoms: C_1  and  C_2
REMARK    2  A    between atoms: C_2  and  C_18
REMARK    3  A    between atoms: N_3  and  N_4
REMARK    4  A    between atoms: C_5  and  C_7
REMARK    5  A    between atoms: C_7  and  C_8
REMARK                            x       y       z     vdW  Elec       q    Type
REMARK                         _______ _______ _______ _____ _____    ______ ____
ROOT
ATOM      1  N   UNL     1       2.844   6.357  19.236  0.00  0.00    +0.000 N 
ATOM      2  C   UNL     1       2.795   4.998  19.527  0.00  0.00    +0.000 C 
ATOM      3  O   UNL     1       2.217   4.498  20.491  0.00  0.00    +0.000 OA
ATOM      4  H   UNL     1       3.312   6.681  18.401  0.00  0.00    +0.000 HD
ENDROOT
BRANCH   1   7
ATOM      5  C   UNL     1       1.777   8.739  18.062  0.00  0.00    +0.000 C 
ATOM      6  C   UNL     1       1.646   8.310  19.512  0.00  0.00    +0.000 C 
ATOM      7  N   UNL     1       2.177   7.238  20.022  0.00  0.00    +0.000 NA
BRANCH   6   8
ATOM      8  C   UNL     1       0.902   9.230  20.441  0.00  0.00    +0.000 A 
ATOM      9  C   UNL     1       0.804   8.982  21.811  0.00  0.00    +0.000 A 
ATOM     10  C   UNL     1       0.058   9.856  22.585  0.00  0.00    +0.000 A 
ATOM     11  N   UNL     1      -0.574  10.941  22.095  0.00  0.00    +0.000 NA
ATOM     12  C   UNL     1      -0.461  11.167  20.770  0.00  0.00    +0.000 A 
ATOM     13  C   UNL     1       0.257  10.352  19.912  0.00  0.00    +0.000 A 
ENDBRANCH   6   8
ENDBRANCH   1   7
BRANCH   2  14
ATOM     14  C   UNL     1       3.547   4.149  18.518  0.00  0.00    +0.000 C 
BRANCH  14  15
ATOM     15  C   UNL     1       4.965   4.622  18.262  0.00  0.00    +0.000 A 
ATOM     16  C   UNL     1       5.710   5.092  19.361  0.00  0.00    +0.000 A 
ATOM     17  C   UNL     1       7.001   5.580  19.194  0.00  0.00    +0.000 A 
ATOM     18  C   UNL     1       7.569   5.617  17.925  0.00  0.00    +0.000 A 
ATOM     19  C   UNL     1       6.865   5.146  16.810  0.00  0.00    +0.000 A 
ATOM     20  C   UNL     1       7.461   5.198  15.538  0.00  0.00    +0.000 A 
ATOM     21  C   UNL     1       6.792   4.726  14.411  0.00  0.00    +0.000 A 
ATOM     22  C   UNL     1       5.522   4.182  14.547  0.00  0.00    +0.000 A 
ATOM     23  C   UNL     1       4.914   4.126  15.805  0.00  0.00    +0.000 A 
ATOM     24  C   UNL     1       5.556   4.618  16.965  0.00  0.00    +0.000 A 
ENDBRANCH  14  15
ENDBRANCH   2  14
TORSDOF 4
ENDMDL
MODEL 4
REMARK VINA RESULT:      -7.6      5.428      7.107
REMARK  Name = 
REMARK  5 active torsions:
REMARK  status: ('A' for Active; 'I' for Inactive)
REMARK    1  A    between atoms: C_1  and  C_2
REMARK    2  A    between atoms: C_2  and  C_18
REMARK    3  A    between atoms: N_3  and  N_4
REMARK    4  A    between atoms: C_5  and  C_7
REMARK    5  A    between atoms: C_7  and  C_8
REMARK                            x       y       z     vdW  Elec       q    Type
REMARK                         _______ _______ _______ _____ _____    ______ ____
ROOT
ATOM      1  N   UNL     1       2.656   6.649  20.268  0.00  0.00    +0.000 N 
ATOM      2  C   UNL     1       2.118   5.372  20.391  0.00  0.00    +0.000 C 
ATOM      3  O   UNL     1       0.935   5.118  20.609  0.00  0.00    +0.000 OA
ATOM      4  H   UNL     1       3.636   6.770  20.052  0.00  0.00    +0.000 HD
ENDROOT
BRANCH   1   7
ATOM      5  C   UNL     1       2.333   8.306  17.957  0.00  0.00    +0.000 C 
ATOM      6  C   UNL     1       1.643   8.482  19.297  0.00  0.00    +0.000 C 
ATOM      7  N   UNL     1       1.842   7.732  20.341  0.00  0.00    +0.000 NA
BRANCH   6   8
ATOM      8  C   UNL     1       0.709   9.653  19.447  0.00  0.00    +0.000 A 
ATOM      9  C   UNL     1       0.546  10.321  20.661  0.00  0.00    +0.000 A 
ATOM     10  C   UNL     1      -0.371  11.358  20.720  0.00  0.00    +0.000 A 
ATOM     11  N   UNL     1      -1.112  11.768  19.671  0.00  0.00    +0.000 NA
ATOM     12  C   UNL     1      -0.932  11.113  18.504  0.00  0.00    +0.000 A 
ATOM     13  C   UNL     1      -0.045  10.063  18.344  0.00  0.00    +0.000 A 
ENDBRANCH   6   8
ENDBRANCH   1   7
BRANCH   2  14
ATOM     14  C   UNL     1       3.156   4.277  20.229  0.00  0.00    +0.000 C 
BRANCH  14  15
ATOM     15  C   UNL     1       3.755   4.205  18.838  0.00  0.00    +0.000 A 
ATOM     16  C   UNL     1       2.964   3.656  17.810  0.00  0.00    +0.000 A 
ATOM     17  C   UNL     1       3.464   3.520  16.519  0.00  0.00    +0.000 A 
ATOM     18  C   UNL     1       4.764   3.921  16.233  0.00  0.00    +0.000 A 
ATOM     19  C   UNL     1       5.576   4.485  17.226  0.00  0.00    +0.000 A 
ATOM     20  C   UNL     1       6.888   4.878  16.912  0.00  0.00    +0.000 A 
ATOM     21  C   UNL     1       7.716   5.453  17.874  0.00  0.00    +0.000 A 
ATOM     22  C   UNL     1       7.234   5.654  19.160  0.00  0.00    +0.000 A 
ATOM     23  C   UNL     1       5.931   5.264  19.490  0.00  0.00    +0.000 A 
ATOM     24  C   UNL     1       5.074   4.657  18.544  0.00  0.00    +0.000 A 
ENDBRANCH  14  15
ENDBRANCH   2  14
TORSDOF 4
ENDMDL
MODEL 5
REMARK VINA RESULT:      -7.6      5.220      7.048
REMARK  Name = 
REMARK  5 active torsions:
REMARK  status: ('A' for Active; 'I' for Inactive)
REMARK    1  A    between atoms: C_1  and  C_2
REMARK    2  A    between atoms: C_2  and  C_18
REMARK    3  A    between atoms: N_3  and  N_4
REMARK    4  A    between atoms: C_5  and  C_7
REMARK    5  A    between atoms: C_7  and  C_8
REMARK                            x       y       z     vdW  Elec       q    Type
REMARK                         _______ _______ _______ _____ _____    ______ ____
ROOT
ATOM      1  N   UNL     1       3.146   6.070  19.824  0.00  0.00    +0.000 N 
ATOM      2  C   UNL     1       2.819   4.917  19.118  0.00  0.00    +0.000 C 
ATOM      3  O   UNL     1       1.721   4.677  18.618  0.00  0.00    +0.000 OA
ATOM      4  H   UNL     1       4.085   6.204  20.173  0.00  0.00    +0.000 HD
ENDROOT
BRANCH   1   7
ATOM      5  C   UNL     1       3.023   8.129  17.841  0.00  0.00    +0.000 C 
ATOM      6  C   UNL     1       2.120   7.988  19.053  0.00  0.00    +0.000 C 
ATOM      7  N   UNL     1       2.228   7.060  19.957  0.00  0.00    +0.000 NA
BRANCH   6   8
ATOM      8  C   UNL     1       1.065   9.041  19.256  0.00  0.00    +0.000 A 
ATOM      9  C   UNL     1       0.545   9.785  18.196  0.00  0.00    +0.000 A 
ATOM     10  C   UNL     1      -0.389  10.768  18.481  0.00  0.00    +0.000 A 
ATOM     11  N   UNL     1      -0.835  11.045  19.722  0.00  0.00    +0.000 NA
ATOM     12  C   UNL     1      -0.325  10.308  20.732  0.00  0.00    +0.000 A 
ATOM     13  C   UNL     1       0.613   9.307  20.552  0.00  0.00    +0.000 A 
ENDBRANCH   6   8
ENDBRANCH   1   7
BRANCH   2  14
ATOM     14  C   UNL     1       3.975   3.938  19.017  0.00  0.00    +0.000 C 
BRANCH  14  15
ATOM     15  C   UNL     1       5.263   4.566  18.520  0.00  0.00    +0.000 A 
ATOM     16  C   UNL     1       6.105   5.178  19.469  0.00  0.00    +0.000 A 
ATOM     17  C   UNL     1       7.280   5.810  19.079  0.00  0.00    +0.000 A 
ATOM     18  C   UNL     1       7.632   5.852  17.735  0.00  0.00    +0.000 A 
ATOM     19  C   UNL     1       6.827   5.243  16.763  0.00  0.00    +0.000 A 
ATOM     20  C   UNL     1       7.203   5.303  15.410  0.00  0.00    +0.000 A 
ATOM     21  C   UNL     1       6.430   4.697  14.422  0.00  0.00    +0.000 A 
ATOM     22  C   UNL     1       5.278   4.011  14.779  0.00  0.00    +0.000 A 
ATOM     23  C   UNL     1       4.888   3.945  16.121  0.00  0.00    +0.000 A 
ATOM     24  C   UNL     1       5.637   4.569  17.145  0.00  0.00    +0.000 A 
ENDBRANCH  14  15
ENDBRANCH   2  14
TORSDOF 4
ENDMDL
MODEL 6
REMARK VINA RESULT:      -7.6      5.487      8.513
REMARK  Name = 
REMARK  5 active torsions:
REMARK  status: ('A' for Active; 'I' for Inactive)
REMARK    1  A    between atoms: C_1  and  C_2
REMARK    2  A    between atoms: C_2  and  C_18
REMARK    3  A    between atoms: N_3  and  N_4
REMARK    4  A    between atoms: C_5  and  C_7
REMARK    5  A    between atoms: C_7  and  C_8
REMARK                            x       y       z     vdW  Elec       q    Type
REMARK                         _______ _______ _______ _____ _____    ______ ____
ROOT
ATOM      1  N   UNL     1       1.926   8.128  18.088  0.00  0.00    +0.000 N 
ATOM      2  C   UNL     1       1.590   9.461  17.877  0.00  0.00    +0.000 C 
ATOM      3  O   UNL     1       2.387  10.365  17.628  0.00  0.00    +0.000 OA
ATOM      4  H   UNL     1       1.203   7.441  18.252  0.00  0.00    +0.000 HD
ENDROOT
BRANCH   1   7
ATOM      5  C   UNL     1       2.521   5.334  17.930  0.00  0.00    +0.000 C 
ATOM      6  C   UNL     1       3.520   6.474  17.861  0.00  0.00    +0.000 C 
ATOM      7  N   UNL     1       3.219   7.735  17.974  0.00  0.00    +0.000 NA
BRANCH   6   8
ATOM      8  C   UNL     1       4.973   6.114  17.716  0.00  0.00    +0.000 A 
ATOM      9  C   UNL     1       5.919   7.022  17.238  0.00  0.00    +0.000 A 
ATOM     10  C   UNL     1       7.227   6.590  17.091  0.00  0.00    +0.000 A 
ATOM     11  N   UNL     1       7.646   5.344  17.391  0.00  0.00    +0.000 NA
ATOM     12  C   UNL     1       6.717   4.485  17.859  0.00  0.00    +0.000 A 
ATOM     13  C   UNL     1       5.386   4.818  18.038  0.00  0.00    +0.000 A 
ENDBRANCH   6   8
ENDBRANCH   1   7
BRANCH   2  14
ATOM     14  C   UNL     1       0.098   9.719  17.988  0.00  0.00    +0.000 C 
BRANCH  14  15
ATOM     15  C   UNL     1      -0.263  10.775  19.015  0.00  0.00    +0.000 A 
ATOM     16  C   UNL     1      -0.463  12.093  18.560  0.00  0.00    +0.000 A 
ATOM     17  C   UNL     1      -0.755  13.120  19.450  0.00  0.00    +0.000 A 
ATOM     18  C   UNL     1      -0.842  12.853  20.812  0.00  0.00    +0.000 A 
ATOM     19  C   UNL     1      -0.663  11.552  21.301  0.00  0.00    +0.000 A 
ATOM     20  C   UNL     1      -0.753  11.310  22.682  0.00  0.00    +0.000 A 
ATOM     21  C   UNL     1      -0.592  10.026  23.199  0.00  0.00    +0.000 A 
ATOM     22  C   UNL     1      -0.353   8.966  22.335  0.00  0.00    +0.000 A 
ATOM     23  C   UNL     1      -0.258   9.191  20.958  0.00  0.00    +0.000 A 
ATOM     24  C   UNL     1      -0.392  10.485  20.404  0.00  0.00    +0.000 A 
ENDBRANCH  14  15
ENDBRANCH   2  14
TORSDOF 4
ENDMDL
MODEL 7
REMARK VINA RESULT:      -7.5      5.457      8.582
REMARK  Name = 
REMARK  5 active torsions:
REMARK  status: ('A' for Active; 'I' for Inactive)
REMARK    1  A    between atoms: C_1  and  C_2
REMARK    2  A    between atoms: C_2  and  C_18
REMARK    3  A    between atoms: N_3  and  N_4
REMARK    4  A    between atoms: C_5  and  C_7
REMARK    5  A    between atoms: C_7  and  C_8
REMARK                            x       y       z     vdW  Elec       q    Type
REMARK                         _______ _______ _______ _____ _____    ______ ____
ROOT
ATOM      1  N   UNL     1       2.050   8.093  18.169  0.00  0.00    +0.000 N 
ATOM      2  C   UNL     1       1.757   9.450  18.081  0.00  0.00    +0.000 C 
ATOM      3  O   UNL     1       2.516  10.315  17.645  0.00  0.00    +0.000 OA
ATOM      4  H   UNL     1       1.355   7.443  18.507  0.00  0.00    +0.000 HD
ENDROOT
BRANCH   1   7
ATOM      5  C   UNL     1       2.565   5.278  18.223  0.00  0.00    +0.000 C 
ATOM      6  C   UNL     1       3.488   6.354  17.680  0.00  0.00    +0.000 C 
ATOM      7  N   UNL     1       3.239   7.631  17.706  0.00  0.00    +0.000 NA
BRANCH   6   8
ATOM      8  C   UNL     1       4.818   5.913  17.132  0.00  0.00    +0.000 A 
ATOM      9  C   UNL     1       4.965   4.734  16.401  0.00  0.00    +0.000 A 
ATOM     10  C   UNL     1       6.235   4.380  15.976  0.00  0.00    +0.000 A 
ATOM     11  N   UNL     1       7.341   5.114  16.218  0.00  0.00    +0.000 NA
ATOM     12  C   UNL     1       7.174   6.254  16.920  0.00  0.00    +0.000 A 
ATOM     13  C   UNL     1       5.949   6.692  17.391  0.00  0.00    +0.000 A 
ENDBRANCH   6   8
ENDBRANCH   1   7
BRANCH   2  14
ATOM     14  C   UNL     1       0.368   9.788  18.592  0.00  0.00    +0.000 C 
BRANCH  14  15
ATOM     15  C   UNL     1       0.269   9.827  20.104  0.00  0.00    +0.000 A 
ATOM     16  C   UNL     1       1.053   8.915  20.838  0.00  0.00    +0.000 A 
ATOM     17  C   UNL     1       0.981   8.865  22.226  0.00  0.00    +0.000 A 
ATOM     18  C   UNL     1       0.118   9.718  22.906  0.00  0.00    +0.000 A 
ATOM     19  C   UNL     1      -0.667  10.648  22.212  0.00  0.00    +0.000 A 
ATOM     20  C   UNL     1      -1.534  11.495  22.923  0.00  0.00    +0.000 A 
ATOM     21  C   UNL     1      -2.319  12.439  22.263  0.00  0.00    +0.000 A 
ATOM     22  C   UNL     1      -2.234  12.554  20.883  0.00  0.00    +0.000 A 
ATOM     23  C   UNL     1      -1.378  11.716  20.160  0.00  0.00    +0.000 A 
ATOM     24  C   UNL     1      -0.587  10.732  20.796  0.00  0.00    +0.000 A 
ENDBRANCH  14  15
ENDBRANCH   2  14
TORSDOF 4
ENDMDL
MODEL 8
REMARK VINA RESULT:      -7.5      2.118      8.851
REMARK  Name = 
REMARK  5 active torsions:
REMARK  status: ('A' for Active; 'I' for Inactive)
REMARK    1  A    between atoms: C_1  and  C_2
REMARK    2  A    between atoms: C_2  and  C_18
REMARK    3  A    between atoms: N_3  and  N_4
REMARK    4  A    between atoms: C_5  and  C_7
REMARK    5  A    between atoms: C_7  and  C_8
REMARK                            x       y       z     vdW  Elec       q    Type
REMARK                         _______ _______ _______ _____ _____    ______ ____
ROOT
ATOM      1  N   UNL     1       8.684   8.327  18.760  0.00  0.00    +0.000 N 
ATOM      2  C   UNL     1       8.707   9.714  18.652  0.00  0.00    +0.000 C 
ATOM      3  O   UNL     1       8.125  10.370  17.790  0.00  0.00    +0.000 OA
ATOM      4  H   UNL     1       9.162   7.868  19.522  0.00  0.00    +0.000 HD
ENDROOT
BRANCH   1   7
ATOM      5  C   UNL     1       7.823   5.709  19.529  0.00  0.00    +0.000 C 
ATOM      6  C   UNL     1       7.494   6.421  18.230  0.00  0.00    +0.000 C 
ATOM      7  N   UNL     1       7.934   7.599  17.895  0.00  0.00    +0.000 NA
BRANCH   6   8
ATOM      8  C   UNL     1       6.649   5.681  17.229  0.00  0.00    +0.000 A 
ATOM      9  C   UNL     1       5.413   5.128  17.565  0.00  0.00    +0.000 A 
ATOM     10  C   UNL     1       4.725   4.421  16.593  0.00  0.00    +0.000 A 
ATOM     11  N   UNL     1       5.173   4.242  15.334  0.00  0.00    +0.000 NA
ATOM     12  C   UNL     1       6.367   4.792  15.028  0.00  0.00    +0.000 A 
ATOM     13  C   UNL     1       7.132   5.512  15.928  0.00  0.00    +0.000 A 
ENDBRANCH   6   8
ENDBRANCH   1   7
BRANCH   2  14
ATOM     14  C   UNL     1       9.549  10.375  19.729  0.00  0.00    +0.000 C 
BRANCH  14  15
ATOM     15  C   UNL     1      10.299  11.602  19.248  0.00  0.00    +0.000 A 
ATOM     16  C   UNL     1      10.991  11.511  18.024  0.00  0.00    +0.000 A 
ATOM     17  C   UNL     1      11.734  12.583  17.542  0.00  0.00    +0.000 A 
ATOM     18  C   UNL     1      11.809  13.761  18.277  0.00  0.00    +0.000 A 
ATOM     19  C   UNL     1      11.123  13.894  19.492  0.00  0.00    +0.000 A 
ATOM     20  C   UNL     1      11.219  15.094  20.217  0.00  0.00    +0.000 A 
ATOM     21  C   UNL     1      10.539  15.261  21.422  0.00  0.00    +0.000 A 
ATOM     22  C   UNL     1       9.744  14.233  21.907  0.00  0.00    +0.000 A 
ATOM     23  C   UNL     1       9.641  13.031  21.199  0.00  0.00    +0.000 A 
ATOM     24  C   UNL     1      10.337  12.820  19.987  0.00  0.00    +0.000 A 
ENDBRANCH  14  15
ENDBRANCH   2  14
TORSDOF 4
ENDMDL
MODEL 9
REMARK VINA RESULT:      -7.5      5.613      8.447
REMARK  Name = 
REMARK  5 active torsions:
REMARK  status: ('A' for Active; 'I' for Inactive)
REMARK    1  A    between atoms: C_1  and  C_2
REMARK    2  A    between atoms: C_2  and  C_18
REMARK    3  A    between atoms: N_3  and  N_4
REMARK    4  A    between atoms: C_5  and  C_7
REMARK    5  A    between atoms: C_7  and  C_8
REMARK                            x       y       z     vdW  Elec       q    Type
REMARK                         _______ _______ _______ _____ _____    ______ ____
ROOT
ATOM      1  N   UNL     1       1.896   8.396  17.835  0.00  0.00    +0.000 N 
ATOM      2  C   UNL     1       1.677   9.743  18.106  0.00  0.00    +0.000 C 
ATOM      3  O   UNL     1       2.505  10.641  17.962  0.00  0.00    +0.000 OA
ATOM      4  H   UNL     1       1.148   7.726  17.948  0.00  0.00    +0.000 HD
ENDROOT
BRANCH   1   7
ATOM      5  C   UNL     1       3.158   6.059  18.899  0.00  0.00    +0.000 C 
ATOM      6  C   UNL     1       3.668   6.919  17.757  0.00  0.00    +0.000 C 
ATOM      7  N   UNL     1       3.087   7.999  17.323  0.00  0.00    +0.000 NA
BRANCH   6   8
ATOM      8  C   UNL     1       4.976   6.528  17.127  0.00  0.00    +0.000 A 
ATOM      9  C   UNL     1       6.198   7.024  17.583  0.00  0.00    +0.000 A 
ATOM     10  C   UNL     1       7.350   6.649  16.913  0.00  0.00    +0.000 A 
ATOM     11  N   UNL     1       7.365   5.822  15.847  0.00  0.00    +0.000 NA
ATOM     12  C   UNL     1       6.174   5.348  15.427  0.00  0.00    +0.000 A 
ATOM     13  C   UNL     1       4.968   5.666  16.026  0.00  0.00    +0.000 A 
ENDBRANCH   6   8
ENDBRANCH   1   7
BRANCH   2  14
ATOM     14  C   UNL     1       0.276  10.021  18.621  0.00  0.00    +0.000 C 
BRANCH  14  15
ATOM     15  C   UNL     1       0.167   9.996  20.133  0.00  0.00    +0.000 A 
ATOM     16  C   UNL     1       0.957   9.065  20.834  0.00  0.00    +0.000 A 
ATOM     17  C   UNL     1       0.877   8.957  22.218  0.00  0.00    +0.000 A 
ATOM     18  C   UNL     1      -0.000   9.771  22.926  0.00  0.00    +0.000 A 
ATOM     19  C   UNL     1      -0.793  10.719  22.266  0.00  0.00    +0.000 A 
ATOM     20  C   UNL     1      -1.674  11.525  23.006  0.00  0.00    +0.000 A 
ATOM     21  C   UNL     1      -2.467  12.486  22.380  0.00  0.00    +0.000 A 
ATOM     22  C   UNL     1      -2.374  12.659  21.006  0.00  0.00    +0.000 A 
ATOM     23  C   UNL     1      -1.504  11.861  20.255  0.00  0.00    +0.000 A 
ATOM     24  C   UNL     1      -0.705  10.862  20.856  0.00  0.00    +0.000 A 
ENDBRANCH  14  15
ENDBRANCH   2  14
TORSDOF 4
ENDMDL
