MODEL 1
REMARK VINA RESULT:      -9.3      0.000      0.000
REMARK  Name = 
REMARK  7 active torsions:
REMARK  status: ('A' for Active; 'I' for Inactive)
REMARK    1  A    between atoms: C_1  and  C_2
REMARK    2  A    between atoms: C_4  and  C_5
REMARK    3  A    between atoms: C_7  and  S_8
REMARK    4  A    between atoms: S_8  and  N_11
REMARK    5  A    between atoms: N_11  and  C_12
REMARK    6  A    between atoms: N_20  and  C_21
REMARK    7  A    between atoms: C_21  and  C_22
REMARK                            x       y       z     vdW  Elec       q    Type
REMARK                         _______ _______ _______ _____ _____    ______ ____
ROOT
ATOM      1  C   UNL     1       2.397   6.998  19.734  0.00  0.00    +0.000 A 
ATOM      2  C   UNL     1       2.473   7.745  18.560  0.00  0.00    +0.000 A 
ATOM      3  C   UNL     1       1.790   8.957  18.420  0.00  0.00    +0.000 A 
ATOM      4  C   UNL     1       0.983   9.359  19.491  0.00  0.00    +0.000 A 
ATOM      5  C   UNL     1       0.906   8.635  20.678  0.00  0.00    +0.000 A 
ATOM      6  C   UNL     1       1.623   7.428  20.814  0.00  0.00    +0.000 A 
ATOM      7  N   UNL     1       0.078   9.258  21.579  0.00  0.00    +0.000 NA
ATOM      8  C   UNL     1      -0.373  10.318  20.956  0.00  0.00    +0.000 A 
ATOM      9  N   UNL     1       0.119  10.416  19.682  0.00  0.00    +0.000 N 
ENDROOT
BRANCH   1  10
ATOM     10  N   UNL     1       3.127   5.786  19.814  0.00  0.00    +0.000 N 
ATOM     11  H   UNL     1       3.894   5.683  20.471  0.00  0.00    +0.000 HD
BRANCH  10  12
ATOM     12  S   UNL     1       3.045   4.662  18.568  0.00  0.00    +0.000 S 
ATOM     13  O   UNL     1       1.904   4.959  17.730  0.00  0.00    +0.000 OA
ATOM     14  O   UNL     1       3.199   3.364  19.189  0.00  0.00    +0.000 OA
BRANCH  12  21
ATOM     15  C   UNL     1       7.729   6.990  17.940  0.00  0.00    +0.000 C 
ATOM     16  C   UNL     1       6.662   6.091  17.386  0.00  0.00    +0.000 A 
ATOM     17  C   UNL     1       6.811   5.484  16.130  0.00  0.00    +0.000 A 
ATOM     18  C   UNL     1       5.818   4.642  15.613  0.00  0.00    +0.000 A 
ATOM     19  C   UNL     1       5.967   3.992  14.270  0.00  0.00    +0.000 C 
ATOM     20  C   UNL     1       4.668   4.397  16.368  0.00  0.00    +0.000 A 
ATOM     21  C   UNL     1       4.522   4.988  17.630  0.00  0.00    +0.000 A 
ATOM     22  C   UNL     1       5.501   5.847  18.133  0.00  0.00    +0.000 A 
ENDBRANCH  12  21
ENDBRANCH  10  12
ENDBRANCH   1  10
BRANCH   9  23
ATOM     23  C   UNL     1      -0.329  11.386  18.688  0.00  0.00    +0.000 C 
BRANCH  23  24
ATOM     24  C   UNL     1      -1.678  11.013  18.129  0.00  0.00    +0.000 A 
ATOM     25  C   UNL     1      -1.783  10.041  17.125  0.00  0.00    +0.000 A 
ATOM     26  C   UNL     1      -2.984   9.864  16.438  0.00  0.00    +0.000 A 
ATOM     27  C   UNL     1      -4.102  10.623  16.780  0.00  0.00    +0.000 A 
ATOM     28  C   UNL     1      -4.037  11.515  17.847  0.00  0.00    +0.000 A 
ATOM     29  C   UNL     1      -2.831  11.708  18.523  0.00  0.00    +0.000 A 
ENDBRANCH  23  24
ENDBRANCH   9  23
TORSDOF 5
ENDMDL
MODEL 2
REMARK VINA RESULT:      -9.3      0.520      1.691
REMARK  Name = 
REMARK  7 active torsions:
REMARK  status: ('A' for Active; 'I' for Inactive)
REMARK    1  A    between atoms: C_1  and  C_2
REMARK    2  A    between atoms: C_4  and  C_5
REMARK    3  A    between atoms: C_7  and  S_8
REMARK    4  A    between atoms: S_8  and  N_11
REMARK    5  A    between atoms: N_11  and  C_12
REMARK    6  A    between atoms: N_20  and  C_21
REMARK    7  A    between atoms: C_21  and  C_22
REMARK                            x       y       z     vdW  Elec       q    Type
REMARK                         _______ _______ _______ _____ _____    ______ ____
ROOT
ATOM      1  C   UNL     1       2.310   6.877  19.911  0.00  0.00    +0.000 A 
ATOM      2  C   UNL     1       2.423   7.581  18.713  0.00  0.00    +0.000 A 
ATOM      3  C   UNL     1       1.791   8.815  18.529  0.00  0.00    +0.000 A 
ATOM      4  C   UNL     1       0.997   9.285  19.582  0.00  0.00    +0.000 A 
ATOM      5  C   UNL     1       0.884   8.604  20.792  0.00  0.00    +0.000 A 
ATOM      6  C   UNL     1       1.550   7.374  20.971  0.00  0.00    +0.000 A 
ATOM      7  N   UNL     1       0.079   9.290  21.667  0.00  0.00    +0.000 NA
ATOM      8  C   UNL     1      -0.324  10.347  21.007  0.00  0.00    +0.000 A 
ATOM      9  N   UNL     1       0.177  10.382  19.733  0.00  0.00    +0.000 N 
ENDROOT
BRANCH   1  10
ATOM     10  N   UNL     1       2.989   5.638  20.035  0.00  0.00    +0.000 N 
ATOM     11  H   UNL     1       3.721   5.514  20.728  0.00  0.00    +0.000 HD
BRANCH  10  12
ATOM     12  S   UNL     1       2.921   4.506  18.797  0.00  0.00    +0.000 S 
ATOM     13  O   UNL     1       1.922   4.910  17.832  0.00  0.00    +0.000 OA
ATOM     14  O   UNL     1       2.857   3.211  19.442  0.00  0.00    +0.000 OA
BRANCH  12  21
ATOM     15  C   UNL     1       6.173   3.916  14.696  0.00  0.00    +0.000 C 
ATOM     16  C   UNL     1       5.976   4.342  16.121  0.00  0.00    +0.000 A 
ATOM     17  C   UNL     1       7.040   4.866  16.871  0.00  0.00    +0.000 A 
ATOM     18  C   UNL     1       6.856   5.268  18.200  0.00  0.00    +0.000 A 
ATOM     19  C   UNL     1       7.988   5.826  19.011  0.00  0.00    +0.000 C 
ATOM     20  C   UNL     1       5.591   5.153  18.781  0.00  0.00    +0.000 A 
ATOM     21  C   UNL     1       4.521   4.646  18.031  0.00  0.00    +0.000 A 
ATOM     22  C   UNL     1       4.712   4.222  16.714  0.00  0.00    +0.000 A 
ENDBRANCH  12  21
ENDBRANCH  10  12
ENDBRANCH   1  10
BRANCH   9  23
ATOM     23  C   UNL     1      -0.226  11.336  18.705  0.00  0.00    +0.000 C 
BRANCH  23  24
ATOM     24  C   UNL     1      -1.585  10.999  18.148  0.00  0.00    +0.000 A 
ATOM     25  C   UNL     1      -1.720  10.013  17.161  0.00  0.00    +0.000 A 
ATOM     26  C   UNL     1      -2.924   9.865  16.474  0.00  0.00    +0.000 A 
ATOM     27  C   UNL     1      -4.017  10.667  16.797  0.00  0.00    +0.000 A 
ATOM     28  C   UNL     1      -3.925  11.576  17.849  0.00  0.00    +0.000 A 
ATOM     29  C   UNL     1      -2.715  11.740  18.526  0.00  0.00    +0.000 A 
ENDBRANCH  23  24
ENDBRANCH   9  23
TORSDOF 5
ENDMDL
MODEL 3
REMARK VINA RESULT:      -8.9      1.029      1.439
REMARK  Name = 
REMARK  7 active torsions:
REMARK  status: ('A' for Active; 'I' for Inactive)
REMARK    1  A    between atoms: C_1  and  C_2
REMARK    2  A    between atoms: C_4  and  C_5
REMARK    3  A    between atoms: C_7  and  S_8
REMARK    4  A    between atoms: S_8  and  N_11
REMARK    5  A    between atoms: N_11  and  C_12
REMARK    6  A    between atoms: N_20  and  C_21
REMARK    7  A    between atoms: C_21  and  C_22
REMARK                            x       y       z     vdW  Elec       q    Type
REMARK                         _______ _______ _______ _____ _____    ______ ____
ROOT
ATOM      1  C   UNL     1       2.437   5.839  19.587  0.00  0.00    +0.000 A 
ATOM      2  C   UNL     1       2.646   6.570  18.419  0.00  0.00    +0.000 A 
ATOM      3  C   UNL     1       2.264   7.912  18.320  0.00  0.00    +0.000 A 
ATOM      4  C   UNL     1       1.614   8.471  19.426  0.00  0.00    +0.000 A 
ATOM      5  C   UNL     1       1.410   7.762  20.607  0.00  0.00    +0.000 A 
ATOM      6  C   UNL     1       1.826   6.417  20.701  0.00  0.00    +0.000 A 
ATOM      7  N   UNL     1       0.785   8.544  21.547  0.00  0.00    +0.000 NA
ATOM      8  C   UNL     1       0.576   9.693  20.954  0.00  0.00    +0.000 A 
ATOM      9  N   UNL     1       1.031   9.698  19.663  0.00  0.00    +0.000 N 
ENDROOT
BRANCH   1  10
ATOM     10  N   UNL     1       2.863   4.487  19.624  0.00  0.00    +0.000 N 
ATOM     11  H   UNL     1       3.369   4.123  20.426  0.00  0.00    +0.000 HD
BRANCH  10  12
ATOM     12  S   UNL     1       2.932   3.580  18.213  0.00  0.00    +0.000 S 
ATOM     13  O   UNL     1       1.911   4.040  17.297  0.00  0.00    +0.000 OA
ATOM     14  O   UNL     1       2.993   2.195  18.630  0.00  0.00    +0.000 OA
BRANCH  12  21
ATOM     15  C   UNL     1       7.856   5.387  18.698  0.00  0.00    +0.000 C 
ATOM     16  C   UNL     1       6.770   4.856  17.809  0.00  0.00    +0.000 A 
ATOM     17  C   UNL     1       6.986   4.677  16.434  0.00  0.00    +0.000 A 
ATOM     18  C   UNL     1       5.975   4.178  15.604  0.00  0.00    +0.000 A 
ATOM     19  C   UNL     1       6.195   3.986  14.132  0.00  0.00    +0.000 C 
ATOM     20  C   UNL     1       4.736   3.845  16.158  0.00  0.00    +0.000 A 
ATOM     21  C   UNL     1       4.521   4.007  17.534  0.00  0.00    +0.000 A 
ATOM     22  C   UNL     1       5.522   4.528  18.355  0.00  0.00    +0.000 A 
ENDBRANCH  12  21
ENDBRANCH  10  12
ENDBRANCH   1  10
BRANCH   9  23
ATOM     23  C   UNL     1       0.790  10.765  18.698  0.00  0.00    +0.000 C 
BRANCH  23  24
ATOM     24  C   UNL     1      -0.667  10.843  18.321  0.00  0.00    +0.000 A 
ATOM     25  C   UNL     1      -1.494  11.819  18.894  0.00  0.00    +0.000 A 
ATOM     26  C   UNL     1      -2.878  11.748  18.739  0.00  0.00    +0.000 A 
ATOM     27  C   UNL     1      -3.444  10.732  17.971  0.00  0.00    +0.000 A 
ATOM     28  C   UNL     1      -2.623   9.821  17.310  0.00  0.00    +0.000 A 
ATOM     29  C   UNL     1      -1.239   9.878  17.479  0.00  0.00    +0.000 A 
ENDBRANCH  23  24
ENDBRANCH   9  23
TORSDOF 5
ENDMDL
MODEL 4
REMARK VINA RESULT:      -8.8      1.063      2.149
REMARK  Name = 
REMARK  7 active torsions:
REMARK  status: ('A' for Active; 'I' for Inactive)
REMARK    1  A    between atoms: C_1  and  C_2
REMARK    2  A    between atoms: C_4  and  C_5
REMARK    3  A    between atoms: C_7  and  S_8
REMARK    4  A    between atoms: S_8  and  N_11
REMARK    5  A    between atoms: N_11  and  C_12
REMARK    6  A    between atoms: N_20  and  C_21
REMARK    7  A    between atoms: C_21  and  C_22
REMARK                            x       y       z     vdW  Elec       q    Type
REMARK                         _______ _______ _______ _____ _____    ______ ____
ROOT
ATOM      1  C   UNL     1       2.485   5.762  19.543  0.00  0.00    +0.000 A 
ATOM      2  C   UNL     1       2.707   6.496  18.379  0.00  0.00    +0.000 A 
ATOM      3  C   UNL     1       2.331   7.839  18.279  0.00  0.00    +0.000 A 
ATOM      4  C   UNL     1       1.673   8.398  19.382  0.00  0.00    +0.000 A 
ATOM      5  C   UNL     1       1.456   7.687  20.559  0.00  0.00    +0.000 A 
ATOM      6  C   UNL     1       1.866   6.340  20.653  0.00  0.00    +0.000 A 
ATOM      7  N   UNL     1       0.826   8.469  21.495  0.00  0.00    +0.000 NA
ATOM      8  C   UNL     1       0.626   9.620  20.903  0.00  0.00    +0.000 A 
ATOM      9  N   UNL     1       1.093   9.626  19.616  0.00  0.00    +0.000 N 
ENDROOT
BRANCH   1  10
ATOM     10  N   UNL     1       2.905   4.409  19.581  0.00  0.00    +0.000 N 
ATOM     11  H   UNL     1       3.360   4.028  20.405  0.00  0.00    +0.000 HD
BRANCH  10  12
ATOM     12  S   UNL     1       3.060   3.528  18.160  0.00  0.00    +0.000 S 
ATOM     13  O   UNL     1       2.026   3.930  17.232  0.00  0.00    +0.000 OA
ATOM     14  O   UNL     1       3.210   2.145  18.560  0.00  0.00    +0.000 OA
BRANCH  12  21
ATOM     15  C   UNL     1       6.404   4.364  14.176  0.00  0.00    +0.000 C 
ATOM     16  C   UNL     1       6.129   4.426  15.650  0.00  0.00    +0.000 A 
ATOM     17  C   UNL     1       7.092   4.921  16.543  0.00  0.00    +0.000 A 
ATOM     18  C   UNL     1       6.835   4.983  17.919  0.00  0.00    +0.000 A 
ATOM     19  C   UNL     1       7.859   5.506  18.881  0.00  0.00    +0.000 C 
ATOM     20  C   UNL     1       5.598   4.553  18.404  0.00  0.00    +0.000 A 
ATOM     21  C   UNL     1       4.627   4.073  17.514  0.00  0.00    +0.000 A 
ATOM     22  C   UNL     1       4.893   3.989  16.146  0.00  0.00    +0.000 A 
ENDBRANCH  12  21
ENDBRANCH  10  12
ENDBRANCH   1  10
BRANCH   9  23
ATOM     23  C   UNL     1       0.865  10.697  18.652  0.00  0.00    +0.000 C 
BRANCH  23  24
ATOM     24  C   UNL     1      -0.597  10.820  18.306  0.00  0.00    +0.000 A 
ATOM     25  C   UNL     1      -1.359  11.877  18.820  0.00  0.00    +0.000 A 
ATOM     26  C   UNL     1      -2.749  11.865  18.705  0.00  0.00    +0.000 A 
ATOM     27  C   UNL     1      -3.385  10.823  18.034  0.00  0.00    +0.000 A 
ATOM     28  C   UNL     1      -2.629   9.823  17.427  0.00  0.00    +0.000 A 
ATOM     29  C   UNL     1      -1.239   9.822  17.557  0.00  0.00    +0.000 A 
ENDBRANCH  23  24
ENDBRANCH   9  23
TORSDOF 5
ENDMDL
MODEL 5
REMARK VINA RESULT:      -8.7      1.261      2.186
REMARK  Name = 
REMARK  7 active torsions:
REMARK  status: ('A' for Active; 'I' for Inactive)
REMARK    1  A    between atoms: C_1  and  C_2
REMARK    2  A    between atoms: C_4  and  C_5
REMARK    3  A    between atoms: C_7  and  S_8
REMARK    4  A    between atoms: S_8  and  N_11
REMARK    5  A    between atoms: N_11  and  C_12
REMARK    6  A    between atoms: N_20  and  C_21
REMARK    7  A    between atoms: C_21  and  C_22
REMARK                            x       y       z     vdW  Elec       q    Type
REMARK                         _______ _______ _______ _____ _____    ______ ____
ROOT
ATOM      1  C   UNL     1       2.369   5.664  18.996  0.00  0.00    +0.000 A 
ATOM      2  C   UNL     1       2.446   6.547  17.921  0.00  0.00    +0.000 A 
ATOM      3  C   UNL     1       2.134   7.903  18.067  0.00  0.00    +0.000 A 
ATOM      4  C   UNL     1       1.689   8.321  19.327  0.00  0.00    +0.000 A 
ATOM      5  C   UNL     1       1.620   7.457  20.416  0.00  0.00    +0.000 A 
ATOM      6  C   UNL     1       1.965   6.098  20.260  0.00  0.00    +0.000 A 
ATOM      7  N   UNL     1       1.189   8.118  21.540  0.00  0.00    +0.000 NA
ATOM      8  C   UNL     1       0.963   9.347  21.150  0.00  0.00    +0.000 A 
ATOM      9  N   UNL     1       1.222   9.521  19.816  0.00  0.00    +0.000 N 
ENDROOT
BRANCH   1  10
ATOM     10  N   UNL     1       2.714   4.305  18.782  0.00  0.00    +0.000 N 
ATOM     11  H   UNL     1       1.995   3.597  18.677  0.00  0.00    +0.000 HD
BRANCH  10  12
ATOM     12  S   UNL     1       4.266   3.761  19.119  0.00  0.00    +0.000 S 
ATOM     13  O   UNL     1       4.318   2.325  18.945  0.00  0.00    +0.000 OA
ATOM     14  O   UNL     1       4.642   4.375  20.375  0.00  0.00    +0.000 OA
BRANCH  12  21
ATOM     15  C   UNL     1       6.020   4.013  14.159  0.00  0.00    +0.000 C 
ATOM     16  C   UNL     1       6.032   4.575  15.550  0.00  0.00    +0.000 A 
ATOM     17  C   UNL     1       6.805   5.703  15.866  0.00  0.00    +0.000 A 
ATOM     18  C   UNL     1       6.814   6.231  17.163  0.00  0.00    +0.000 A 
ATOM     19  C   UNL     1       7.640   7.434  17.511  0.00  0.00    +0.000 C 
ATOM     20  C   UNL     1       6.034   5.628  18.153  0.00  0.00    +0.000 A 
ATOM     21  C   UNL     1       5.248   4.511  17.838  0.00  0.00    +0.000 A 
ATOM     22  C   UNL     1       5.259   3.972  16.551  0.00  0.00    +0.000 A 
ENDBRANCH  12  21
ENDBRANCH  10  12
ENDBRANCH   1  10
BRANCH   9  23
ATOM     23  C   UNL     1       0.904  10.725  19.056  0.00  0.00    +0.000 C 
BRANCH  23  24
ATOM     24  C   UNL     1      -0.563  10.787  18.715  0.00  0.00    +0.000 A 
ATOM     25  C   UNL     1      -1.075  10.026  17.655  0.00  0.00    +0.000 A 
ATOM     26  C   UNL     1      -2.367  10.256  17.183  0.00  0.00    +0.000 A 
ATOM     27  C   UNL     1      -3.174  11.214  17.794  0.00  0.00    +0.000 A 
ATOM     28  C   UNL     1      -2.712  11.899  18.916  0.00  0.00    +0.000 A 
ATOM     29  C   UNL     1      -1.413  11.684  19.379  0.00  0.00    +0.000 A 
ENDBRANCH  23  24
ENDBRANCH   9  23
TORSDOF 5
ENDMDL
MODEL 6
REMARK VINA RESULT:      -8.6      1.345      1.605
REMARK  Name = 
REMARK  7 active torsions:
REMARK  status: ('A' for Active; 'I' for Inactive)
REMARK    1  A    between atoms: C_1  and  C_2
REMARK    2  A    between atoms: C_4  and  C_5
REMARK    3  A    between atoms: C_7  and  S_8
REMARK    4  A    between atoms: S_8  and  N_11
REMARK    5  A    between atoms: N_11  and  C_12
REMARK    6  A    between atoms: N_20  and  C_21
REMARK    7  A    between atoms: C_21  and  C_22
REMARK                            x       y       z     vdW  Elec       q    Type
REMARK                         _______ _______ _______ _____ _____    ______ ____
ROOT
ATOM      1  C   UNL     1       2.317   5.431  18.859  0.00  0.00    +0.000 A 
ATOM      2  C   UNL     1       2.440   6.348  17.817  0.00  0.00    +0.000 A 
ATOM      3  C   UNL     1       2.204   7.713  18.014  0.00  0.00    +0.000 A 
ATOM      4  C   UNL     1       1.787   8.107  19.291  0.00  0.00    +0.000 A 
ATOM      5  C   UNL     1       1.673   7.208  20.349  0.00  0.00    +0.000 A 
ATOM      6  C   UNL     1       1.942   5.839  20.140  0.00  0.00    +0.000 A 
ATOM      7  N   UNL     1       1.283   7.849  21.498  0.00  0.00    +0.000 NA
ATOM      8  C   UNL     1       1.124   9.103  21.155  0.00  0.00    +0.000 A 
ATOM      9  N   UNL     1       1.388   9.313  19.827  0.00  0.00    +0.000 N 
ENDROOT
BRANCH   1  10
ATOM     10  N   UNL     1       2.586   4.064  18.592  0.00  0.00    +0.000 N 
ATOM     11  H   UNL     1       1.828   3.403  18.454  0.00  0.00    +0.000 HD
BRANCH  10  12
ATOM     12  S   UNL     1       4.100   3.417  18.919  0.00  0.00    +0.000 S 
ATOM     13  O   UNL     1       4.104   2.011  18.579  0.00  0.00    +0.000 OA
ATOM     14  O   UNL     1       4.448   3.865  20.251  0.00  0.00    +0.000 OA
BRANCH  12  21
ATOM     15  C   UNL     1       7.653   7.128  17.757  0.00  0.00    +0.000 C 
ATOM     16  C   UNL     1       6.784   5.998  17.289  0.00  0.00    +0.000 A 
ATOM     17  C   UNL     1       6.797   5.586  15.947  0.00  0.00    +0.000 A 
ATOM     18  C   UNL     1       5.989   4.528  15.510  0.00  0.00    +0.000 A 
ATOM     19  C   UNL     1       5.993   4.083  14.078  0.00  0.00    +0.000 C 
ATOM     20  C   UNL     1       5.166   3.871  16.428  0.00  0.00    +0.000 A 
ATOM     21  C   UNL     1       5.161   4.269  17.772  0.00  0.00    +0.000 A 
ATOM     22  C   UNL     1       5.949   5.339  18.201  0.00  0.00    +0.000 A 
ENDBRANCH  12  21
ENDBRANCH  10  12
ENDBRANCH   1  10
BRANCH   9  23
ATOM     23  C   UNL     1       1.136  10.560  19.114  0.00  0.00    +0.000 C 
BRANCH  23  24
ATOM     24  C   UNL     1      -0.328  10.723  18.797  0.00  0.00    +0.000 A 
ATOM     25  C   UNL     1      -0.910   9.995  17.750  0.00  0.00    +0.000 A 
ATOM     26  C   UNL     1      -2.190  10.314  17.297  0.00  0.00    +0.000 A 
ATOM     27  C   UNL     1      -2.918  11.328  17.916  0.00  0.00    +0.000 A 
ATOM     28  C   UNL     1      -2.390  11.984  19.026  0.00  0.00    +0.000 A 
ATOM     29  C   UNL     1      -1.102  11.680  19.469  0.00  0.00    +0.000 A 
ENDBRANCH  23  24
ENDBRANCH   9  23
TORSDOF 5
ENDMDL
MODEL 7
REMARK VINA RESULT:      -8.6      4.602      9.687
REMARK  Name = 
REMARK  7 active torsions:
REMARK  status: ('A' for Active; 'I' for Inactive)
REMARK    1  A    between atoms: C_1  and  C_2
REMARK    2  A    between atoms: C_4  and  C_5
REMARK    3  A    between atoms: C_7  and  S_8
REMARK    4  A    between atoms: S_8  and  N_11
REMARK    5  A    between atoms: N_11  and  C_12
REMARK    6  A    between atoms: N_20  and  C_21
REMARK    7  A    between atoms: C_21  and  C_22
REMARK                            x       y       z     vdW  Elec       q    Type
REMARK                         _______ _______ _______ _____ _____    ______ ____
ROOT
ATOM      1  C   UNL     1      -0.097  10.221  20.726  0.00  0.00    +0.000 A 
ATOM      2  C   UNL     1       0.467   9.277  21.582  0.00  0.00    +0.000 A 
ATOM      3  C   UNL     1       1.419   8.358  21.129  0.00  0.00    +0.000 A 
ATOM      4  C   UNL     1       1.740   8.395  19.766  0.00  0.00    +0.000 A 
ATOM      5  C   UNL     1       1.198   9.341  18.899  0.00  0.00    +0.000 A 
ATOM      6  C   UNL     1       0.260  10.278  19.378  0.00  0.00    +0.000 A 
ATOM      7  N   UNL     1       1.699   9.186  17.630  0.00  0.00    +0.000 NA
ATOM      8  C   UNL     1       2.500   8.152  17.701  0.00  0.00    +0.000 A 
ATOM      9  N   UNL     1       2.543   7.617  18.961  0.00  0.00    +0.000 N 
ENDROOT
BRANCH   1  10
ATOM     10  N   UNL     1      -1.046  11.132  21.255  0.00  0.00    +0.000 N 
ATOM     11  H   UNL     1      -2.026  10.877  21.331  0.00  0.00    +0.000 HD
BRANCH  10  12
ATOM     12  S   UNL     1      -0.683  12.768  21.366  0.00  0.00    +0.000 S 
ATOM     13  O   UNL     1      -1.170  13.447  20.185  0.00  0.00    +0.000 OA
ATOM     14  O   UNL     1       0.711  12.843  21.750  0.00  0.00    +0.000 OA
BRANCH  12  21
ATOM     15  C   UNL     1      -4.972  12.515  24.412  0.00  0.00    +0.000 C 
ATOM     16  C   UNL     1      -3.649  13.159  24.116  0.00  0.00    +0.000 A 
ATOM     17  C   UNL     1      -3.149  14.186  24.931  0.00  0.00    +0.000 A 
ATOM     18  C   UNL     1      -1.912  14.785  24.658  0.00  0.00    +0.000 A 
ATOM     19  C   UNL     1      -1.371  15.886  25.521  0.00  0.00    +0.000 C 
ATOM     20  C   UNL     1      -1.165  14.344  23.563  0.00  0.00    +0.000 A 
ATOM     21  C   UNL     1      -1.653  13.307  22.756  0.00  0.00    +0.000 A 
ATOM     22  C   UNL     1      -2.897  12.728  23.015  0.00  0.00    +0.000 A 
ENDBRANCH  12  21
ENDBRANCH  10  12
ENDBRANCH   1  10
BRANCH   9  23
ATOM     23  C   UNL     1       3.204   6.365  19.312  0.00  0.00    +0.000 C 
BRANCH  23  24
ATOM     24  C   UNL     1       2.231   5.215  19.323  0.00  0.00    +0.000 A 
ATOM     25  C   UNL     1       1.714   4.738  20.535  0.00  0.00    +0.000 A 
ATOM     26  C   UNL     1       1.010   3.534  20.575  0.00  0.00    +0.000 A 
ATOM     27  C   UNL     1       0.776   2.822  19.400  0.00  0.00    +0.000 A 
ATOM     28  C   UNL     1       1.193   3.343  18.177  0.00  0.00    +0.000 A 
ATOM     29  C   UNL     1       1.914   4.537  18.136  0.00  0.00    +0.000 A 
ENDBRANCH  23  24
ENDBRANCH   9  23
TORSDOF 5
ENDMDL
MODEL 8
REMARK VINA RESULT:      -8.6      1.511      3.134
REMARK  Name = 
REMARK  7 active torsions:
REMARK  status: ('A' for Active; 'I' for Inactive)
REMARK    1  A    between atoms: C_1  and  C_2
REMARK    2  A    between atoms: C_4  and  C_5
REMARK    3  A    between atoms: C_7  and  S_8
REMARK    4  A    between atoms: S_8  and  N_11
REMARK    5  A    between atoms: N_11  and  C_12
REMARK    6  A    between atoms: N_20  and  C_21
REMARK    7  A    between atoms: C_21  and  C_22
REMARK                            x       y       z     vdW  Elec       q    Type
REMARK                         _______ _______ _______ _____ _____    ______ ____
ROOT
ATOM      1  C   UNL     1       2.415   7.078  19.691  0.00  0.00    +0.000 A 
ATOM      2  C   UNL     1       2.507   7.819  18.514  0.00  0.00    +0.000 A 
ATOM      3  C   UNL     1       1.816   9.024  18.354  0.00  0.00    +0.000 A 
ATOM      4  C   UNL     1       0.985   9.425  19.407  0.00  0.00    +0.000 A 
ATOM      5  C   UNL     1       0.891   8.707  20.596  0.00  0.00    +0.000 A 
ATOM      6  C   UNL     1       1.617   7.508  20.753  0.00  0.00    +0.000 A 
ATOM      7  N   UNL     1       0.041   9.327  21.478  0.00  0.00    +0.000 NA
ATOM      8  C   UNL     1      -0.407  10.380  20.839  0.00  0.00    +0.000 A 
ATOM      9  N   UNL     1       0.108  10.475  19.574  0.00  0.00    +0.000 N 
ENDROOT
BRANCH   1  10
ATOM     10  N   UNL     1       3.155   5.873  19.793  0.00  0.00    +0.000 N 
ATOM     11  H   UNL     1       3.938   5.796  20.434  0.00  0.00    +0.000 HD
BRANCH  10  12
ATOM     12  S   UNL     1       3.050   4.709  18.587  0.00  0.00    +0.000 S 
ATOM     13  O   UNL     1       1.895   4.981  17.758  0.00  0.00    +0.000 OA
ATOM     14  O   UNL     1       3.210   3.431  19.249  0.00  0.00    +0.000 OA
BRANCH  12  21
ATOM     15  C   UNL     1       6.014   3.909  14.307  0.00  0.00    +0.000 C 
ATOM     16  C   UNL     1       5.841   4.587  15.635  0.00  0.00    +0.000 A 
ATOM     17  C   UNL     1       6.818   5.465  16.130  0.00  0.00    +0.000 A 
ATOM     18  C   UNL     1       6.655   6.100  17.367  0.00  0.00    +0.000 A 
ATOM     19  C   UNL     1       7.695   7.037  17.906  0.00  0.00    +0.000 C 
ATOM     20  C   UNL     1       5.498   5.862  18.112  0.00  0.00    +0.000 A 
ATOM     21  C   UNL     1       4.512   4.998  17.615  0.00  0.00    +0.000 A 
ATOM     22  C   UNL     1       4.687   4.346  16.393  0.00  0.00    +0.000 A 
ENDBRANCH  12  21
ENDBRANCH  10  12
ENDBRANCH   1  10
BRANCH   9  23
ATOM     23  C   UNL     1      -0.329  11.434  18.566  0.00  0.00    +0.000 C 
BRANCH  23  24
ATOM     24  C   UNL     1       0.355  12.765  18.743  0.00  0.00    +0.000 A 
ATOM     25  C   UNL     1      -0.396  13.912  19.036  0.00  0.00    +0.000 A 
ATOM     26  C   UNL     1       0.190  15.175  18.963  0.00  0.00    +0.000 A 
ATOM     27  C   UNL     1       1.541  15.301  18.645  0.00  0.00    +0.000 A 
ATOM     28  C   UNL     1       2.321  14.161  18.458  0.00  0.00    +0.000 A 
ATOM     29  C   UNL     1       1.732  12.897  18.511  0.00  0.00    +0.000 A 
ENDBRANCH  23  24
ENDBRANCH   9  23
TORSDOF 5
ENDMDL
MODEL 9
REMARK VINA RESULT:      -8.6      1.474      2.574
REMARK  Name = 
REMARK  7 active torsions:
REMARK  status: ('A' for Active; 'I' for Inactive)
REMARK    1  A    between atoms: C_1  and  C_2
REMARK    2  A    between atoms: C_4  and  C_5
REMARK    3  A    between atoms: C_7  and  S_8
REMARK    4  A    between atoms: S_8  and  N_11
REMARK    5  A    between atoms: N_11  and  C_12
REMARK    6  A    between atoms: N_20  and  C_21
REMARK    7  A    between atoms: C_21  and  C_22
REMARK                            x       y       z     vdW  Elec       q    Type
REMARK                         _______ _______ _______ _____ _____    ______ ____
ROOT
ATOM      1  C   UNL     1       2.200   5.136  18.975  0.00  0.00    +0.000 A 
ATOM      2  C   UNL     1       2.477   5.994  17.912  0.00  0.00    +0.000 A 
ATOM      3  C   UNL     1       2.348   7.381  18.040  0.00  0.00    +0.000 A 
ATOM      4  C   UNL     1       1.878   7.864  19.266  0.00  0.00    +0.000 A 
ATOM      5  C   UNL     1       1.610   7.025  20.345  0.00  0.00    +0.000 A 
ATOM      6  C   UNL     1       1.771   5.630  20.208  0.00  0.00    +0.000 A 
ATOM      7  N   UNL     1       1.196   7.747  21.437  0.00  0.00    +0.000 NA
ATOM      8  C   UNL     1       1.174   8.994  21.036  0.00  0.00    +0.000 A 
ATOM      9  N   UNL     1       1.549   9.122  19.726  0.00  0.00    +0.000 N 
ENDROOT
BRANCH   1  10
ATOM     10  N   UNL     1       2.366   3.742  18.780  0.00  0.00    +0.000 N 
ATOM     11  H   UNL     1       1.561   3.127  18.715  0.00  0.00    +0.000 HD
BRANCH  10  12
ATOM     12  S   UNL     1       3.849   3.013  19.079  0.00  0.00    +0.000 S 
ATOM     13  O   UNL     1       3.816   1.647  18.605  0.00  0.00    +0.000 OA
ATOM     14  O   UNL     1       4.175   3.319  20.456  0.00  0.00    +0.000 OA
BRANCH  12  21
ATOM     15  C   UNL     1       5.778   4.352  14.364  0.00  0.00    +0.000 C 
ATOM     16  C   UNL     1       5.827   4.503  15.856  0.00  0.00    +0.000 A 
ATOM     17  C   UNL     1       6.744   5.375  16.463  0.00  0.00    +0.000 A 
ATOM     18  C   UNL     1       6.788   5.521  17.855  0.00  0.00    +0.000 A 
ATOM     19  C   UNL     1       7.767   6.447  18.513  0.00  0.00    +0.000 C 
ATOM     20  C   UNL     1       5.897   4.792  18.648  0.00  0.00    +0.000 A 
ATOM     21  C   UNL     1       4.969   3.933  18.045  0.00  0.00    +0.000 A 
ATOM     22  C   UNL     1       4.943   3.770  16.659  0.00  0.00    +0.000 A 
ENDBRANCH  12  21
ENDBRANCH  10  12
ENDBRANCH   1  10
BRANCH   9  23
ATOM     23  C   UNL     1       1.459  10.354  18.950  0.00  0.00    +0.000 C 
BRANCH  23  24
ATOM     24  C   UNL     1       0.027  10.690  18.621  0.00  0.00    +0.000 A 
ATOM     25  C   UNL     1      -0.617  11.749  19.275  0.00  0.00    +0.000 A 
ATOM     26  C   UNL     1      -1.997  11.914  19.157  0.00  0.00    +0.000 A 
ATOM     27  C   UNL     1      -2.737  11.053  18.349  0.00  0.00    +0.000 A 
ATOM     28  C   UNL     1      -2.090  10.064  17.610  0.00  0.00    +0.000 A 
ATOM     29  C   UNL     1      -0.712   9.885  17.742  0.00  0.00    +0.000 A 
ENDBRANCH  23  24
ENDBRANCH   9  23
TORSDOF 5
ENDMDL
