MODEL 1
REMARK VINA RESULT:      -7.4      0.000      0.000
REMARK  Name = 
REMARK  3 active torsions:
REMARK  status: ('A' for Active; 'I' for Inactive)
REMARK    1  A    between atoms: C_1  and  C_2
REMARK    2  A    between atoms: N_14  and  C_15
REMARK    3  A    between atoms: C_15  and  C_16
REMARK                            x       y       z     vdW  Elec       q    Type
REMARK                         _______ _______ _______ _____ _____    ______ ____
ROOT
ATOM      1  C   UNL     1       7.954   5.627  19.346  0.00  0.00    +0.000 C 
ATOM      2  C   UNL     1       6.811   5.861  18.400  0.00  0.00    +0.000 A 
ATOM      3  C   UNL     1       5.723   4.993  18.349  0.00  0.00    +0.000 A 
ATOM      4  N   UNL     1       5.563   3.764  18.957  0.00  0.00    +0.000 N 
ATOM      5  C   UNL     1       4.266   3.334  18.833  0.00  0.00    +0.000 A 
ATOM      6  C   UNL     1       3.644   2.229  19.414  0.00  0.00    +0.000 A 
ATOM      7  C   UNL     1       2.288   2.039  19.152  0.00  0.00    +0.000 A 
ATOM      8  C   UNL     1       1.598   2.913  18.313  0.00  0.00    +0.000 A 
ATOM      9  C   UNL     1       2.248   4.003  17.715  0.00  0.00    +0.000 A 
ATOM     10  C   UNL     1       3.610   4.241  17.991  0.00  0.00    +0.000 A 
ATOM     11  C   UNL     1       4.559   5.259  17.639  0.00  0.00    +0.000 A 
ATOM     12  C   UNL     1       4.553   6.421  16.846  0.00  0.00    +0.000 A 
ATOM     13  C   UNL     1       5.701   7.225  16.819  0.00  0.00    +0.000 A 
ATOM     14  N   UNL     1       6.783   6.951  17.583  0.00  0.00    +0.000 N 
ATOM     15  H   UNL     1       6.284   3.266  19.470  0.00  0.00    +0.000 HD
ENDROOT
BRANCH  14  16
ATOM     16  C   UNL     1       7.991   7.837  17.595  0.00  0.00    +0.000 C 
BRANCH  16  17
ATOM     17  C   UNL     1       7.973   9.155  18.312  0.00  0.00    +0.000 C 
ATOM     18  C   UNL     1       9.091   9.741  19.146  0.00  0.00    +0.000 C 
ATOM     19  C   UNL     1       8.897  10.215  17.739  0.00  0.00    +0.000 C 
ENDBRANCH  16  17
ENDBRANCH  14  16
TORSDOF 2
ENDMDL
MODEL 2
REMARK VINA RESULT:      -6.9      3.766      5.459
REMARK  Name = 
REMARK  3 active torsions:
REMARK  status: ('A' for Active; 'I' for Inactive)
REMARK    1  A    between atoms: C_1  and  C_2
REMARK    2  A    between atoms: N_14  and  C_15
REMARK    3  A    between atoms: C_15  and  C_16
REMARK                            x       y       z     vdW  Elec       q    Type
REMARK                         _______ _______ _______ _____ _____    ______ ____
ROOT
ATOM      1  C   UNL     1       2.245   4.810  20.752  0.00  0.00    +0.000 C 
ATOM      2  C   UNL     1       2.623   5.894  19.784  0.00  0.00    +0.000 A 
ATOM      3  C   UNL     1       3.543   5.666  18.762  0.00  0.00    +0.000 A 
ATOM      4  N   UNL     1       4.355   4.571  18.554  0.00  0.00    +0.000 N 
ATOM      5  C   UNL     1       4.951   4.644  17.320  0.00  0.00    +0.000 A 
ATOM      6  C   UNL     1       5.726   3.692  16.657  0.00  0.00    +0.000 A 
ATOM      7  C   UNL     1       6.182   4.008  15.378  0.00  0.00    +0.000 A 
ATOM      8  C   UNL     1       5.894   5.247  14.808  0.00  0.00    +0.000 A 
ATOM      9  C   UNL     1       5.136   6.203  15.503  0.00  0.00    +0.000 A 
ATOM     10  C   UNL     1       4.631   5.896  16.782  0.00  0.00    +0.000 A 
ATOM     11  C   UNL     1       3.784   6.565  17.731  0.00  0.00    +0.000 A 
ATOM     12  C   UNL     1       3.137   7.810  17.811  0.00  0.00    +0.000 A 
ATOM     13  C   UNL     1       2.303   8.068  18.908  0.00  0.00    +0.000 A 
ATOM     14  N   UNL     1       2.052   7.129  19.850  0.00  0.00    +0.000 N 
ATOM     15  H   UNL     1       4.463   3.791  19.195  0.00  0.00    +0.000 HD
ENDROOT
BRANCH  14  16
ATOM     16  C   UNL     1       1.121   7.383  20.995  0.00  0.00    +0.000 C 
BRANCH  16  17
ATOM     17  C   UNL     1       1.011   8.748  21.611  0.00  0.00    +0.000 C 
ATOM     18  C   UNL     1       0.055   9.846  21.200  0.00  0.00    +0.000 C 
ATOM     19  C   UNL     1      -0.265   9.002  22.395  0.00  0.00    +0.000 C 
ENDBRANCH  16  17
ENDBRANCH  14  16
TORSDOF 2
ENDMDL
MODEL 3
REMARK VINA RESULT:      -6.8      4.692      5.815
REMARK  Name = 
REMARK  3 active torsions:
REMARK  status: ('A' for Active; 'I' for Inactive)
REMARK    1  A    between atoms: C_1  and  C_2
REMARK    2  A    between atoms: N_14  and  C_15
REMARK    3  A    between atoms: C_15  and  C_16
REMARK                            x       y       z     vdW  Elec       q    Type
REMARK                         _______ _______ _______ _____ _____    ______ ____
ROOT
ATOM      1  C   UNL     1       0.699   8.586  21.418  0.00  0.00    +0.000 C 
ATOM      2  C   UNL     1       1.440   8.475  20.116  0.00  0.00    +0.000 A 
ATOM      3  C   UNL     1       2.118   7.310  19.764  0.00  0.00    +0.000 A 
ATOM      4  N   UNL     1       2.381   6.193  20.530  0.00  0.00    +0.000 N 
ATOM      5  C   UNL     1       2.879   5.182  19.749  0.00  0.00    +0.000 A 
ATOM      6  C   UNL     1       3.142   3.854  20.086  0.00  0.00    +0.000 A 
ATOM      7  C   UNL     1       3.614   3.014  19.078  0.00  0.00    +0.000 A 
ATOM      8  C   UNL     1       3.840   3.504  17.793  0.00  0.00    +0.000 A 
ATOM      9  C   UNL     1       3.596   4.850  17.480  0.00  0.00    +0.000 A 
ATOM     10  C   UNL     1       3.084   5.714  18.469  0.00  0.00    +0.000 A 
ATOM     11  C   UNL     1       2.653   7.084  18.503  0.00  0.00    +0.000 A 
ATOM     12  C   UNL     1       2.596   8.151  17.589  0.00  0.00    +0.000 A 
ATOM     13  C   UNL     1       2.012   9.359  17.998  0.00  0.00    +0.000 A 
ATOM     14  N   UNL     1       1.446   9.500  19.219  0.00  0.00    +0.000 N 
ATOM     15  H   UNL     1       2.188   6.106  21.524  0.00  0.00    +0.000 HD
ENDROOT
BRANCH  14  16
ATOM     16  C   UNL     1       0.776  10.772  19.640  0.00  0.00    +0.000 C 
BRANCH  16  17
ATOM     17  C   UNL     1      -0.337  11.363  18.825  0.00  0.00    +0.000 C 
ATOM     18  C   UNL     1      -1.528  10.623  18.257  0.00  0.00    +0.000 C 
ATOM     19  C   UNL     1      -1.688  11.416  19.517  0.00  0.00    +0.000 C 
ENDBRANCH  16  17
ENDBRANCH  14  16
TORSDOF 2
ENDMDL
MODEL 4
REMARK VINA RESULT:      -6.7      1.425      6.275
REMARK  Name = 
REMARK  3 active torsions:
REMARK  status: ('A' for Active; 'I' for Inactive)
REMARK    1  A    between atoms: C_1  and  C_2
REMARK    2  A    between atoms: N_14  and  C_15
REMARK    3  A    between atoms: C_15  and  C_16
REMARK                            x       y       z     vdW  Elec       q    Type
REMARK                         _______ _______ _______ _____ _____    ______ ____
ROOT
ATOM      1  C   UNL     1       4.559   2.103  19.882  0.00  0.00    +0.000 C 
ATOM      2  C   UNL     1       4.117   3.308  19.101  0.00  0.00    +0.000 A 
ATOM      3  C   UNL     1       4.955   4.407  18.927  0.00  0.00    +0.000 A 
ATOM      4  N   UNL     1       6.169   4.676  19.525  0.00  0.00    +0.000 N 
ATOM      5  C   UNL     1       6.773   5.750  18.921  0.00  0.00    +0.000 A 
ATOM      6  C   UNL     1       8.055   6.265  19.113  0.00  0.00    +0.000 A 
ATOM      7  C   UNL     1       8.438   7.355  18.332  0.00  0.00    +0.000 A 
ATOM      8  C   UNL     1       7.549   7.920  17.419  0.00  0.00    +0.000 A 
ATOM      9  C   UNL     1       6.253   7.405  17.260  0.00  0.00    +0.000 A 
ATOM     10  C   UNL     1       5.852   6.281  18.010  0.00  0.00    +0.000 A 
ATOM     11  C   UNL     1       4.676   5.458  18.063  0.00  0.00    +0.000 A 
ATOM     12  C   UNL     1       3.421   5.441  17.429  0.00  0.00    +0.000 A 
ATOM     13  C   UNL     1       2.541   4.384  17.704  0.00  0.00    +0.000 A 
ATOM     14  N   UNL     1       2.893   3.352  18.505  0.00  0.00    +0.000 N 
ATOM     15  H   UNL     1       6.589   4.130  20.271  0.00  0.00    +0.000 HD
ENDROOT
BRANCH  14  16
ATOM     16  C   UNL     1       1.975   2.196  18.759  0.00  0.00    +0.000 C 
BRANCH  16  17
ATOM     17  C   UNL     1       0.988   2.229  19.889  0.00  0.00    +0.000 C 
ATOM     18  C   UNL     1       1.269   2.642  21.317  0.00  0.00    +0.000 C 
ATOM     19  C   UNL     1       0.619   3.617  20.385  0.00  0.00    +0.000 C 
ENDBRANCH  16  17
ENDBRANCH  14  16
TORSDOF 2
ENDMDL
MODEL 5
REMARK VINA RESULT:      -6.5      3.017      5.994
REMARK  Name = 
REMARK  3 active torsions:
REMARK  status: ('A' for Active; 'I' for Inactive)
REMARK    1  A    between atoms: C_1  and  C_2
REMARK    2  A    between atoms: N_14  and  C_15
REMARK    3  A    between atoms: C_15  and  C_16
REMARK                            x       y       z     vdW  Elec       q    Type
REMARK                         _______ _______ _______ _____ _____    ______ ____
ROOT
ATOM      1  C   UNL     1       6.318   5.463  19.021  0.00  0.00    +0.000 C 
ATOM      2  C   UNL     1       5.414   4.831  18.002  0.00  0.00    +0.000 A 
ATOM      3  C   UNL     1       5.734   4.837  16.646  0.00  0.00    +0.000 A 
ATOM      4  N   UNL     1       6.746   5.512  15.995  0.00  0.00    +0.000 N 
ATOM      5  C   UNL     1       6.854   5.079  14.698  0.00  0.00    +0.000 A 
ATOM      6  C   UNL     1       7.823   5.388  13.743  0.00  0.00    +0.000 A 
ATOM      7  C   UNL     1       7.718   4.772  12.496  0.00  0.00    +0.000 A 
ATOM      8  C   UNL     1       6.661   3.907  12.217  0.00  0.00    +0.000 A 
ATOM      9  C   UNL     1       5.681   3.631  13.182  0.00  0.00    +0.000 A 
ATOM     10  C   UNL     1       5.781   4.210  14.464  0.00  0.00    +0.000 A 
ATOM     11  C   UNL     1       5.039   4.108  15.689  0.00  0.00    +0.000 A 
ATOM     12  C   UNL     1       3.887   3.429  16.123  0.00  0.00    +0.000 A 
ATOM     13  C   UNL     1       3.513   3.528  17.472  0.00  0.00    +0.000 A 
ATOM     14  N   UNL     1       4.266   4.199  18.373  0.00  0.00    +0.000 N 
ATOM     15  H   UNL     1       7.364   6.196  16.423  0.00  0.00    +0.000 HD
ENDROOT
BRANCH  14  16
ATOM     16  C   UNL     1       3.898   4.262  19.824  0.00  0.00    +0.000 C 
BRANCH  16  17
ATOM     17  C   UNL     1       2.862   3.339  20.397  0.00  0.00    +0.000 C 
ATOM     18  C   UNL     1       2.232   3.436  21.769  0.00  0.00    +0.000 C 
ATOM     19  C   UNL     1       1.482   3.948  20.578  0.00  0.00    +0.000 C 
ENDBRANCH  16  17
ENDBRANCH  14  16
TORSDOF 2
ENDMDL
MODEL 6
REMARK VINA RESULT:      -6.5      3.412      5.845
REMARK  Name = 
REMARK  3 active torsions:
REMARK  status: ('A' for Active; 'I' for Inactive)
REMARK    1  A    between atoms: C_1  and  C_2
REMARK    2  A    between atoms: N_14  and  C_15
REMARK    3  A    between atoms: C_15  and  C_16
REMARK                            x       y       z     vdW  Elec       q    Type
REMARK                         _______ _______ _______ _____ _____    ______ ____
ROOT
ATOM      1  C   UNL     1       3.654   3.170  17.258  0.00  0.00    +0.000 C 
ATOM      2  C   UNL     1       4.878   4.033  17.142  0.00  0.00    +0.000 A 
ATOM      3  C   UNL     1       5.613   4.094  15.960  0.00  0.00    +0.000 A 
ATOM      4  N   UNL     1       5.497   3.320  14.824  0.00  0.00    +0.000 N 
ATOM      5  C   UNL     1       6.257   3.842  13.809  0.00  0.00    +0.000 A 
ATOM      6  C   UNL     1       6.319   3.461  12.468  0.00  0.00    +0.000 A 
ATOM      7  C   UNL     1       7.156   4.194  11.627  0.00  0.00    +0.000 A 
ATOM      8  C   UNL     1       7.922   5.245  12.128  0.00  0.00    +0.000 A 
ATOM      9  C   UNL     1       7.867   5.595  13.486  0.00  0.00    +0.000 A 
ATOM     10  C   UNL     1       7.002   4.896  14.352  0.00  0.00    +0.000 A 
ATOM     11  C   UNL     1       6.631   5.012  15.735  0.00  0.00    +0.000 A 
ATOM     12  C   UNL     1       6.995   5.833  16.817  0.00  0.00    +0.000 A 
ATOM     13  C   UNL     1       6.321   5.679  18.037  0.00  0.00    +0.000 A 
ATOM     14  N   UNL     1       5.291   4.814  18.179  0.00  0.00    +0.000 N 
ATOM     15  H   UNL     1       4.896   2.506  14.728  0.00  0.00    +0.000 HD
ENDROOT
BRANCH  14  16
ATOM     16  C   UNL     1       4.536   4.684  19.466  0.00  0.00    +0.000 C 
BRANCH  16  17
ATOM     17  C   UNL     1       3.501   5.699  19.858  0.00  0.00    +0.000 C 
ATOM     18  C   UNL     1       2.330   6.159  19.018  0.00  0.00    +0.000 C 
ATOM     19  C   UNL     1       2.107   5.142  20.095  0.00  0.00    +0.000 C 
ENDBRANCH  16  17
ENDBRANCH  14  16
TORSDOF 2
ENDMDL
MODEL 7
REMARK VINA RESULT:      -6.4      3.270      4.957
REMARK  Name = 
REMARK  3 active torsions:
REMARK  status: ('A' for Active; 'I' for Inactive)
REMARK    1  A    between atoms: C_1  and  C_2
REMARK    2  A    between atoms: N_14  and  C_15
REMARK    3  A    between atoms: C_15  and  C_16
REMARK                            x       y       z     vdW  Elec       q    Type
REMARK                         _______ _______ _______ _____ _____    ______ ____
ROOT
ATOM      1  C   UNL     1       5.213   6.895  15.123  0.00  0.00    +0.000 C 
ATOM      2  C   UNL     1       5.047   5.683  15.995  0.00  0.00    +0.000 A 
ATOM      3  C   UNL     1       4.343   5.743  17.195  0.00  0.00    +0.000 A 
ATOM      4  N   UNL     1       3.855   6.849  17.861  0.00  0.00    +0.000 N 
ATOM      5  C   UNL     1       3.034   6.464  18.891  0.00  0.00    +0.000 A 
ATOM      6  C   UNL     1       2.230   7.249  19.718  0.00  0.00    +0.000 A 
ATOM      7  C   UNL     1       1.453   6.594  20.673  0.00  0.00    +0.000 A 
ATOM      8  C   UNL     1       1.510   5.207  20.805  0.00  0.00    +0.000 A 
ATOM      9  C   UNL     1       2.346   4.438  19.981  0.00  0.00    +0.000 A 
ATOM     10  C   UNL     1       3.115   5.069  18.983  0.00  0.00    +0.000 A 
ATOM     11  C   UNL     1       3.996   4.623  17.940  0.00  0.00    +0.000 A 
ATOM     12  C   UNL     1       4.497   3.387  17.495  0.00  0.00    +0.000 A 
ATOM     13  C   UNL     1       5.302   3.358  16.348  0.00  0.00    +0.000 A 
ATOM     14  N   UNL     1       5.551   4.473  15.623  0.00  0.00    +0.000 N 
ATOM     15  H   UNL     1       4.032   7.815  17.602  0.00  0.00    +0.000 HD
ENDROOT
BRANCH  14  16
ATOM     16  C   UNL     1       6.368   4.437  14.368  0.00  0.00    +0.000 C 
BRANCH  16  17
ATOM     17  C   UNL     1       6.150   3.369  13.336  0.00  0.00    +0.000 C 
ATOM     18  C   UNL     1       5.259   3.466  12.117  0.00  0.00    +0.000 C 
ATOM     19  C   UNL     1       6.735   3.665  11.966  0.00  0.00    +0.000 C 
ENDBRANCH  16  17
ENDBRANCH  14  16
TORSDOF 2
ENDMDL
MODEL 8
REMARK VINA RESULT:      -6.4      5.116      5.819
REMARK  Name = 
REMARK  3 active torsions:
REMARK  status: ('A' for Active; 'I' for Inactive)
REMARK    1  A    between atoms: C_1  and  C_2
REMARK    2  A    between atoms: N_14  and  C_15
REMARK    3  A    between atoms: C_15  and  C_16
REMARK                            x       y       z     vdW  Elec       q    Type
REMARK                         _______ _______ _______ _____ _____    ______ ____
ROOT
ATOM      1  C   UNL     1       0.410   9.043  21.546  0.00  0.00    +0.000 C 
ATOM      2  C   UNL     1       1.149   8.913  20.244  0.00  0.00    +0.000 A 
ATOM      3  C   UNL     1       1.836   7.747  19.914  0.00  0.00    +0.000 A 
ATOM      4  N   UNL     1       2.111   6.648  20.701  0.00  0.00    +0.000 N 
ATOM      5  C   UNL     1       2.616   5.626  19.939  0.00  0.00    +0.000 A 
ATOM      6  C   UNL     1       2.891   4.307  20.302  0.00  0.00    +0.000 A 
ATOM      7  C   UNL     1       3.367   3.450  19.310  0.00  0.00    +0.000 A 
ATOM      8  C   UNL     1       3.586   3.916  18.015  0.00  0.00    +0.000 A 
ATOM      9  C   UNL     1       3.329   5.254  17.676  0.00  0.00    +0.000 A 
ATOM     10  C   UNL     1       2.812   6.133  18.648  0.00  0.00    +0.000 A 
ATOM     11  C   UNL     1       2.370   7.499  18.656  0.00  0.00    +0.000 A 
ATOM     12  C   UNL     1       2.300   8.547  17.721  0.00  0.00    +0.000 A 
ATOM     13  C   UNL     1       1.707   9.758  18.107  0.00  0.00    +0.000 A 
ATOM     14  N   UNL     1       1.143   9.919  19.326  0.00  0.00    +0.000 N 
ATOM     15  H   UNL     1       1.922   6.579  21.697  0.00  0.00    +0.000 HD
ENDROOT
BRANCH  14  16
ATOM     16  C   UNL     1       0.463  11.193  19.723  0.00  0.00    +0.000 C 
BRANCH  16  17
ATOM     17  C   UNL     1       0.322  12.328  18.750  0.00  0.00    +0.000 C 
ATOM     18  C   UNL     1      -0.475  13.596  18.958  0.00  0.00    +0.000 C 
ATOM     19  C   UNL     1       1.008  13.619  19.159  0.00  0.00    +0.000 C 
ENDBRANCH  16  17
ENDBRANCH  14  16
TORSDOF 2
ENDMDL
MODEL 9
REMARK VINA RESULT:      -6.3      4.307      5.731
REMARK  Name = 
REMARK  3 active torsions:
REMARK  status: ('A' for Active; 'I' for Inactive)
REMARK    1  A    between atoms: C_1  and  C_2
REMARK    2  A    between atoms: N_14  and  C_15
REMARK    3  A    between atoms: C_15  and  C_16
REMARK                            x       y       z     vdW  Elec       q    Type
REMARK                         _______ _______ _______ _____ _____    ______ ____
ROOT
ATOM      1  C   UNL     1       1.543   6.057  21.026  0.00  0.00    +0.000 C 
ATOM      2  C   UNL     1       2.026   6.967  19.932  0.00  0.00    +0.000 A 
ATOM      3  C   UNL     1       3.036   6.576  19.056  0.00  0.00    +0.000 A 
ATOM      4  N   UNL     1       3.850   5.463  19.111  0.00  0.00    +0.000 N 
ATOM      5  C   UNL     1       4.561   5.332  17.945  0.00  0.00    +0.000 A 
ATOM      6  C   UNL     1       5.383   4.285  17.526  0.00  0.00    +0.000 A 
ATOM      7  C   UNL     1       5.963   4.386  16.263  0.00  0.00    +0.000 A 
ATOM      8  C   UNL     1       5.748   5.513  15.471  0.00  0.00    +0.000 A 
ATOM      9  C   UNL     1       4.940   6.569  15.921  0.00  0.00    +0.000 A 
ATOM     10  C   UNL     1       4.311   6.477  17.179  0.00  0.00    +0.000 A 
ATOM     11  C   UNL     1       3.387   7.291  17.918  0.00  0.00    +0.000 A 
ATOM     12  C   UNL     1       2.751   8.531  17.729  0.00  0.00    +0.000 A 
ATOM     13  C   UNL     1       1.820   8.965  18.683  0.00  0.00    +0.000 A 
ATOM     14  N   UNL     1       1.468   8.194  19.738  0.00  0.00    +0.000 N 
ATOM     15  H   UNL     1       3.885   4.800  19.880  0.00  0.00    +0.000 HD
ENDROOT
BRANCH  14  16
ATOM     16  C   UNL     1       0.435   8.633  20.730  0.00  0.00    +0.000 C 
BRANCH  16  17
ATOM     17  C   UNL     1       0.746   9.687  21.752  0.00  0.00    +0.000 C 
ATOM     18  C   UNL     1      -0.232  10.673  22.353  0.00  0.00    +0.000 C 
ATOM     19  C   UNL     1       0.147   9.450  23.128  0.00  0.00    +0.000 C 
ENDBRANCH  16  17
ENDBRANCH  14  16
TORSDOF 2
ENDMDL
