MODEL 1
REMARK VINA RESULT:      -8.7      0.000      0.000
REMARK  Name = 
REMARK  7 active torsions:
REMARK  status: ('A' for Active; 'I' for Inactive)
REMARK    1  A    between atoms: C_1  and  O_2
REMARK    2  A    between atoms: O_2  and  C_3
REMARK    3  A    between atoms: C_8  and  C_9
REMARK    4  A    between atoms: C_9  and  C_11
REMARK    5  A    between atoms: C_17  and  O_18
REMARK    6  A    between atoms: O_18  and  C_19
REMARK    7  A    between atoms: C_19  and  C_20
REMARK                            x       y       z     vdW  Elec       q    Type
REMARK                         _______ _______ _______ _____ _____    ______ ____
ROOT
ATOM      1  C   UNL     1       2.910   4.754  18.745  0.00  0.00    +0.000 C 
ATOM      2  N   UNL     1       2.118   4.148  19.579  0.00  0.00    +0.000 NA
ATOM      3  C   UNL     1       1.179   4.943  20.367  0.00  0.00    +0.000 C 
ATOM      4  C   UNL     1       1.951   6.087  20.945  0.00  0.00    +0.000 C 
ATOM      5  C   UNL     1       2.168   6.927  19.731  0.00  0.00    +0.000 A 
ATOM      6  C   UNL     1       1.509   8.168  19.621  0.00  0.00    +0.000 A 
ATOM      7  C   UNL     1       1.690   8.990  18.530  0.00  0.00    +0.000 A 
ATOM      8  C   UNL     1       2.729   8.619  17.665  0.00  0.00    +0.000 A 
ATOM      9  C   UNL     1       3.337   7.291  17.721  0.00  0.00    +0.000 A 
ATOM     10  C   UNL     1       2.917   6.351  18.672  0.00  0.00    +0.000 A 
ENDROOT
BRANCH   1  11
ATOM     11  C   UNL     1       3.639   3.666  17.906  0.00  0.00    +0.000 C 
ATOM     12  O   UNL     1       3.105   2.592  17.738  0.00  0.00    +0.000 OA
BRANCH  11  18
ATOM     13  C   UNL     1       6.162   4.452  17.747  0.00  0.00    +0.000 A 
ATOM     14  C   UNL     1       7.294   4.827  16.956  0.00  0.00    +0.000 A 
ATOM     15  C   UNL     1       7.246   4.847  15.572  0.00  0.00    +0.000 A 
ATOM     16  C   UNL     1       6.067   4.510  14.944  0.00  0.00    +0.000 A 
ATOM     17  C   UNL     1       4.950   4.121  15.711  0.00  0.00    +0.000 A 
ATOM     18  C   UNL     1       4.952   4.064  17.130  0.00  0.00    +0.000 A 
BRANCH  13  20
ATOM     19  C   UNL     1       7.369   5.625  19.370  0.00  0.00    +0.000 C 
ATOM     20  O   UNL     1       6.387   4.640  19.084  0.00  0.00    +0.000 OA
ENDBRANCH  13  20
ENDBRANCH  11  18
ENDBRANCH   1  11
BRANCH   7  21
ATOM     21  O   UNL     1       0.943  10.144  18.544  0.00  0.00    +0.000 OA
BRANCH  21  22
ATOM     22  C   UNL     1      -0.330  10.146  19.244  0.00  0.00    +0.000 C 
BRANCH  22  23
ATOM     23  C   UNL     1      -1.562  10.456  18.365  0.00  0.00    +0.000 A 
ATOM     24  C   UNL     1      -2.573  11.332  18.741  0.00  0.00    +0.000 A 
ATOM     25  C   UNL     1      -3.693  11.590  17.905  0.00  0.00    +0.000 A 
ATOM     26  C   UNL     1      -3.798  10.958  16.664  0.00  0.00    +0.000 A 
ATOM     27  C   UNL     1      -2.806  10.073  16.272  0.00  0.00    +0.000 A 
ATOM     28  C   UNL     1      -1.695   9.820  17.103  0.00  0.00    +0.000 A 
ENDBRANCH  22  23
ENDBRANCH  21  22
ENDBRANCH   7  21
TORSDOF 6
ENDMDL
MODEL 2
REMARK VINA RESULT:      -8.6      0.735      1.187
REMARK  Name = 
REMARK  7 active torsions:
REMARK  status: ('A' for Active; 'I' for Inactive)
REMARK    1  A    between atoms: C_1  and  O_2
REMARK    2  A    between atoms: O_2  and  C_3
REMARK    3  A    between atoms: C_8  and  C_9
REMARK    4  A    between atoms: C_9  and  C_11
REMARK    5  A    between atoms: C_17  and  O_18
REMARK    6  A    between atoms: O_18  and  C_19
REMARK    7  A    between atoms: C_19  and  C_20
REMARK                            x       y       z     vdW  Elec       q    Type
REMARK                         _______ _______ _______ _____ _____    ______ ____
ROOT
ATOM      1  C   UNL     1       2.860   4.099  18.655  0.00  0.00    +0.000 C 
ATOM      2  N   UNL     1       2.160   3.327  19.433  0.00  0.00    +0.000 NA
ATOM      3  C   UNL     1       1.283   3.936  20.430  0.00  0.00    +0.000 C 
ATOM      4  C   UNL     1       2.084   4.986  21.134  0.00  0.00    +0.000 C 
ATOM      5  C   UNL     1       2.173   6.035  20.077  0.00  0.00    +0.000 A 
ATOM      6  C   UNL     1       1.484   7.252  20.250  0.00  0.00    +0.000 A 
ATOM      7  C   UNL     1       1.548   8.261  19.314  0.00  0.00    +0.000 A 
ATOM      8  C   UNL     1       2.510   8.085  18.308  0.00  0.00    +0.000 A 
ATOM      9  C   UNL     1       3.145   6.790  18.071  0.00  0.00    +0.000 A 
ATOM     10  C   UNL     1       2.832   5.683  18.870  0.00  0.00    +0.000 A 
ENDROOT
BRANCH   1  11
ATOM     11  C   UNL     1       3.529   3.203  17.573  0.00  0.00    +0.000 C 
ATOM     12  O   UNL     1       2.953   2.209  17.189  0.00  0.00    +0.000 OA
BRANCH  11  18
ATOM     13  C   UNL     1       5.999   4.152  17.537  0.00  0.00    +0.000 A 
ATOM     14  C   UNL     1       7.128   4.640  16.804  0.00  0.00    +0.000 A 
ATOM     15  C   UNL     1       7.119   4.733  15.422  0.00  0.00    +0.000 A 
ATOM     16  C   UNL     1       5.982   4.357  14.740  0.00  0.00    +0.000 A 
ATOM     17  C   UNL     1       4.871   3.858  15.449  0.00  0.00    +0.000 A 
ATOM     18  C   UNL     1       4.836   3.723  16.863  0.00  0.00    +0.000 A 
BRANCH  13  20
ATOM     19  C   UNL     1       6.731   5.526  19.282  0.00  0.00    +0.000 C 
ATOM     20  O   UNL     1       6.173   4.281  18.890  0.00  0.00    +0.000 OA
ENDBRANCH  13  20
ENDBRANCH  11  18
ENDBRANCH   1  11
BRANCH   7  21
ATOM     21  O   UNL     1       0.786   9.367  19.600  0.00  0.00    +0.000 OA
BRANCH  21  22
ATOM     22  C   UNL     1       0.471  10.297  18.529  0.00  0.00    +0.000 C 
BRANCH  22  23
ATOM     23  C   UNL     1      -1.036  10.518  18.273  0.00  0.00    +0.000 A 
ATOM     24  C   UNL     1      -1.758   9.845  17.295  0.00  0.00    +0.000 A 
ATOM     25  C   UNL     1      -3.144  10.079  17.088  0.00  0.00    +0.000 A 
ATOM     26  C   UNL     1      -3.822  11.005  17.884  0.00  0.00    +0.000 A 
ATOM     27  C   UNL     1      -3.122  11.697  18.860  0.00  0.00    +0.000 A 
ATOM     28  C   UNL     1      -1.746  11.462  19.063  0.00  0.00    +0.000 A 
ENDBRANCH  22  23
ENDBRANCH  21  22
ENDBRANCH   7  21
TORSDOF 6
ENDMDL
MODEL 3
REMARK VINA RESULT:      -8.5      0.818      1.218
REMARK  Name = 
REMARK  7 active torsions:
REMARK  status: ('A' for Active; 'I' for Inactive)
REMARK    1  A    between atoms: C_1  and  O_2
REMARK    2  A    between atoms: O_2  and  C_3
REMARK    3  A    between atoms: C_8  and  C_9
REMARK    4  A    between atoms: C_9  and  C_11
REMARK    5  A    between atoms: C_17  and  O_18
REMARK    6  A    between atoms: O_18  and  C_19
REMARK    7  A    between atoms: C_19  and  C_20
REMARK                            x       y       z     vdW  Elec       q    Type
REMARK                         _______ _______ _______ _____ _____    ______ ____
ROOT
ATOM      1  C   UNL     1       3.618   4.891  19.336  0.00  0.00    +0.000 C 
ATOM      2  N   UNL     1       2.758   4.265  20.084  0.00  0.00    +0.000 NA
ATOM      3  C   UNL     1       1.539   4.959  20.493  0.00  0.00    +0.000 C 
ATOM      4  C   UNL     1       1.950   6.308  20.995  0.00  0.00    +0.000 C 
ATOM      5  C   UNL     1       2.314   6.989  19.718  0.00  0.00    +0.000 A 
ATOM      6  C   UNL     1       1.508   8.041  19.241  0.00  0.00    +0.000 A 
ATOM      7  C   UNL     1       1.809   8.716  18.078  0.00  0.00    +0.000 A 
ATOM      8  C   UNL     1       3.073   8.441  17.536  0.00  0.00    +0.000 A 
ATOM      9  C   UNL     1       3.859   7.286  17.967  0.00  0.00    +0.000 A 
ATOM     10  C   UNL     1       3.381   6.429  18.967  0.00  0.00    +0.000 A 
ENDROOT
BRANCH   1  11
ATOM     11  C   UNL     1       4.696   3.864  18.889  0.00  0.00    +0.000 C 
ATOM     12  O   UNL     1       4.811   2.823  19.498  0.00  0.00    +0.000 OA
BRANCH  11  18
ATOM     13  C   UNL     1       6.839   4.429  17.441  0.00  0.00    +0.000 A 
ATOM     14  C   UNL     1       7.443   4.673  16.167  0.00  0.00    +0.000 A 
ATOM     15  C   UNL     1       6.712   4.636  14.991  0.00  0.00    +0.000 A 
ATOM     16  C   UNL     1       5.362   4.370  15.057  0.00  0.00    +0.000 A 
ATOM     17  C   UNL     1       4.759   4.110  16.304  0.00  0.00    +0.000 A 
ATOM     18  C   UNL     1       5.466   4.116  17.537  0.00  0.00    +0.000 A 
BRANCH  13  20
ATOM     19  C   UNL     1       7.742   6.007  18.911  0.00  0.00    +0.000 C 
ATOM     20  O   UNL     1       7.710   4.657  18.473  0.00  0.00    +0.000 OA
ENDBRANCH  13  20
ENDBRANCH  11  18
ENDBRANCH   1  11
BRANCH   7  21
ATOM     21  O   UNL     1       0.904   9.684  17.717  0.00  0.00    +0.000 OA
BRANCH  21  22
ATOM     22  C   UNL     1      -0.121  10.075  18.670  0.00  0.00    +0.000 C 
BRANCH  22  23
ATOM     23  C   UNL     1      -1.502  10.394  18.056  0.00  0.00    +0.000 A 
ATOM     24  C   UNL     1      -1.978   9.811  16.888  0.00  0.00    +0.000 A 
ATOM     25  C   UNL     1      -3.254  10.134  16.353  0.00  0.00    +0.000 A 
ATOM     26  C   UNL     1      -4.072  11.058  17.007  0.00  0.00    +0.000 A 
ATOM     27  C   UNL     1      -3.615  11.660  18.168  0.00  0.00    +0.000 A 
ATOM     28  C   UNL     1      -2.348  11.338  18.698  0.00  0.00    +0.000 A 
ENDBRANCH  22  23
ENDBRANCH  21  22
ENDBRANCH   7  21
TORSDOF 6
ENDMDL
MODEL 4
REMARK VINA RESULT:      -8.2      1.849      2.396
REMARK  Name = 
REMARK  7 active torsions:
REMARK  status: ('A' for Active; 'I' for Inactive)
REMARK    1  A    between atoms: C_1  and  O_2
REMARK    2  A    between atoms: O_2  and  C_3
REMARK    3  A    between atoms: C_8  and  C_9
REMARK    4  A    between atoms: C_9  and  C_11
REMARK    5  A    between atoms: C_17  and  O_18
REMARK    6  A    between atoms: O_18  and  C_19
REMARK    7  A    between atoms: C_19  and  C_20
REMARK                            x       y       z     vdW  Elec       q    Type
REMARK                         _______ _______ _______ _____ _____    ______ ____
ROOT
ATOM      1  C   UNL     1       2.923   4.261  18.691  0.00  0.00    +0.000 C 
ATOM      2  N   UNL     1       2.222   3.484  19.462  0.00  0.00    +0.000 NA
ATOM      3  C   UNL     1       1.338   4.086  20.457  0.00  0.00    +0.000 C 
ATOM      4  C   UNL     1       2.131   5.135  21.170  0.00  0.00    +0.000 C 
ATOM      5  C   UNL     1       2.222   6.189  20.117  0.00  0.00    +0.000 A 
ATOM      6  C   UNL     1       1.528   7.403  20.292  0.00  0.00    +0.000 A 
ATOM      7  C   UNL     1       1.593   8.416  19.360  0.00  0.00    +0.000 A 
ATOM      8  C   UNL     1       2.561   8.248  18.359  0.00  0.00    +0.000 A 
ATOM      9  C   UNL     1       3.202   6.956  18.120  0.00  0.00    +0.000 A 
ATOM     10  C   UNL     1       2.888   5.845  18.912  0.00  0.00    +0.000 A 
ENDROOT
BRANCH   1  11
ATOM     11  C   UNL     1       3.601   3.373  17.609  0.00  0.00    +0.000 C 
ATOM     12  O   UNL     1       3.048   2.358  17.245  0.00  0.00    +0.000 OA
BRANCH  11  18
ATOM     13  C   UNL     1       6.055   4.362  17.522  0.00  0.00    +0.000 A 
ATOM     14  C   UNL     1       7.156   4.876  16.767  0.00  0.00    +0.000 A 
ATOM     15  C   UNL     1       7.111   4.984  15.387  0.00  0.00    +0.000 A 
ATOM     16  C   UNL     1       5.964   4.598  14.729  0.00  0.00    +0.000 A 
ATOM     17  C   UNL     1       4.879   4.073  15.459  0.00  0.00    +0.000 A 
ATOM     18  C   UNL     1       4.881   3.922  16.872  0.00  0.00    +0.000 A 
BRANCH  13  20
ATOM     19  C   UNL     1       7.166   5.511  19.228  0.00  0.00    +0.000 C 
ATOM     20  O   UNL     1       6.260   4.478  18.871  0.00  0.00    +0.000 OA
ENDBRANCH  13  20
ENDBRANCH  11  18
ENDBRANCH   1  11
BRANCH   7  21
ATOM     21  O   UNL     1       0.825   9.519  19.647  0.00  0.00    +0.000 OA
BRANCH  21  22
ATOM     22  C   UNL     1       0.857  10.063  20.994  0.00  0.00    +0.000 C 
BRANCH  22  23
ATOM     23  C   UNL     1      -0.378  10.900  21.393  0.00  0.00    +0.000 A 
ATOM     24  C   UNL     1      -1.134  11.636  20.489  0.00  0.00    +0.000 A 
ATOM     25  C   UNL     1      -2.264  12.395  20.897  0.00  0.00    +0.000 A 
ATOM     26  C   UNL     1      -2.645  12.414  22.240  0.00  0.00    +0.000 A 
ATOM     27  C   UNL     1      -1.900  11.696  23.163  0.00  0.00    +0.000 A 
ATOM     28  C   UNL     1      -0.780  10.942  22.755  0.00  0.00    +0.000 A 
ENDBRANCH  22  23
ENDBRANCH  21  22
ENDBRANCH   7  21
TORSDOF 6
ENDMDL
MODEL 5
REMARK VINA RESULT:      -8.2      1.854      2.505
REMARK  Name = 
REMARK  7 active torsions:
REMARK  status: ('A' for Active; 'I' for Inactive)
REMARK    1  A    between atoms: C_1  and  O_2
REMARK    2  A    between atoms: O_2  and  C_3
REMARK    3  A    between atoms: C_8  and  C_9
REMARK    4  A    between atoms: C_9  and  C_11
REMARK    5  A    between atoms: C_17  and  O_18
REMARK    6  A    between atoms: O_18  and  C_19
REMARK    7  A    between atoms: C_19  and  C_20
REMARK                            x       y       z     vdW  Elec       q    Type
REMARK                         _______ _______ _______ _____ _____    ______ ____
ROOT
ATOM      1  C   UNL     1       2.689   4.533  18.421  0.00  0.00    +0.000 C 
ATOM      2  N   UNL     1       2.023   3.732  19.199  0.00  0.00    +0.000 NA
ATOM      3  C   UNL     1       1.239   4.299  20.294  0.00  0.00    +0.000 C 
ATOM      4  C   UNL     1       2.119   5.281  21.001  0.00  0.00    +0.000 C 
ATOM      5  C   UNL     1       2.164   6.392  20.007  0.00  0.00    +0.000 A 
ATOM      6  C   UNL     1       1.526   7.613  20.305  0.00  0.00    +0.000 A 
ATOM      7  C   UNL     1       1.553   8.677  19.430  0.00  0.00    +0.000 A 
ATOM      8  C   UNL     1       2.434   8.542  18.348  0.00  0.00    +0.000 A 
ATOM      9  C   UNL     1       3.012   7.248  17.985  0.00  0.00    +0.000 A 
ATOM     10  C   UNL     1       2.723   6.101  18.735  0.00  0.00    +0.000 A 
ENDROOT
BRANCH   1  11
ATOM     11  C   UNL     1       3.250   3.692  17.240  0.00  0.00    +0.000 C 
ATOM     12  O   UNL     1       2.532   2.884  16.694  0.00  0.00    +0.000 OA
BRANCH  11  18
ATOM     13  C   UNL     1       5.836   4.225  17.433  0.00  0.00    +0.000 A 
ATOM     14  C   UNL     1       7.074   4.591  16.816  0.00  0.00    +0.000 A 
ATOM     15  C   UNL     1       7.174   4.817  15.453  0.00  0.00    +0.000 A 
ATOM     16  C   UNL     1       6.042   4.698  14.677  0.00  0.00    +0.000 A 
ATOM     17  C   UNL     1       4.821   4.321  15.270  0.00  0.00    +0.000 A 
ATOM     18  C   UNL     1       4.668   4.059  16.658  0.00  0.00    +0.000 A 
BRANCH  13  20
ATOM     19  C   UNL     1       6.359   5.421  19.374  0.00  0.00    +0.000 C 
ATOM     20  O   UNL     1       5.935   4.194  18.799  0.00  0.00    +0.000 OA
ENDBRANCH  13  20
ENDBRANCH  11  18
ENDBRANCH   1  11
BRANCH   7  21
ATOM     21  O   UNL     1       0.847   9.782  19.839  0.00  0.00    +0.000 OA
BRANCH  21  22
ATOM     22  C   UNL     1       0.184  10.600  18.838  0.00  0.00    +0.000 C 
BRANCH  22  23
ATOM     23  C   UNL     1       0.590  12.091  18.834  0.00  0.00    +0.000 A 
ATOM     24  C   UNL     1       1.908  12.529  18.861  0.00  0.00    +0.000 A 
ATOM     25  C   UNL     1       2.241  13.910  18.858  0.00  0.00    +0.000 A 
ATOM     26  C   UNL     1       1.229  14.872  18.823  0.00  0.00    +0.000 A 
ATOM     27  C   UNL     1      -0.094  14.460  18.806  0.00  0.00    +0.000 A 
ATOM     28  C   UNL     1      -0.421  13.088  18.808  0.00  0.00    +0.000 A 
ENDBRANCH  22  23
ENDBRANCH  21  22
ENDBRANCH   7  21
TORSDOF 6
ENDMDL
MODEL 6
REMARK VINA RESULT:      -8.2      2.441      2.742
REMARK  Name = 
REMARK  7 active torsions:
REMARK  status: ('A' for Active; 'I' for Inactive)
REMARK    1  A    between atoms: C_1  and  O_2
REMARK    2  A    between atoms: O_2  and  C_3
REMARK    3  A    between atoms: C_8  and  C_9
REMARK    4  A    between atoms: C_9  and  C_11
REMARK    5  A    between atoms: C_17  and  O_18
REMARK    6  A    between atoms: O_18  and  C_19
REMARK    7  A    between atoms: C_19  and  C_20
REMARK                            x       y       z     vdW  Elec       q    Type
REMARK                         _______ _______ _______ _____ _____    ______ ____
ROOT
ATOM      1  C   UNL     1       2.687   4.405  18.414  0.00  0.00    +0.000 C 
ATOM      2  N   UNL     1       2.035   3.562  19.158  0.00  0.00    +0.000 NA
ATOM      3  C   UNL     1       1.239   4.071  20.273  0.00  0.00    +0.000 C 
ATOM      4  C   UNL     1       2.101   5.039  21.020  0.00  0.00    +0.000 C 
ATOM      5  C   UNL     1       2.128   6.190  20.071  0.00  0.00    +0.000 A 
ATOM      6  C   UNL     1       1.469   7.386  20.417  0.00  0.00    +0.000 A 
ATOM      7  C   UNL     1       1.479   8.486  19.585  0.00  0.00    +0.000 A 
ATOM      8  C   UNL     1       2.364   8.408  18.500  0.00  0.00    +0.000 A 
ATOM      9  C   UNL     1       2.964   7.141  18.087  0.00  0.00    +0.000 A 
ATOM     10  C   UNL     1       2.694   5.959  18.790  0.00  0.00    +0.000 A 
ENDROOT
BRANCH   1  11
ATOM     11  C   UNL     1       3.265   3.622  17.201  0.00  0.00    +0.000 C 
ATOM     12  O   UNL     1       2.555   2.838  16.611  0.00  0.00    +0.000 OA
BRANCH  11  18
ATOM     13  C   UNL     1       5.824   4.247  17.458  0.00  0.00    +0.000 A 
ATOM     14  C   UNL     1       7.069   4.637  16.868  0.00  0.00    +0.000 A 
ATOM     15  C   UNL     1       7.204   4.829  15.503  0.00  0.00    +0.000 A 
ATOM     16  C   UNL     1       6.101   4.651  14.696  0.00  0.00    +0.000 A 
ATOM     17  C   UNL     1       4.874   4.249  15.262  0.00  0.00    +0.000 A 
ATOM     18  C   UNL     1       4.687   4.020  16.652  0.00  0.00    +0.000 A 
BRANCH  13  20
ATOM     19  C   UNL     1       6.521   5.401  19.368  0.00  0.00    +0.000 C 
ATOM     20  O   UNL     1       5.881   4.256  18.826  0.00  0.00    +0.000 OA
ENDBRANCH  13  20
ENDBRANCH  11  18
ENDBRANCH   1  11
BRANCH   7  21
ATOM     21  O   UNL     1       0.753   9.561  20.037  0.00  0.00    +0.000 OA
BRANCH  21  22
ATOM     22  C   UNL     1       0.570   9.731  21.468  0.00  0.00    +0.000 C 
BRANCH  22  23
ATOM     23  C   UNL     1      -0.094  11.060  21.892  0.00  0.00    +0.000 A 
ATOM     24  C   UNL     1      -1.105  11.147  22.841  0.00  0.00    +0.000 A 
ATOM     25  C   UNL     1      -1.692  12.389  23.202  0.00  0.00    +0.000 A 
ATOM     26  C   UNL     1      -1.252  13.570  22.601  0.00  0.00    +0.000 A 
ATOM     27  C   UNL     1      -0.251  13.509  21.645  0.00  0.00    +0.000 A 
ATOM     28  C   UNL     1       0.330  12.274  21.288  0.00  0.00    +0.000 A 
ENDBRANCH  22  23
ENDBRANCH  21  22
ENDBRANCH   7  21
TORSDOF 6
ENDMDL
MODEL 7
REMARK VINA RESULT:      -8.1      0.989      1.367
REMARK  Name = 
REMARK  7 active torsions:
REMARK  status: ('A' for Active; 'I' for Inactive)
REMARK    1  A    between atoms: C_1  and  O_2
REMARK    2  A    between atoms: O_2  and  C_3
REMARK    3  A    between atoms: C_8  and  C_9
REMARK    4  A    between atoms: C_9  and  C_11
REMARK    5  A    between atoms: C_17  and  O_18
REMARK    6  A    between atoms: O_18  and  C_19
REMARK    7  A    between atoms: C_19  and  C_20
REMARK                            x       y       z     vdW  Elec       q    Type
REMARK                         _______ _______ _______ _____ _____    ______ ____
ROOT
ATOM      1  C   UNL     1       3.191   4.226  18.614  0.00  0.00    +0.000 C 
ATOM      2  N   UNL     1       2.401   3.525  19.372  0.00  0.00    +0.000 NA
ATOM      3  C   UNL     1       1.429   4.220  20.214  0.00  0.00    +0.000 C 
ATOM      4  C   UNL     1       2.163   5.321  20.912  0.00  0.00    +0.000 C 
ATOM      5  C   UNL     1       2.380   6.278  19.787  0.00  0.00    +0.000 A 
ATOM      6  C   UNL     1       1.694   7.508  19.783  0.00  0.00    +0.000 A 
ATOM      7  C   UNL     1       1.872   8.435  18.779  0.00  0.00    +0.000 A 
ATOM      8  C   UNL     1       2.934   8.171  17.902  0.00  0.00    +0.000 A 
ATOM      9  C   UNL     1       3.574   6.857  17.843  0.00  0.00    +0.000 A 
ATOM     10  C   UNL     1       3.161   5.823  18.692  0.00  0.00    +0.000 A 
ENDROOT
BRANCH   1  11
ATOM     11  C   UNL     1       3.960   3.240  17.689  0.00  0.00    +0.000 C 
ATOM     12  O   UNL     1       3.556   2.104  17.568  0.00  0.00    +0.000 OA
BRANCH  11  18
ATOM     13  C   UNL     1       6.340   4.318  17.264  0.00  0.00    +0.000 A 
ATOM     14  C   UNL     1       7.320   4.838  16.360  0.00  0.00    +0.000 A 
ATOM     15  C   UNL     1       7.106   4.879  14.992  0.00  0.00    +0.000 A 
ATOM     16  C   UNL     1       5.907   4.417  14.495  0.00  0.00    +0.000 A 
ATOM     17  C   UNL     1       4.941   3.886  15.373  0.00  0.00    +0.000 A 
ATOM     18  C   UNL     1       5.118   3.803  16.780  0.00  0.00    +0.000 A 
BRANCH  13  20
ATOM     19  C   UNL     1       7.537   5.634  18.782  0.00  0.00    +0.000 C 
ATOM     20  O   UNL     1       6.699   4.507  18.572  0.00  0.00    +0.000 OA
ENDBRANCH  13  20
ENDBRANCH  11  18
ENDBRANCH   1  11
BRANCH   7  21
ATOM     21  O   UNL     1       1.098   9.564  18.888  0.00  0.00    +0.000 OA
BRANCH  21  22
ATOM     22  C   UNL     1       0.283   9.743  20.077  0.00  0.00    +0.000 C 
BRANCH  22  23
ATOM     23  C   UNL     1      -0.884  10.744  19.929  0.00  0.00    +0.000 A 
ATOM     24  C   UNL     1      -1.247  11.653  20.915  0.00  0.00    +0.000 A 
ATOM     25  C   UNL     1      -2.330  12.557  20.742  0.00  0.00    +0.000 A 
ATOM     26  C   UNL     1      -3.061  12.551  19.552  0.00  0.00    +0.000 A 
ATOM     27  C   UNL     1      -2.725  11.646  18.558  0.00  0.00    +0.000 A 
ATOM     28  C   UNL     1      -1.649  10.751  18.732  0.00  0.00    +0.000 A 
ENDBRANCH  22  23
ENDBRANCH  21  22
ENDBRANCH   7  21
TORSDOF 6
ENDMDL
MODEL 8
REMARK VINA RESULT:      -8.1      1.095      1.891
REMARK  Name = 
REMARK  7 active torsions:
REMARK  status: ('A' for Active; 'I' for Inactive)
REMARK    1  A    between atoms: C_1  and  O_2
REMARK    2  A    between atoms: O_2  and  C_3
REMARK    3  A    between atoms: C_8  and  C_9
REMARK    4  A    between atoms: C_9  and  C_11
REMARK    5  A    between atoms: C_17  and  O_18
REMARK    6  A    between atoms: O_18  and  C_19
REMARK    7  A    between atoms: C_19  and  C_20
REMARK                            x       y       z     vdW  Elec       q    Type
REMARK                         _______ _______ _______ _____ _____    ______ ____
ROOT
ATOM      1  C   UNL     1       2.729   5.633  18.854  0.00  0.00    +0.000 C 
ATOM      2  N   UNL     1       2.033   4.936  19.703  0.00  0.00    +0.000 NA
ATOM      3  C   UNL     1       1.035   5.615  20.525  0.00  0.00    +0.000 C 
ATOM      4  C   UNL     1       1.692   6.833  21.095  0.00  0.00    +0.000 C 
ATOM      5  C   UNL     1       1.781   7.702  19.885  0.00  0.00    +0.000 A 
ATOM      6  C   UNL     1       0.987   8.863  19.808  0.00  0.00    +0.000 A 
ATOM      7  C   UNL     1       1.044   9.710  18.722  0.00  0.00    +0.000 A 
ATOM      8  C   UNL     1       2.093   9.463  17.825  0.00  0.00    +0.000 A 
ATOM      9  C   UNL     1       2.845   8.210  17.849  0.00  0.00    +0.000 A 
ATOM     10  C   UNL     1       2.558   7.222  18.799  0.00  0.00    +0.000 A 
ENDROOT
BRANCH   1  11
ATOM     11  C   UNL     1       3.549   4.640  17.983  0.00  0.00    +0.000 C 
ATOM     12  O   UNL     1       2.966   3.893  17.228  0.00  0.00    +0.000 OA
BRANCH  11  18
ATOM     13  C   UNL     1       5.946   4.326  16.904  0.00  0.00    +0.000 A 
ATOM     14  C   UNL     1       7.369   4.464  16.986  0.00  0.00    +0.000 A 
ATOM     15  C   UNL     1       7.988   5.016  18.096  0.00  0.00    +0.000 A 
ATOM     16  C   UNL     1       7.208   5.428  19.154  0.00  0.00    +0.000 A 
ATOM     17  C   UNL     1       5.805   5.314  19.078  0.00  0.00    +0.000 A 
ATOM     18  C   UNL     1       5.119   4.775  17.957  0.00  0.00    +0.000 A 
BRANCH  13  20
ATOM     19  C   UNL     1       5.692   4.360  14.580  0.00  0.00    +0.000 C 
ATOM     20  O   UNL     1       5.563   3.628  15.790  0.00  0.00    +0.000 OA
ENDBRANCH  13  20
ENDBRANCH  11  18
ENDBRANCH   1  11
BRANCH   7  21
ATOM     21  O   UNL     1       0.177  10.774  18.770  0.00  0.00    +0.000 OA
BRANCH  21  22
ATOM     22  C   UNL     1      -1.210  10.531  19.130  0.00  0.00    +0.000 C 
BRANCH  22  23
ATOM     23  C   UNL     1      -2.221  10.651  17.968  0.00  0.00    +0.000 A 
ATOM     24  C   UNL     1      -3.382  11.412  18.034  0.00  0.00    +0.000 A 
ATOM     25  C   UNL     1      -4.289  11.495  16.944  0.00  0.00    +0.000 A 
ATOM     26  C   UNL     1      -4.023  10.803  15.761  0.00  0.00    +0.000 A 
ATOM     27  C   UNL     1      -2.877  10.029  15.674  0.00  0.00    +0.000 A 
ATOM     28  C   UNL     1      -1.977   9.949  16.758  0.00  0.00    +0.000 A 
ENDBRANCH  22  23
ENDBRANCH  21  22
ENDBRANCH   7  21
TORSDOF 6
ENDMDL
MODEL 9
REMARK VINA RESULT:      -8.0      2.054      2.935
REMARK  Name = 
REMARK  7 active torsions:
REMARK  status: ('A' for Active; 'I' for Inactive)
REMARK    1  A    between atoms: C_1  and  O_2
REMARK    2  A    between atoms: O_2  and  C_3
REMARK    3  A    between atoms: C_8  and  C_9
REMARK    4  A    between atoms: C_9  and  C_11
REMARK    5  A    between atoms: C_17  and  O_18
REMARK    6  A    between atoms: O_18  and  C_19
REMARK    7  A    between atoms: C_19  and  C_20
REMARK                            x       y       z     vdW  Elec       q    Type
REMARK                         _______ _______ _______ _____ _____    ______ ____
ROOT
ATOM      1  C   UNL     1       2.931   4.312  18.617  0.00  0.00    +0.000 C 
ATOM      2  N   UNL     1       2.217   3.557  19.398  0.00  0.00    +0.000 NA
ATOM      3  C   UNL     1       1.340   4.187  20.383  0.00  0.00    +0.000 C 
ATOM      4  C   UNL     1       2.148   5.235  21.082  0.00  0.00    +0.000 C 
ATOM      5  C   UNL     1       2.256   6.271  20.014  0.00  0.00    +0.000 A 
ATOM      6  C   UNL     1       1.581   7.498  20.170  0.00  0.00    +0.000 A 
ATOM      7  C   UNL     1       1.663   8.496  19.223  0.00  0.00    +0.000 A 
ATOM      8  C   UNL     1       2.629   8.298  18.226  0.00  0.00    +0.000 A 
ATOM      9  C   UNL     1       3.251   6.993  18.007  0.00  0.00    +0.000 A 
ATOM     10  C   UNL     1       2.919   5.899  18.815  0.00  0.00    +0.000 A 
ENDROOT
BRANCH   1  11
ATOM     11  C   UNL     1       3.597   3.398  17.550  0.00  0.00    +0.000 C 
ATOM     12  O   UNL     1       3.030   2.385  17.202  0.00  0.00    +0.000 OA
BRANCH  11  18
ATOM     13  C   UNL     1       6.079   4.312  17.448  0.00  0.00    +0.000 A 
ATOM     14  C   UNL     1       7.187   4.803  16.687  0.00  0.00    +0.000 A 
ATOM     15  C   UNL     1       7.129   4.931  15.309  0.00  0.00    +0.000 A 
ATOM     16  C   UNL     1       5.964   4.590  14.660  0.00  0.00    +0.000 A 
ATOM     17  C   UNL     1       4.871   4.088  15.395  0.00  0.00    +0.000 A 
ATOM     18  C   UNL     1       4.885   3.918  16.806  0.00  0.00    +0.000 A 
BRANCH  13  20
ATOM     19  C   UNL     1       7.030   5.561  19.181  0.00  0.00    +0.000 C 
ATOM     20  O   UNL     1       6.303   4.404  18.796  0.00  0.00    +0.000 OA
ENDBRANCH  13  20
ENDBRANCH  11  18
ENDBRANCH   1  11
BRANCH   7  21
ATOM     21  O   UNL     1       0.911   9.614  19.492  0.00  0.00    +0.000 OA
BRANCH  21  22
ATOM     22  C   UNL     1       0.929  10.714  18.544  0.00  0.00    +0.000 C 
BRANCH  22  23
ATOM     23  C   UNL     1       1.651  11.990  19.031  0.00  0.00    +0.000 A 
ATOM     24  C   UNL     1       1.539  12.492  20.322  0.00  0.00    +0.000 A 
ATOM     25  C   UNL     1       2.218  13.671  20.732  0.00  0.00    +0.000 A 
ATOM     26  C   UNL     1       3.031  14.358  19.828  0.00  0.00    +0.000 A 
ATOM     27  C   UNL     1       3.152  13.882  18.531  0.00  0.00    +0.000 A 
ATOM     28  C   UNL     1       2.477  12.711  18.128  0.00  0.00    +0.000 A 
ENDBRANCH  22  23
ENDBRANCH  21  22
ENDBRANCH   7  21
TORSDOF 6
ENDMDL
