MODEL 1
REMARK VINA RESULT:      -7.7      0.000      0.000
REMARK  Name = 
REMARK  5 active torsions:
REMARK  status: ('A' for Active; 'I' for Inactive)
REMARK    1  A    between atoms: C_1  and  O_2
REMARK    2  A    between atoms: O_2  and  C_3
REMARK    3  A    between atoms: C_6  and  C_7
REMARK    4  A    between atoms: N_16  and  C_17
REMARK    5  A    between atoms: C_21  and  C_22
REMARK                            x       y       z     vdW  Elec       q    Type
REMARK                         _______ _______ _______ _____ _____    ______ ____
ROOT
ATOM      1  C   UNL     1      -2.440  12.342  22.294  0.00  0.00    +0.000 C 
ATOM      2  O   UNL     1      -2.674  11.829  23.383  0.00  0.00    +0.000 OA
ATOM      3  N   UNL     1      -1.337  11.971  21.513  0.00  0.00    +0.000 N 
ATOM      4  C   UNL     1      -0.606  10.755  21.849  0.00  0.00    +0.000 C 
ATOM      5  C   UNL     1      -0.548   9.839  20.628  0.00  0.00    +0.000 C 
ATOM      6  C   UNL     1       0.002  10.583  19.393  0.00  0.00    +0.000 C 
ATOM      7  C   UNL     1      -0.679  11.934  19.151  0.00  0.00    +0.000 C 
ATOM      8  C   UNL     1      -0.723  12.753  20.440  0.00  0.00    +0.000 C 
ATOM      9  C   UNL     1      -0.000   9.686  18.141  0.00  0.00    +0.000 C 
ATOM     10  N   UNL     1       1.423   9.573  18.255  0.00  0.00    +0.000 N 
ATOM     11  C   UNL     1       1.535  10.584  19.269  0.00  0.00    +0.000 C 
ENDROOT
BRANCH   1  15
ATOM     12  C   UNL     1      -5.181  15.261  20.698  0.00  0.00    +0.000 A 
ATOM     13  C   UNL     1      -5.240  13.926  20.286  0.00  0.00    +0.000 A 
ATOM     14  C   UNL     1      -4.373  12.970  20.832  0.00  0.00    +0.000 A 
ATOM     15  C   UNL     1      -3.416  13.349  21.784  0.00  0.00    +0.000 A 
ATOM     16  C   UNL     1      -3.318  14.699  22.126  0.00  0.00    +0.000 A 
ATOM     17  C   UNL     1      -4.214  15.644  21.621  0.00  0.00    +0.000 A 
BRANCH  12  19
ATOM     18  C   UNL     1      -7.427  15.707  20.108  0.00  0.00    +0.000 C 
ATOM     19  O   UNL     1      -6.062  16.114  20.093  0.00  0.00    +0.000 OA
ENDBRANCH  12  19
ENDBRANCH   1  15
BRANCH  10  20
ATOM     20  C   UNL     1       2.180   8.384  18.151  0.00  0.00    +0.000 A 
ATOM     21  C   UNL     1       3.306   8.329  17.326  0.00  0.00    +0.000 A 
ATOM     22  C   UNL     1       4.089   7.182  17.258  0.00  0.00    +0.000 A 
ATOM     23  C   UNL     1       3.731   6.054  17.995  0.00  0.00    +0.000 A 
ATOM     24  C   UNL     1       2.586   6.037  18.810  0.00  0.00    +0.000 A 
ATOM     25  C   UNL     1       1.825   7.221  18.867  0.00  0.00    +0.000 A 
BRANCH  24  26
ATOM     26  C   UNL     1       2.214   4.812  19.560  0.00  0.00    +0.000 A 
ATOM     27  C   UNL     1       1.594   3.724  18.915  0.00  0.00    +0.000 A 
ATOM     28  C   UNL     1       1.168   2.593  19.617  0.00  0.00    +0.000 A 
ATOM     29  C   UNL     1       1.374   2.510  20.989  0.00  0.00    +0.000 A 
ATOM     30  C   UNL     1       2.010   3.556  21.652  0.00  0.00    +0.000 A 
ATOM     31  C   UNL     1       2.422   4.693  20.946  0.00  0.00    +0.000 A 
ENDBRANCH  24  26
ENDBRANCH  10  20
TORSDOF 4
ENDMDL
MODEL 2
REMARK VINA RESULT:      -7.6      0.484      1.315
REMARK  Name = 
REMARK  5 active torsions:
REMARK  status: ('A' for Active; 'I' for Inactive)
REMARK    1  A    between atoms: C_1  and  O_2
REMARK    2  A    between atoms: O_2  and  C_3
REMARK    3  A    between atoms: C_6  and  C_7
REMARK    4  A    between atoms: N_16  and  C_17
REMARK    5  A    between atoms: C_21  and  C_22
REMARK                            x       y       z     vdW  Elec       q    Type
REMARK                         _______ _______ _______ _____ _____    ______ ____
ROOT
ATOM      1  C   UNL     1      -2.489  12.338  22.356  0.00  0.00    +0.000 C 
ATOM      2  O   UNL     1      -2.725  11.816  23.441  0.00  0.00    +0.000 OA
ATOM      3  N   UNL     1      -1.383  11.975  21.575  0.00  0.00    +0.000 N 
ATOM      4  C   UNL     1      -0.651  10.758  21.903  0.00  0.00    +0.000 C 
ATOM      5  C   UNL     1      -0.587   9.852  20.675  0.00  0.00    +0.000 C 
ATOM      6  C   UNL     1      -0.036  10.607  19.448  0.00  0.00    +0.000 C 
ATOM      7  C   UNL     1      -0.718  11.958  19.214  0.00  0.00    +0.000 C 
ATOM      8  C   UNL     1      -0.768  12.767  20.510  0.00  0.00    +0.000 C 
ATOM      9  C   UNL     1      -0.033   9.720  18.188  0.00  0.00    +0.000 C 
ATOM     10  N   UNL     1       1.390   9.609  18.305  0.00  0.00    +0.000 N 
ATOM     11  C   UNL     1       1.498  10.612  19.327  0.00  0.00    +0.000 C 
ENDROOT
BRANCH   1  15
ATOM     12  C   UNL     1      -5.392  15.229  21.017  0.00  0.00    +0.000 A 
ATOM     13  C   UNL     1      -4.439  15.569  21.982  0.00  0.00    +0.000 A 
ATOM     14  C   UNL     1      -3.473  14.639  22.391  0.00  0.00    +0.000 A 
ATOM     15  C   UNL     1      -3.466  13.346  21.851  0.00  0.00    +0.000 A 
ATOM     16  C   UNL     1      -4.472  12.998  20.946  0.00  0.00    +0.000 A 
ATOM     17  C   UNL     1      -5.404  13.937  20.500  0.00  0.00    +0.000 A 
BRANCH  12  19
ATOM     18  C   UNL     1      -6.096  17.464  21.331  0.00  0.00    +0.000 C 
ATOM     19  O   UNL     1      -6.297  16.204  20.700  0.00  0.00    +0.000 OA
ENDBRANCH  12  19
ENDBRANCH   1  15
BRANCH  10  20
ATOM     20  C   UNL     1       2.150   8.422  18.193  0.00  0.00    +0.000 A 
ATOM     21  C   UNL     1       3.282   8.378  17.376  0.00  0.00    +0.000 A 
ATOM     22  C   UNL     1       4.067   7.234  17.301  0.00  0.00    +0.000 A 
ATOM     23  C   UNL     1       3.706   6.097  18.023  0.00  0.00    +0.000 A 
ATOM     24  C   UNL     1       2.555   6.069  18.829  0.00  0.00    +0.000 A 
ATOM     25  C   UNL     1       1.791   7.251  18.893  0.00  0.00    +0.000 A 
BRANCH  24  26
ATOM     26  C   UNL     1       2.179   4.835  19.563  0.00  0.00    +0.000 A 
ATOM     27  C   UNL     1       2.346   4.739  20.959  0.00  0.00    +0.000 A 
ATOM     28  C   UNL     1       2.068   3.561  21.657  0.00  0.00    +0.000 A 
ATOM     29  C   UNL     1       1.591   2.447  20.975  0.00  0.00    +0.000 A 
ATOM     30  C   UNL     1       1.387   2.518  19.600  0.00  0.00    +0.000 A 
ATOM     31  C   UNL     1       1.681   3.697  18.903  0.00  0.00    +0.000 A 
ENDBRANCH  24  26
ENDBRANCH  10  20
TORSDOF 4
ENDMDL
MODEL 3
REMARK VINA RESULT:      -7.5      0.699      1.069
REMARK  Name = 
REMARK  5 active torsions:
REMARK  status: ('A' for Active; 'I' for Inactive)
REMARK    1  A    between atoms: C_1  and  O_2
REMARK    2  A    between atoms: O_2  and  C_3
REMARK    3  A    between atoms: C_6  and  C_7
REMARK    4  A    between atoms: N_16  and  C_17
REMARK    5  A    between atoms: C_21  and  C_22
REMARK                            x       y       z     vdW  Elec       q    Type
REMARK                         _______ _______ _______ _____ _____    ______ ____
ROOT
ATOM      1  C   UNL     1      -2.130  12.258  22.271  0.00  0.00    +0.000 C 
ATOM      2  O   UNL     1      -2.315  11.742  23.368  0.00  0.00    +0.000 OA
ATOM      3  N   UNL     1      -1.058  11.895  21.444  0.00  0.00    +0.000 N 
ATOM      4  C   UNL     1      -0.306  10.684  21.747  0.00  0.00    +0.000 C 
ATOM      5  C   UNL     1      -0.292   9.770  20.523  0.00  0.00    +0.000 C 
ATOM      6  C   UNL     1       0.200  10.519  19.268  0.00  0.00    +0.000 C 
ATOM      7  C   UNL     1      -0.500  11.865  19.056  0.00  0.00    +0.000 C 
ATOM      8  C   UNL     1      -0.495  12.683  20.347  0.00  0.00    +0.000 C 
ATOM      9  C   UNL     1       0.152   9.623  18.015  0.00  0.00    +0.000 C 
ATOM     10  N   UNL     1       1.579   9.521  18.069  0.00  0.00    +0.000 N 
ATOM     11  C   UNL     1       1.727  10.531  19.079  0.00  0.00    +0.000 C 
ENDROOT
BRANCH   1  15
ATOM     12  C   UNL     1      -4.958  15.157  20.794  0.00  0.00    +0.000 A 
ATOM     13  C   UNL     1      -5.034  13.819  20.396  0.00  0.00    +0.000 A 
ATOM     14  C   UNL     1      -4.137  12.869  20.905  0.00  0.00    +0.000 A 
ATOM     15  C   UNL     1      -3.134  13.258  21.803  0.00  0.00    +0.000 A 
ATOM     16  C   UNL     1      -3.023  14.611  22.130  0.00  0.00    +0.000 A 
ATOM     17  C   UNL     1      -3.946  15.550  21.664  0.00  0.00    +0.000 A 
BRANCH  12  19
ATOM     18  C   UNL     1      -5.333  17.150  19.579  0.00  0.00    +0.000 C 
ATOM     19  O   UNL     1      -5.871  16.003  20.229  0.00  0.00    +0.000 OA
ENDBRANCH  12  19
ENDBRANCH   1  15
BRANCH  10  20
ATOM     20  C   UNL     1       2.340   8.337  17.931  0.00  0.00    +0.000 A 
ATOM     21  C   UNL     1       3.587   8.364  17.303  0.00  0.00    +0.000 A 
ATOM     22  C   UNL     1       4.367   7.217  17.211  0.00  0.00    +0.000 A 
ATOM     23  C   UNL     1       3.888   6.010  17.720  0.00  0.00    +0.000 A 
ATOM     24  C   UNL     1       2.624   5.915  18.326  0.00  0.00    +0.000 A 
ATOM     25  C   UNL     1       1.867   7.099  18.416  0.00  0.00    +0.000 A 
BRANCH  24  26
ATOM     26  C   UNL     1       2.128   4.610  18.832  0.00  0.00    +0.000 A 
ATOM     27  C   UNL     1       1.534   4.503  20.105  0.00  0.00    +0.000 A 
ATOM     28  C   UNL     1       1.129   3.272  20.630  0.00  0.00    +0.000 A 
ATOM     29  C   UNL     1       1.288   2.112  19.880  0.00  0.00    +0.000 A 
ATOM     30  C   UNL     1       1.844   2.188  18.607  0.00  0.00    +0.000 A 
ATOM     31  C   UNL     1       2.262   3.422  18.092  0.00  0.00    +0.000 A 
ENDBRANCH  24  26
ENDBRANCH  10  20
TORSDOF 4
ENDMDL
MODEL 4
REMARK VINA RESULT:      -7.4      3.712     10.353
REMARK  Name = 
REMARK  5 active torsions:
REMARK  status: ('A' for Active; 'I' for Inactive)
REMARK    1  A    between atoms: C_1  and  O_2
REMARK    2  A    between atoms: O_2  and  C_3
REMARK    3  A    between atoms: C_6  and  C_7
REMARK    4  A    between atoms: N_16  and  C_17
REMARK    5  A    between atoms: C_21  and  C_22
REMARK                            x       y       z     vdW  Elec       q    Type
REMARK                         _______ _______ _______ _____ _____    ______ ____
ROOT
ATOM      1  C   UNL     1       3.130   6.194  19.169  0.00  0.00    +0.000 C 
ATOM      2  O   UNL     1       3.351   5.466  20.132  0.00  0.00    +0.000 OA
ATOM      3  N   UNL     1       2.127   7.173  19.187  0.00  0.00    +0.000 N 
ATOM      4  C   UNL     1       1.519   7.545  20.459  0.00  0.00    +0.000 C 
ATOM      5  C   UNL     1       1.643   9.053  20.663  0.00  0.00    +0.000 C 
ATOM      6  C   UNL     1       1.092   9.832  19.451  0.00  0.00    +0.000 C 
ATOM      7  C   UNL     1       1.628   9.320  18.111  0.00  0.00    +0.000 C 
ATOM      8  C   UNL     1       1.498   7.800  18.024  0.00  0.00    +0.000 C 
ATOM      9  C   UNL     1       1.274  11.353  19.620  0.00  0.00    +0.000 C 
ATOM     10  N   UNL     1      -0.131  11.464  19.871  0.00  0.00    +0.000 N 
ATOM     11  C   UNL     1      -0.421  10.109  19.494  0.00  0.00    +0.000 C 
ENDROOT
BRANCH   1  15
ATOM     12  C   UNL     1       5.777   5.684  15.807  0.00  0.00    +0.000 A 
ATOM     13  C   UNL     1       4.847   4.695  16.139  0.00  0.00    +0.000 A 
ATOM     14  C   UNL     1       3.961   4.877  17.210  0.00  0.00    +0.000 A 
ATOM     15  C   UNL     1       4.016   6.047  17.978  0.00  0.00    +0.000 A 
ATOM     16  C   UNL     1       5.002   6.991  17.682  0.00  0.00    +0.000 A 
ATOM     17  C   UNL     1       5.852   6.835  16.585  0.00  0.00    +0.000 A 
BRANCH  12  19
ATOM     18  C   UNL     1       6.511   4.078  14.234  0.00  0.00    +0.000 C 
ATOM     19  O   UNL     1       6.602   5.401  14.753  0.00  0.00    +0.000 OA
ENDBRANCH  12  19
ENDBRANCH   1  15
BRANCH  10  20
ATOM     20  C   UNL     1      -0.741  12.209  20.906  0.00  0.00    +0.000 A 
ATOM     21  C   UNL     1       0.018  13.066  21.705  0.00  0.00    +0.000 A 
ATOM     22  C   UNL     1      -0.580  13.845  22.690  0.00  0.00    +0.000 A 
ATOM     23  C   UNL     1      -1.953  13.747  22.912  0.00  0.00    +0.000 A 
ATOM     24  C   UNL     1      -2.761  12.871  22.166  0.00  0.00    +0.000 A 
ATOM     25  C   UNL     1      -2.125  12.109  21.167  0.00  0.00    +0.000 A 
BRANCH  24  26
ATOM     26  C   UNL     1      -4.215  12.766  22.444  0.00  0.00    +0.000 A 
ATOM     27  C   UNL     1      -5.143  12.576  21.402  0.00  0.00    +0.000 A 
ATOM     28  C   UNL     1      -6.521  12.550  21.635  0.00  0.00    +0.000 A 
ATOM     29  C   UNL     1      -7.009  12.691  22.930  0.00  0.00    +0.000 A 
ATOM     30  C   UNL     1      -6.116  12.851  23.986  0.00  0.00    +0.000 A 
ATOM     31  C   UNL     1      -4.737  12.891  23.744  0.00  0.00    +0.000 A 
ENDBRANCH  24  26
ENDBRANCH  10  20
TORSDOF 4
ENDMDL
MODEL 5
REMARK VINA RESULT:      -7.4      2.204      3.129
REMARK  Name = 
REMARK  5 active torsions:
REMARK  status: ('A' for Active; 'I' for Inactive)
REMARK    1  A    between atoms: C_1  and  O_2
REMARK    2  A    between atoms: O_2  and  C_3
REMARK    3  A    between atoms: C_6  and  C_7
REMARK    4  A    between atoms: N_16  and  C_17
REMARK    5  A    between atoms: C_21  and  C_22
REMARK                            x       y       z     vdW  Elec       q    Type
REMARK                         _______ _______ _______ _____ _____    ______ ____
ROOT
ATOM      1  C   UNL     1      -3.752  13.992  21.305  0.00  0.00    +0.000 C 
ATOM      2  O   UNL     1      -4.471  14.219  20.337  0.00  0.00    +0.000 OA
ATOM      3  N   UNL     1      -2.967  12.834  21.399  0.00  0.00    +0.000 N 
ATOM      4  C   UNL     1      -2.765  12.014  20.211  0.00  0.00    +0.000 C 
ATOM      5  C   UNL     1      -1.269  11.836  19.961  0.00  0.00    +0.000 C 
ATOM      6  C   UNL     1      -0.548  11.309  21.219  0.00  0.00    +0.000 C 
ATOM      7  C   UNL     1      -0.897  12.094  22.487  0.00  0.00    +0.000 C 
ATOM      8  C   UNL     1      -2.411  12.253  22.621  0.00  0.00    +0.000 C 
ATOM      9  C   UNL     1       0.973  11.191  20.997  0.00  0.00    +0.000 C 
ATOM     10  N   UNL     1       0.822   9.768  20.931  0.00  0.00    +0.000 N 
ATOM     11  C   UNL     1      -0.545   9.778  21.370  0.00  0.00    +0.000 C 
ENDROOT
BRANCH   1  15
ATOM     12  C   UNL     1      -3.655  17.081  24.309  0.00  0.00    +0.000 A 
ATOM     13  C   UNL     1      -4.732  16.192  24.234  0.00  0.00    +0.000 A 
ATOM     14  C   UNL     1      -4.746  15.165  23.280  0.00  0.00    +0.000 A 
ATOM     15  C   UNL     1      -3.687  15.032  22.372  0.00  0.00    +0.000 A 
ATOM     16  C   UNL     1      -2.657  15.975  22.410  0.00  0.00    +0.000 A 
ATOM     17  C   UNL     1      -2.616  16.968  23.391  0.00  0.00    +0.000 A 
BRANCH  12  19
ATOM     18  C   UNL     1      -2.513  18.627  25.686  0.00  0.00    +0.000 C 
ATOM     19  O   UNL     1      -3.747  18.053  25.266  0.00  0.00    +0.000 OA
ENDBRANCH  12  19
ENDBRANCH   1  15
BRANCH  10  20
ATOM     20  C   UNL     1       1.402   8.908  19.970  0.00  0.00    +0.000 A 
ATOM     21  C   UNL     1       1.577   9.333  18.651  0.00  0.00    +0.000 A 
ATOM     22  C   UNL     1       2.195   8.516  17.711  0.00  0.00    +0.000 A 
ATOM     23  C   UNL     1       2.618   7.238  18.075  0.00  0.00    +0.000 A 
ATOM     24  C   UNL     1       2.431   6.742  19.377  0.00  0.00    +0.000 A 
ATOM     25  C   UNL     1       1.815   7.601  20.306  0.00  0.00    +0.000 A 
BRANCH  24  26
ATOM     26  C   UNL     1       2.865   5.366  19.727  0.00  0.00    +0.000 A 
ATOM     27  C   UNL     1       4.057   4.825  19.207  0.00  0.00    +0.000 A 
ATOM     28  C   UNL     1       4.444   3.506  19.465  0.00  0.00    +0.000 A 
ATOM     29  C   UNL     1       3.655   2.698  20.275  0.00  0.00    +0.000 A 
ATOM     30  C   UNL     1       2.486   3.212  20.829  0.00  0.00    +0.000 A 
ATOM     31  C   UNL     1       2.096   4.529  20.555  0.00  0.00    +0.000 A 
ENDBRANCH  24  26
ENDBRANCH  10  20
TORSDOF 4
ENDMDL
MODEL 6
REMARK VINA RESULT:      -7.4      3.648     10.783
REMARK  Name = 
REMARK  5 active torsions:
REMARK  status: ('A' for Active; 'I' for Inactive)
REMARK    1  A    between atoms: C_1  and  O_2
REMARK    2  A    between atoms: O_2  and  C_3
REMARK    3  A    between atoms: C_6  and  C_7
REMARK    4  A    between atoms: N_16  and  C_17
REMARK    5  A    between atoms: C_21  and  C_22
REMARK                            x       y       z     vdW  Elec       q    Type
REMARK                         _______ _______ _______ _____ _____    ______ ____
ROOT
ATOM      1  C   UNL     1       3.442   5.904  19.097  0.00  0.00    +0.000 C 
ATOM      2  O   UNL     1       3.570   5.131  20.041  0.00  0.00    +0.000 OA
ATOM      3  N   UNL     1       2.404   6.844  19.035  0.00  0.00    +0.000 N 
ATOM      4  C   UNL     1       1.623   7.120  20.234  0.00  0.00    +0.000 C 
ATOM      5  C   UNL     1       1.653   8.617  20.532  0.00  0.00    +0.000 C 
ATOM      6  C   UNL     1       1.229   9.444  19.300  0.00  0.00    +0.000 C 
ATOM      7  C   UNL     1       1.954   9.029  18.017  0.00  0.00    +0.000 C 
ATOM      8  C   UNL     1       1.902   7.513  17.835  0.00  0.00    +0.000 C 
ATOM      9  C   UNL     1       1.322  10.958  19.571  0.00  0.00    +0.000 C 
ATOM     10  N   UNL     1      -0.108  11.004  19.642  0.00  0.00    +0.000 N 
ATOM     11  C   UNL     1      -0.288   9.663  19.160  0.00  0.00    +0.000 C 
ENDROOT
BRANCH   1  15
ATOM     12  C   UNL     1       6.494   5.654  16.065  0.00  0.00    +0.000 A 
ATOM     13  C   UNL     1       5.364   4.832  16.009  0.00  0.00    +0.000 A 
ATOM     14  C   UNL     1       4.354   4.940  16.976  0.00  0.00    +0.000 A 
ATOM     15  C   UNL     1       4.479   5.859  18.026  0.00  0.00    +0.000 A 
ATOM     16  C   UNL     1       5.650   6.616  18.111  0.00  0.00    +0.000 A 
ATOM     17  C   UNL     1       6.633   6.547  17.122  0.00  0.00    +0.000 A 
BRANCH  12  19
ATOM     18  C   UNL     1       6.982   4.718  13.949  0.00  0.00    +0.000 C 
ATOM     19  O   UNL     1       7.425   5.459  15.082  0.00  0.00    +0.000 OA
ENDBRANCH  12  19
ENDBRANCH   1  15
BRANCH  10  20
ATOM     20  C   UNL     1      -0.877  11.666  20.626  0.00  0.00    +0.000 A 
ATOM     21  C   UNL     1      -0.527  11.583  21.975  0.00  0.00    +0.000 A 
ATOM     22  C   UNL     1      -1.243  12.274  22.945  0.00  0.00    +0.000 A 
ATOM     23  C   UNL     1      -2.352  13.036  22.577  0.00  0.00    +0.000 A 
ATOM     24  C   UNL     1      -2.775  13.123  21.240  0.00  0.00    +0.000 A 
ATOM     25  C   UNL     1      -2.018  12.422  20.282  0.00  0.00    +0.000 A 
BRANCH  24  26
ATOM     26  C   UNL     1      -3.977  13.918  20.881  0.00  0.00    +0.000 A 
ATOM     27  C   UNL     1      -3.956  15.326  20.923  0.00  0.00    +0.000 A 
ATOM     28  C   UNL     1      -5.097  16.090  20.661  0.00  0.00    +0.000 A 
ATOM     29  C   UNL     1      -6.291  15.461  20.327  0.00  0.00    +0.000 A 
ATOM     30  C   UNL     1      -6.337  14.072  20.249  0.00  0.00    +0.000 A 
ATOM     31  C   UNL     1      -5.195  13.311  20.526  0.00  0.00    +0.000 A 
ENDBRANCH  24  26
ENDBRANCH  10  20
TORSDOF 4
ENDMDL
MODEL 7
REMARK VINA RESULT:      -7.2      3.713     10.605
REMARK  Name = 
REMARK  5 active torsions:
REMARK  status: ('A' for Active; 'I' for Inactive)
REMARK    1  A    between atoms: C_1  and  O_2
REMARK    2  A    between atoms: O_2  and  C_3
REMARK    3  A    between atoms: C_6  and  C_7
REMARK    4  A    between atoms: N_16  and  C_17
REMARK    5  A    between atoms: C_21  and  C_22
REMARK                            x       y       z     vdW  Elec       q    Type
REMARK                         _______ _______ _______ _____ _____    ______ ____
ROOT
ATOM      1  C   UNL     1       3.496   5.699  19.099  0.00  0.00    +0.000 C 
ATOM      2  O   UNL     1       3.573   4.971  20.083  0.00  0.00    +0.000 OA
ATOM      3  N   UNL     1       2.497   6.672  18.964  0.00  0.00    +0.000 N 
ATOM      4  C   UNL     1       1.700   7.038  20.128  0.00  0.00    +0.000 C 
ATOM      5  C   UNL     1       1.782   8.547  20.350  0.00  0.00    +0.000 C 
ATOM      6  C   UNL     1       1.417   9.324  19.068  0.00  0.00    +0.000 C 
ATOM      7  C   UNL     1       2.154   8.817  17.825  0.00  0.00    +0.000 C 
ATOM      8  C   UNL     1       2.047   7.296  17.719  0.00  0.00    +0.000 C 
ATOM      9  C   UNL     1       1.562  10.846  19.263  0.00  0.00    +0.000 C 
ATOM     10  N   UNL     1       0.134  10.948  19.297  0.00  0.00    +0.000 N 
ATOM     11  C   UNL     1      -0.087   9.592  18.880  0.00  0.00    +0.000 C 
ENDROOT
BRANCH   1  15
ATOM     12  C   UNL     1       6.490   5.404  16.011  0.00  0.00    +0.000 A 
ATOM     13  C   UNL     1       6.566   6.403  16.986  0.00  0.00    +0.000 A 
ATOM     14  C   UNL     1       5.612   6.476  18.011  0.00  0.00    +0.000 A 
ATOM     15  C   UNL     1       4.554   5.559  18.056  0.00  0.00    +0.000 A 
ATOM     16  C   UNL     1       4.448   4.616  17.031  0.00  0.00    +0.000 A 
ATOM     17  C   UNL     1       5.425   4.509  16.038  0.00  0.00    +0.000 A 
BRANCH  12  19
ATOM     18  C   UNL     1       7.146   4.760  13.833  0.00  0.00    +0.000 C 
ATOM     19  O   UNL     1       7.461   5.430  15.050  0.00  0.00    +0.000 OA
ENDBRANCH  12  19
ENDBRANCH   1  15
BRANCH  10  20
ATOM     20  C   UNL     1      -0.630  11.689  20.228  0.00  0.00    +0.000 A 
ATOM     21  C   UNL     1      -0.040  12.196  21.388  0.00  0.00    +0.000 A 
ATOM     22  C   UNL     1      -0.769  12.971  22.282  0.00  0.00    +0.000 A 
ATOM     23  C   UNL     1      -2.120  13.220  22.043  0.00  0.00    +0.000 A 
ATOM     24  C   UNL     1      -2.777  12.702  20.914  0.00  0.00    +0.000 A 
ATOM     25  C   UNL     1      -2.005  11.933  20.021  0.00  0.00    +0.000 A 
BRANCH  24  26
ATOM     26  C   UNL     1      -4.224  12.959  20.700  0.00  0.00    +0.000 A 
ATOM     27  C   UNL     1      -4.930  12.321  19.661  0.00  0.00    +0.000 A 
ATOM     28  C   UNL     1      -6.273  12.606  19.397  0.00  0.00    +0.000 A 
ATOM     29  C   UNL     1      -6.954  13.526  20.185  0.00  0.00    +0.000 A 
ATOM     30  C   UNL     1      -6.293  14.153  21.237  0.00  0.00    +0.000 A 
ATOM     31  C   UNL     1      -4.944  13.874  21.488  0.00  0.00    +0.000 A 
ENDBRANCH  24  26
ENDBRANCH  10  20
TORSDOF 4
ENDMDL
MODEL 8
REMARK VINA RESULT:      -7.2      3.595     10.664
REMARK  Name = 
REMARK  5 active torsions:
REMARK  status: ('A' for Active; 'I' for Inactive)
REMARK    1  A    between atoms: C_1  and  O_2
REMARK    2  A    between atoms: O_2  and  C_3
REMARK    3  A    between atoms: C_6  and  C_7
REMARK    4  A    between atoms: N_16  and  C_17
REMARK    5  A    between atoms: C_21  and  C_22
REMARK                            x       y       z     vdW  Elec       q    Type
REMARK                         _______ _______ _______ _____ _____    ______ ____
ROOT
ATOM      1  C   UNL     1       3.320   5.949  19.390  0.00  0.00    +0.000 C 
ATOM      2  O   UNL     1       3.346   5.124  20.298  0.00  0.00    +0.000 OA
ATOM      3  N   UNL     1       2.307   6.911  19.282  0.00  0.00    +0.000 N 
ATOM      4  C   UNL     1       1.419   7.139  20.415  0.00  0.00    +0.000 C 
ATOM      5  C   UNL     1       1.443   8.618  20.795  0.00  0.00    +0.000 C 
ATOM      6  C   UNL     1       1.150   9.517  19.576  0.00  0.00    +0.000 C 
ATOM      7  C   UNL     1       1.989   9.157  18.346  0.00  0.00    +0.000 C 
ATOM      8  C   UNL     1       1.932   7.653  18.077  0.00  0.00    +0.000 C 
ATOM      9  C   UNL     1       1.240  11.012  19.936  0.00  0.00    +0.000 C 
ATOM     10  N   UNL     1      -0.189  11.083  19.874  0.00  0.00    +0.000 N 
ATOM     11  C   UNL     1      -0.343   9.773  19.305  0.00  0.00    +0.000 C 
ENDROOT
BRANCH   1  15
ATOM     12  C   UNL     1       6.546   5.797  16.535  0.00  0.00    +0.000 A 
ATOM     13  C   UNL     1       5.273   6.230  16.152  0.00  0.00    +0.000 A 
ATOM     14  C   UNL     1       4.234   6.314  17.089  0.00  0.00    +0.000 A 
ATOM     15  C   UNL     1       4.454   5.940  18.421  0.00  0.00    +0.000 A 
ATOM     16  C   UNL     1       5.709   5.435  18.771  0.00  0.00    +0.000 A 
ATOM     17  C   UNL     1       6.759   5.398  17.851  0.00  0.00    +0.000 A 
BRANCH  12  19
ATOM     18  C   UNL     1       7.164   4.898  14.438  0.00  0.00    +0.000 C 
ATOM     19  O   UNL     1       7.483   5.739  15.542  0.00  0.00    +0.000 OA
ENDBRANCH  12  19
ENDBRANCH   1  15
BRANCH  10  20
ATOM     20  C   UNL     1      -1.039  11.707  20.816  0.00  0.00    +0.000 A 
ATOM     21  C   UNL     1      -0.685  11.761  22.165  0.00  0.00    +0.000 A 
ATOM     22  C   UNL     1      -1.486  12.419  23.091  0.00  0.00    +0.000 A 
ATOM     23  C   UNL     1      -2.682  13.007  22.678  0.00  0.00    +0.000 A 
ATOM     24  C   UNL     1      -3.109  12.949  21.341  0.00  0.00    +0.000 A 
ATOM     25  C   UNL     1      -2.266  12.287  20.428  0.00  0.00    +0.000 A 
BRANCH  24  26
ATOM     26  C   UNL     1      -4.401  13.558  20.936  0.00  0.00    +0.000 A 
ATOM     27  C   UNL     1      -5.513  12.757  20.609  0.00  0.00    +0.000 A 
ATOM     28  C   UNL     1      -6.714  13.309  20.155  0.00  0.00    +0.000 A 
ATOM     29  C   UNL     1      -6.842  14.688  20.037  0.00  0.00    +0.000 A 
ATOM     30  C   UNL     1      -5.772  15.510  20.380  0.00  0.00    +0.000 A 
ATOM     31  C   UNL     1      -4.567  14.950  20.821  0.00  0.00    +0.000 A 
ENDBRANCH  24  26
ENDBRANCH  10  20
TORSDOF 4
ENDMDL
MODEL 9
REMARK VINA RESULT:      -7.2      3.852     10.452
REMARK  Name = 
REMARK  5 active torsions:
REMARK  status: ('A' for Active; 'I' for Inactive)
REMARK    1  A    between atoms: C_1  and  O_2
REMARK    2  A    between atoms: O_2  and  C_3
REMARK    3  A    between atoms: C_6  and  C_7
REMARK    4  A    between atoms: N_16  and  C_17
REMARK    5  A    between atoms: C_21  and  C_22
REMARK                            x       y       z     vdW  Elec       q    Type
REMARK                         _______ _______ _______ _____ _____    ______ ____
ROOT
ATOM      1  C   UNL     1       2.277   7.858  18.401  0.00  0.00    +0.000 C 
ATOM      2  O   UNL     1       2.864   8.006  17.334  0.00  0.00    +0.000 OA
ATOM      3  N   UNL     1       1.841   8.945  19.172  0.00  0.00    +0.000 N 
ATOM      4  C   UNL     1       1.819  10.275  18.576  0.00  0.00    +0.000 C 
ATOM      5  C   UNL     1       0.419  10.871  18.707  0.00  0.00    +0.000 C 
ATOM      6  C   UNL     1      -0.077  10.827  20.167  0.00  0.00    +0.000 C 
ATOM      7  C   UNL     1       0.100   9.454  20.823  0.00  0.00    +0.000 C 
ATOM      8  C   UNL     1       1.518   8.930  20.599  0.00  0.00    +0.000 C 
ATOM      9  C   UNL     1      -1.516  11.364  20.296  0.00  0.00    +0.000 C 
ATOM     10  N   UNL     1      -0.987  12.553  20.893  0.00  0.00    +0.000 N 
ATOM     11  C   UNL     1       0.343  12.030  21.029  0.00  0.00    +0.000 C 
ENDROOT
BRANCH   1  15
ATOM     12  C   UNL     1       1.550   3.810  19.689  0.00  0.00    +0.000 A 
ATOM     13  C   UNL     1       1.627   4.852  20.619  0.00  0.00    +0.000 A 
ATOM     14  C   UNL     1       1.827   6.173  20.196  0.00  0.00    +0.000 A 
ATOM     15  C   UNL     1       1.977   6.462  18.833  0.00  0.00    +0.000 A 
ATOM     16  C   UNL     1       1.975   5.401  17.925  0.00  0.00    +0.000 A 
ATOM     17  C   UNL     1       1.726   4.091  18.338  0.00  0.00    +0.000 A 
BRANCH  12  19
ATOM     18  C   UNL     1       1.762   2.385  21.564  0.00  0.00    +0.000 C 
ATOM     19  O   UNL     1       1.366   2.558  20.207  0.00  0.00    +0.000 OA
ENDBRANCH  12  19
ENDBRANCH   1  15
BRANCH  10  20
ATOM     20  C   UNL     1      -1.352  13.882  20.578  0.00  0.00    +0.000 A 
ATOM     21  C   UNL     1      -2.494  14.457  21.138  0.00  0.00    +0.000 A 
ATOM     22  C   UNL     1      -2.831  15.780  20.877  0.00  0.00    +0.000 A 
ATOM     23  C   UNL     1      -2.041  16.541  20.016  0.00  0.00    +0.000 A 
ATOM     24  C   UNL     1      -0.903  16.002  19.391  0.00  0.00    +0.000 A 
ATOM     25  C   UNL     1      -0.582  14.664  19.689  0.00  0.00    +0.000 A 
BRANCH  24  26
ATOM     26  C   UNL     1      -0.096  16.826  18.456  0.00  0.00    +0.000 A 
ATOM     27  C   UNL     1      -0.708  17.763  17.600  0.00  0.00    +0.000 A 
ATOM     28  C   UNL     1       0.025  18.495  16.660  0.00  0.00    +0.000 A 
ATOM     29  C   UNL     1       1.401  18.323  16.568  0.00  0.00    +0.000 A 
ATOM     30  C   UNL     1       2.040  17.426  17.420  0.00  0.00    +0.000 A 
ATOM     31  C   UNL     1       1.299  16.686  18.350  0.00  0.00    +0.000 A 
ENDBRANCH  24  26
ENDBRANCH  10  20
TORSDOF 4
ENDMDL
