MODEL 1
REMARK VINA RESULT:      -6.7      0.000      0.000
REMARK  Name = 
REMARK  4 active torsions:
REMARK  status: ('A' for Active; 'I' for Inactive)
REMARK    1  A    between atoms: N_11  and  C_12
REMARK    2  A    between atoms: C_12  and  C_13
REMARK    3  A    between atoms: C_13  and  C_14
REMARK    4  A    between atoms: C_14  and  N_15
REMARK                            x       y       z     vdW  Elec       q    Type
REMARK                         _______ _______ _______ _____ _____    ______ ____
ROOT
ATOM      1  C   UNL     1       8.347   7.089  18.705  0.00  0.00    +0.000 A 
ATOM      2  C   UNL     1       7.811   8.119  17.905  0.00  0.00    +0.000 A 
ATOM      3  C   UNL     1       6.636   7.925  17.169  0.00  0.00    +0.000 A 
ATOM      4  C   UNL     1       6.027   6.692  17.264  0.00  0.00    +0.000 A 
ATOM      5  C   UNL     1       6.540   5.679  18.093  0.00  0.00    +0.000 A 
ATOM      6  C   UNL     1       7.701   5.853  18.817  0.00  0.00    +0.000 A 
ATOM      7  C   UNL     1       5.790   4.418  17.689  0.00  0.00    +0.000 C 
ATOM      8  C   UNL     1       6.443   4.051  16.336  0.00  0.00    +0.000 C 
ATOM      9  C   UNL     1       5.879   5.162  15.398  0.00  0.00    +0.000 C 
ATOM     10  C   UNL     1       5.011   6.005  16.363  0.00  0.00    +0.000 C 
ATOM     11  N   UNL     1       4.455   4.972  17.276  0.00  0.00    +0.000 NA
ENDROOT
BRANCH  11  12
ATOM     12  C   UNL     1       3.560   3.960  16.691  0.00  0.00    +0.000 C 
BRANCH  12  13
ATOM     13  C   UNL     1       2.704   3.115  17.668  0.00  0.00    +0.000 C 
BRANCH  13  14
ATOM     14  C   UNL     1       1.447   3.935  18.038  0.00  0.00    +0.000 C 
BRANCH  14  15
ATOM     15  N   UNL     1       1.071   4.098  19.432  0.00  0.00    +0.000 NA
ATOM     16  C   UNL     1       1.788   5.092  20.232  0.00  0.00    +0.000 C 
ATOM     17  C   UNL     1       2.809   4.486  21.204  0.00  0.00    +0.000 C 
ATOM     18  O   UNL     1       2.194   3.496  22.038  0.00  0.00    +0.000 OA
ATOM     19  C   UNL     1       1.689   2.423  21.235  0.00  0.00    +0.000 C 
ATOM     20  C   UNL     1       0.674   2.909  20.187  0.00  0.00    +0.000 C 
ENDBRANCH  14  15
ENDBRANCH  13  14
ENDBRANCH  12  13
ENDBRANCH  11  12
TORSDOF 4
ENDMDL
MODEL 2
REMARK VINA RESULT:      -6.6      1.036      1.267
REMARK  Name = 
REMARK  4 active torsions:
REMARK  status: ('A' for Active; 'I' for Inactive)
REMARK    1  A    between atoms: N_11  and  C_12
REMARK    2  A    between atoms: C_12  and  C_13
REMARK    3  A    between atoms: C_13  and  C_14
REMARK    4  A    between atoms: C_14  and  N_15
REMARK                            x       y       z     vdW  Elec       q    Type
REMARK                         _______ _______ _______ _____ _____    ______ ____
ROOT
ATOM      1  C   UNL     1       8.425   7.232  18.612  0.00  0.00    +0.000 A 
ATOM      2  C   UNL     1       7.902   8.258  17.797  0.00  0.00    +0.000 A 
ATOM      3  C   UNL     1       6.645   8.129  17.194  0.00  0.00    +0.000 A 
ATOM      4  C   UNL     1       5.944   6.967  17.432  0.00  0.00    +0.000 A 
ATOM      5  C   UNL     1       6.450   5.962  18.276  0.00  0.00    +0.000 A 
ATOM      6  C   UNL     1       7.690   6.071  18.871  0.00  0.00    +0.000 A 
ATOM      7  C   UNL     1       5.556   4.755  18.036  0.00  0.00    +0.000 C 
ATOM      8  C   UNL     1       6.033   4.247  16.655  0.00  0.00    +0.000 C 
ATOM      9  C   UNL     1       5.474   5.347  15.700  0.00  0.00    +0.000 C 
ATOM     10  C   UNL     1       4.786   6.324  16.684  0.00  0.00    +0.000 C 
ATOM     11  N   UNL     1       4.239   5.405  17.716  0.00  0.00    +0.000 NA
ENDROOT
BRANCH  11  12
ATOM     12  C   UNL     1       3.204   4.447  17.292  0.00  0.00    +0.000 C 
BRANCH  12  13
ATOM     13  C   UNL     1       1.803   4.578  17.940  0.00  0.00    +0.000 C 
BRANCH  13  14
ATOM     14  C   UNL     1       1.215   3.158  18.104  0.00  0.00    +0.000 C 
BRANCH  14  15
ATOM     15  N   UNL     1       1.560   2.360  19.268  0.00  0.00    +0.000 NA
ATOM     16  C   UNL     1       1.080   2.800  20.580  0.00  0.00    +0.000 C 
ATOM     17  C   UNL     1       2.163   3.448  21.451  0.00  0.00    +0.000 C 
ATOM     18  O   UNL     1       3.299   2.584  21.580  0.00  0.00    +0.000 OA
ATOM     19  C   UNL     1       3.882   2.344  20.293  0.00  0.00    +0.000 C 
ATOM     20  C   UNL     1       2.878   1.724  19.307  0.00  0.00    +0.000 C 
ENDBRANCH  14  15
ENDBRANCH  13  14
ENDBRANCH  12  13
ENDBRANCH  11  12
TORSDOF 4
ENDMDL
MODEL 3
REMARK VINA RESULT:      -6.6      4.078      7.646
REMARK  Name = 
REMARK  4 active torsions:
REMARK  status: ('A' for Active; 'I' for Inactive)
REMARK    1  A    between atoms: N_11  and  C_12
REMARK    2  A    between atoms: C_12  and  C_13
REMARK    3  A    between atoms: C_13  and  C_14
REMARK    4  A    between atoms: C_14  and  N_15
REMARK                            x       y       z     vdW  Elec       q    Type
REMARK                         _______ _______ _______ _____ _____    ______ ____
ROOT
ATOM      1  C   UNL     1       3.291   3.210  17.648  0.00  0.00    +0.000 A 
ATOM      2  C   UNL     1       3.808   3.004  18.945  0.00  0.00    +0.000 A 
ATOM      3  C   UNL     1       4.877   3.770  19.425  0.00  0.00    +0.000 A 
ATOM      4  C   UNL     1       5.398   4.729  18.583  0.00  0.00    +0.000 A 
ATOM      5  C   UNL     1       4.856   4.959  17.305  0.00  0.00    +0.000 A 
ATOM      6  C   UNL     1       3.809   4.208  16.816  0.00  0.00    +0.000 A 
ATOM      7  C   UNL     1       5.872   5.844  16.598  0.00  0.00    +0.000 C 
ATOM      8  C   UNL     1       7.012   4.853  16.262  0.00  0.00    +0.000 C 
ATOM      9  C   UNL     1       7.631   4.591  17.669  0.00  0.00    +0.000 C 
ATOM     10  C   UNL     1       6.737   5.451  18.593  0.00  0.00    +0.000 C 
ATOM     11  N   UNL     1       6.443   6.634  17.742  0.00  0.00    +0.000 NA
ENDROOT
BRANCH  11  12
ATOM     12  C   UNL     1       7.577   7.488  17.353  0.00  0.00    +0.000 C 
BRANCH  12  13
ATOM     13  C   UNL     1       8.388   8.160  18.490  0.00  0.00    +0.000 C 
BRANCH  13  14
ATOM     14  C   UNL     1       8.452   9.677  18.201  0.00  0.00    +0.000 C 
BRANCH  14  15
ATOM     15  N   UNL     1       9.532  10.476  18.755  0.00  0.00    +0.000 NA
ATOM     16  C   UNL     1       9.386  10.993  20.117  0.00  0.00    +0.000 C 
ATOM     17  C   UNL     1       9.054  12.489  20.180  0.00  0.00    +0.000 C 
ATOM     18  O   UNL     1      10.010  13.256  19.436  0.00  0.00    +0.000 OA
ATOM     19  C   UNL     1       9.976  12.875  18.055  0.00  0.00    +0.000 C 
ATOM     20  C   UNL     1      10.259  11.376  17.859  0.00  0.00    +0.000 C 
ENDBRANCH  14  15
ENDBRANCH  13  14
ENDBRANCH  12  13
ENDBRANCH  11  12
TORSDOF 4
ENDMDL
MODEL 4
REMARK VINA RESULT:      -6.6      2.000      3.782
REMARK  Name = 
REMARK  4 active torsions:
REMARK  status: ('A' for Active; 'I' for Inactive)
REMARK    1  A    between atoms: N_11  and  C_12
REMARK    2  A    between atoms: C_12  and  C_13
REMARK    3  A    between atoms: C_13  and  C_14
REMARK    4  A    between atoms: C_14  and  N_15
REMARK                            x       y       z     vdW  Elec       q    Type
REMARK                         _______ _______ _______ _____ _____    ______ ____
ROOT
ATOM      1  C   UNL     1       7.456   4.248  12.332  0.00  0.00    +0.000 A 
ATOM      2  C   UNL     1       6.266   3.495  12.237  0.00  0.00    +0.000 A 
ATOM      3  C   UNL     1       5.283   3.572  13.231  0.00  0.00    +0.000 A 
ATOM      4  C   UNL     1       5.525   4.412  14.297  0.00  0.00    +0.000 A 
ATOM      5  C   UNL     1       6.694   5.191  14.370  0.00  0.00    +0.000 A 
ATOM      6  C   UNL     1       7.674   5.120  13.403  0.00  0.00    +0.000 A 
ATOM      7  C   UNL     1       6.728   5.720  15.797  0.00  0.00    +0.000 C 
ATOM      8  C   UNL     1       7.151   4.476  16.612  0.00  0.00    +0.000 C 
ATOM      9  C   UNL     1       5.862   3.600  16.549  0.00  0.00    +0.000 C 
ATOM     10  C   UNL     1       4.911   4.467  15.689  0.00  0.00    +0.000 C 
ATOM     11  N   UNL     1       5.265   5.846  16.115  0.00  0.00    +0.000 NA
ENDROOT
BRANCH  11  12
ATOM     12  C   UNL     1       5.002   6.211  17.517  0.00  0.00    +0.000 C 
BRANCH  12  13
ATOM     13  C   UNL     1       3.586   6.735  17.864  0.00  0.00    +0.000 C 
BRANCH  13  14
ATOM     14  C   UNL     1       2.967   5.786  18.916  0.00  0.00    +0.000 C 
BRANCH  14  15
ATOM     15  N   UNL     1       3.041   4.347  18.727  0.00  0.00    +0.000 NA
ATOM     16  C   UNL     1       1.995   3.695  17.936  0.00  0.00    +0.000 C 
ATOM     17  C   UNL     1       0.970   2.926  18.778  0.00  0.00    +0.000 C 
ATOM     18  O   UNL     1       1.621   1.989  19.646  0.00  0.00    +0.000 OA
ATOM     19  C   UNL     1       2.481   2.682  20.559  0.00  0.00    +0.000 C 
ATOM     20  C   UNL     1       3.540   3.527  19.832  0.00  0.00    +0.000 C 
ENDBRANCH  14  15
ENDBRANCH  13  14
ENDBRANCH  12  13
ENDBRANCH  11  12
TORSDOF 4
ENDMDL
MODEL 5
REMARK VINA RESULT:      -6.6      1.874      3.600
REMARK  Name = 
REMARK  4 active torsions:
REMARK  status: ('A' for Active; 'I' for Inactive)
REMARK    1  A    between atoms: N_11  and  C_12
REMARK    2  A    between atoms: C_12  and  C_13
REMARK    3  A    between atoms: C_13  and  C_14
REMARK    4  A    between atoms: C_14  and  N_15
REMARK                            x       y       z     vdW  Elec       q    Type
REMARK                         _______ _______ _______ _____ _____    ______ ____
ROOT
ATOM      1  C   UNL     1       6.182   3.802  12.408  0.00  0.00    +0.000 A 
ATOM      2  C   UNL     1       7.303   4.659  12.445  0.00  0.00    +0.000 A 
ATOM      3  C   UNL     1       7.764   5.190  13.654  0.00  0.00    +0.000 A 
ATOM      4  C   UNL     1       7.084   4.840  14.801  0.00  0.00    +0.000 A 
ATOM      5  C   UNL     1       5.991   3.956  14.767  0.00  0.00    +0.000 A 
ATOM      6  C   UNL     1       5.520   3.430  13.582  0.00  0.00    +0.000 A 
ATOM      7  C   UNL     1       5.345   4.070  16.140  0.00  0.00    +0.000 C 
ATOM      8  C   UNL     1       4.621   5.435  16.063  0.00  0.00    +0.000 C 
ATOM      9  C   UNL     1       5.819   6.434  16.107  0.00  0.00    +0.000 C 
ATOM     10  C   UNL     1       7.041   5.487  16.178  0.00  0.00    +0.000 C 
ATOM     11  N   UNL     1       6.530   4.369  17.014  0.00  0.00    +0.000 NA
ENDROOT
BRANCH  11  12
ATOM     12  C   UNL     1       6.164   4.677  18.407  0.00  0.00    +0.000 C 
BRANCH  12  13
ATOM     13  C   UNL     1       4.903   3.985  18.982  0.00  0.00    +0.000 C 
BRANCH  13  14
ATOM     14  C   UNL     1       4.011   5.071  19.626  0.00  0.00    +0.000 C 
BRANCH  14  15
ATOM     15  N   UNL     1       2.565   4.922  19.616  0.00  0.00    +0.000 NA
ATOM     16  C   UNL     1       1.900   4.518  20.856  0.00  0.00    +0.000 C 
ATOM     17  C   UNL     1       1.448   3.052  20.869  0.00  0.00    +0.000 C 
ATOM     18  O   UNL     1       0.634   2.759  19.727  0.00  0.00    +0.000 OA
ATOM     19  C   UNL     1       1.387   2.957  18.524  0.00  0.00    +0.000 C 
ATOM     20  C   UNL     1       1.931   4.391  18.409  0.00  0.00    +0.000 C 
ENDBRANCH  14  15
ENDBRANCH  13  14
ENDBRANCH  12  13
ENDBRANCH  11  12
TORSDOF 4
ENDMDL
MODEL 6
REMARK VINA RESULT:      -6.6      4.022      6.177
REMARK  Name = 
REMARK  4 active torsions:
REMARK  status: ('A' for Active; 'I' for Inactive)
REMARK    1  A    between atoms: N_11  and  C_12
REMARK    2  A    between atoms: C_12  and  C_13
REMARK    3  A    between atoms: C_13  and  C_14
REMARK    4  A    between atoms: C_14  and  N_15
REMARK                            x       y       z     vdW  Elec       q    Type
REMARK                         _______ _______ _______ _____ _____    ______ ____
ROOT
ATOM      1  C   UNL     1       1.264   2.220  19.855  0.00  0.00    +0.000 A 
ATOM      2  C   UNL     1       1.524   2.811  21.109  0.00  0.00    +0.000 A 
ATOM      3  C   UNL     1       1.936   4.145  21.206  0.00  0.00    +0.000 A 
ATOM      4  C   UNL     1       2.073   4.853  20.031  0.00  0.00    +0.000 A 
ATOM      5  C   UNL     1       1.776   4.274  18.784  0.00  0.00    +0.000 A 
ATOM      6  C   UNL     1       1.376   2.959  18.672  0.00  0.00    +0.000 A 
ATOM      7  C   UNL     1       2.336   5.243  17.754  0.00  0.00    +0.000 C 
ATOM      8  C   UNL     1       3.860   4.989  17.840  0.00  0.00    +0.000 C 
ATOM      9  C   UNL     1       4.212   5.633  19.217  0.00  0.00    +0.000 C 
ATOM     10  C   UNL     1       2.834   6.132  19.714  0.00  0.00    +0.000 C 
ATOM     11  N   UNL     1       2.177   6.563  18.453  0.00  0.00    +0.000 NA
ENDROOT
BRANCH  11  12
ATOM     12  C   UNL     1       2.785   7.687  17.721  0.00  0.00    +0.000 C 
BRANCH  12  13
ATOM     13  C   UNL     1       2.527   9.115  18.265  0.00  0.00    +0.000 C 
BRANCH  13  14
ATOM     14  C   UNL     1       1.041   9.463  18.015  0.00  0.00    +0.000 C 
BRANCH  14  15
ATOM     15  N   UNL     1       0.239  10.031  19.085  0.00  0.00    +0.000 NA
ATOM     16  C   UNL     1       0.149  11.489  19.186  0.00  0.00    +0.000 C 
ATOM     17  C   UNL     1       0.995  12.086  20.317  0.00  0.00    +0.000 C 
ATOM     18  O   UNL     1       0.687  11.462  21.570  0.00  0.00    +0.000 OA
ATOM     19  C   UNL     1       0.993  10.063  21.508  0.00  0.00    +0.000 C 
ATOM     20  C   UNL     1       0.229   9.350  20.380  0.00  0.00    +0.000 C 
ENDBRANCH  14  15
ENDBRANCH  13  14
ENDBRANCH  12  13
ENDBRANCH  11  12
TORSDOF 4
ENDMDL
MODEL 7
REMARK VINA RESULT:      -6.6      4.183      7.736
REMARK  Name = 
REMARK  4 active torsions:
REMARK  status: ('A' for Active; 'I' for Inactive)
REMARK    1  A    between atoms: N_11  and  C_12
REMARK    2  A    between atoms: C_12  and  C_13
REMARK    3  A    between atoms: C_13  and  C_14
REMARK    4  A    between atoms: C_14  and  N_15
REMARK                            x       y       z     vdW  Elec       q    Type
REMARK                         _______ _______ _______ _____ _____    ______ ____
ROOT
ATOM      1  C   UNL     1       3.422   3.309  17.395  0.00  0.00    +0.000 A 
ATOM      2  C   UNL     1       3.691   3.210  18.776  0.00  0.00    +0.000 A 
ATOM      3  C   UNL     1       4.674   4.004  19.377  0.00  0.00    +0.000 A 
ATOM      4  C   UNL     1       5.361   4.883  18.569  0.00  0.00    +0.000 A 
ATOM      5  C   UNL     1       5.065   5.008  17.199  0.00  0.00    +0.000 A 
ATOM      6  C   UNL     1       4.104   4.228  16.591  0.00  0.00    +0.000 A 
ATOM      7  C   UNL     1       6.213   5.821  16.618  0.00  0.00    +0.000 C 
ATOM      8  C   UNL     1       7.370   4.795  16.577  0.00  0.00    +0.000 C 
ATOM      9  C   UNL     1       7.719   4.648  18.090  0.00  0.00    +0.000 C 
ATOM     10  C   UNL     1       6.694   5.591  18.763  0.00  0.00    +0.000 C 
ATOM     11  N   UNL     1       6.587   6.700  17.778  0.00  0.00    +0.000 NA
ENDROOT
BRANCH  11  12
ATOM     12  C   UNL     1       7.794   7.507  17.532  0.00  0.00    +0.000 C 
BRANCH  12  13
ATOM     13  C   UNL     1       7.684   9.038  17.748  0.00  0.00    +0.000 C 
BRANCH  13  14
ATOM     14  C   UNL     1       8.829   9.473  18.690  0.00  0.00    +0.000 C 
BRANCH  14  15
ATOM     15  N   UNL     1       9.200  10.876  18.781  0.00  0.00    +0.000 NA
ATOM     16  C   UNL     1      10.196  11.393  17.841  0.00  0.00    +0.000 C 
ATOM     17  C   UNL     1      11.582  11.608  18.463  0.00  0.00    +0.000 C 
ATOM     18  O   UNL     1      11.495  12.434  19.631  0.00  0.00    +0.000 OA
ATOM     19  C   UNL     1      10.683  11.795  20.623  0.00  0.00    +0.000 C 
ATOM     20  C   UNL     1       9.267  11.490  20.107  0.00  0.00    +0.000 C 
ENDBRANCH  14  15
ENDBRANCH  13  14
ENDBRANCH  12  13
ENDBRANCH  11  12
TORSDOF 4
ENDMDL
MODEL 8
REMARK VINA RESULT:      -6.5      1.346      2.417
REMARK  Name = 
REMARK  4 active torsions:
REMARK  status: ('A' for Active; 'I' for Inactive)
REMARK    1  A    between atoms: N_11  and  C_12
REMARK    2  A    between atoms: C_12  and  C_13
REMARK    3  A    between atoms: C_13  and  C_14
REMARK    4  A    between atoms: C_14  and  N_15
REMARK                            x       y       z     vdW  Elec       q    Type
REMARK                         _______ _______ _______ _____ _____    ______ ____
ROOT
ATOM      1  C   UNL     1       7.855   7.835  17.691  0.00  0.00    +0.000 A 
ATOM      2  C   UNL     1       8.299   7.063  18.785  0.00  0.00    +0.000 A 
ATOM      3  C   UNL     1       7.637   5.886  19.153  0.00  0.00    +0.000 A 
ATOM      4  C   UNL     1       6.542   5.515  18.404  0.00  0.00    +0.000 A 
ATOM      5  C   UNL     1       6.123   6.265  17.290  0.00  0.00    +0.000 A 
ATOM      6  C   UNL     1       6.760   7.430  16.919  0.00  0.00    +0.000 A 
ATOM      7  C   UNL     1       4.746   5.720  16.940  0.00  0.00    +0.000 C 
ATOM      8  C   UNL     1       3.851   6.319  18.051  0.00  0.00    +0.000 C 
ATOM      9  C   UNL     1       4.295   5.492  19.297  0.00  0.00    +0.000 C 
ATOM     10  C   UNL     1       5.390   4.569  18.712  0.00  0.00    +0.000 C 
ATOM     11  N   UNL     1       4.870   4.280  17.350  0.00  0.00    +0.000 NA
ENDROOT
BRANCH  11  12
ATOM     12  C   UNL     1       3.604   3.535  17.252  0.00  0.00    +0.000 C 
BRANCH  12  13
ATOM     13  C   UNL     1       3.644   2.017  17.562  0.00  0.00    +0.000 C 
BRANCH  13  14
ATOM     14  C   UNL     1       3.724   1.843  19.096  0.00  0.00    +0.000 C 
BRANCH  14  15
ATOM     15  N   UNL     1       2.530   2.002  19.908  0.00  0.00    +0.000 NA
ATOM     16  C   UNL     1       1.273   2.337  19.236  0.00  0.00    +0.000 C 
ATOM     17  C   UNL     1       0.852   3.802  19.403  0.00  0.00    +0.000 C 
ATOM     18  O   UNL     1       0.810   4.167  20.789  0.00  0.00    +0.000 OA
ATOM     19  C   UNL     1       2.114   4.035  21.369  0.00  0.00    +0.000 C 
ATOM     20  C   UNL     1       2.668   2.607  21.234  0.00  0.00    +0.000 C 
ENDBRANCH  14  15
ENDBRANCH  13  14
ENDBRANCH  12  13
ENDBRANCH  11  12
TORSDOF 4
ENDMDL
MODEL 9
REMARK VINA RESULT:      -6.5      0.977      1.944
REMARK  Name = 
REMARK  4 active torsions:
REMARK  status: ('A' for Active; 'I' for Inactive)
REMARK    1  A    between atoms: N_11  and  C_12
REMARK    2  A    between atoms: C_12  and  C_13
REMARK    3  A    between atoms: C_13  and  C_14
REMARK    4  A    between atoms: C_14  and  N_15
REMARK                            x       y       z     vdW  Elec       q    Type
REMARK                         _______ _______ _______ _____ _____    ______ ____
ROOT
ATOM      1  C   UNL     1       8.029   7.984  17.922  0.00  0.00    +0.000 A 
ATOM      2  C   UNL     1       8.382   7.086  18.952  0.00  0.00    +0.000 A 
ATOM      3  C   UNL     1       7.671   5.897  19.146  0.00  0.00    +0.000 A 
ATOM      4  C   UNL     1       6.621   5.640  18.291  0.00  0.00    +0.000 A 
ATOM      5  C   UNL     1       6.294   6.517  17.241  0.00  0.00    +0.000 A 
ATOM      6  C   UNL     1       6.980   7.696  17.042  0.00  0.00    +0.000 A 
ATOM      7  C   UNL     1       4.932   6.053  16.746  0.00  0.00    +0.000 C 
ATOM      8  C   UNL     1       3.978   6.553  17.856  0.00  0.00    +0.000 C 
ATOM      9  C   UNL     1       4.319   5.586  19.030  0.00  0.00    +0.000 C 
ATOM     10  C   UNL     1       5.431   4.699  18.420  0.00  0.00    +0.000 C 
ATOM     11  N   UNL     1       4.997   4.574  17.004  0.00  0.00    +0.000 NA
ENDROOT
BRANCH  11  12
ATOM     12  C   UNL     1       3.725   3.880  16.743  0.00  0.00    +0.000 C 
BRANCH  12  13
ATOM     13  C   UNL     1       3.302   2.769  17.736  0.00  0.00    +0.000 C 
BRANCH  13  14
ATOM     14  C   UNL     1       1.800   2.953  18.051  0.00  0.00    +0.000 C 
BRANCH  14  15
ATOM     15  N   UNL     1       1.328   2.851  19.422  0.00  0.00    +0.000 NA
ATOM     16  C   UNL     1       0.913   4.076  20.107  0.00  0.00    +0.000 C 
ATOM     17  C   UNL     1       1.932   4.588  21.132  0.00  0.00    +0.000 C 
ATOM     18  O   UNL     1       2.272   3.561  22.072  0.00  0.00    +0.000 OA
ATOM     19  C   UNL     1       2.879   2.456  21.391  0.00  0.00    +0.000 C 
ATOM     20  C   UNL     1       1.964   1.871  20.303  0.00  0.00    +0.000 C 
ENDBRANCH  14  15
ENDBRANCH  13  14
ENDBRANCH  12  13
ENDBRANCH  11  12
TORSDOF 4
ENDMDL
