MODEL 1
REMARK VINA RESULT:      -8.3      0.000      0.000
REMARK  Name = 
REMARK  7 active torsions:
REMARK  status: ('A' for Active; 'I' for Inactive)
REMARK    1  A    between atoms: C_2  and  C_10
REMARK    2  A    between atoms: N_3  and  C_4
REMARK    3  A    between atoms: C_13  and  C_14
REMARK    4  A    between atoms: C_14  and  C_15
REMARK    5  A    between atoms: C_15  and  N_16
REMARK    6  A    between atoms: N_16  and  C_17
REMARK    7  A    between atoms: C_17  and  C_18
REMARK                            x       y       z     vdW  Elec       q    Type
REMARK                         _______ _______ _______ _____ _____    ______ ____
ROOT
ATOM      1  C   UNL     1       1.740   8.422  19.197  0.00  0.00    +0.000 A 
ATOM      2  C   UNL     1       2.297   8.563  17.922  0.00  0.00    +0.000 A 
ATOM      3  C   UNL     1       3.203   7.621  17.456  0.00  0.00    +0.000 A 
ATOM      4  C   UNL     1       3.593   6.533  18.256  0.00  0.00    +0.000 A 
ATOM      5  C   UNL     1       2.953   6.351  19.492  0.00  0.00    +0.000 A 
ATOM      6  C   UNL     1       2.034   7.293  19.967  0.00  0.00    +0.000 A 
ENDROOT
BRANCH   1   8
ATOM      7  O   UNL     1       0.091  10.001  18.821  0.00  0.00    +0.000 OA
ATOM      8  C   UNL     1       0.836   9.500  19.659  0.00  0.00    +0.000 C 
ATOM      9  N   UNL     1       0.980   9.904  20.974  0.00  0.00    +0.000 N 
ATOM     10  H   UNL     1       1.788   9.569  21.484  0.00  0.00    +0.000 HD
BRANCH   9  11
ATOM     11  C   UNL     1       0.181  10.870  21.625  0.00  0.00    +0.000 A 
ATOM     12  C   UNL     1       0.278  12.239  21.351  0.00  0.00    +0.000 A 
ATOM     13  C   UNL     1      -0.540  13.159  22.011  0.00  0.00    +0.000 A 
ATOM     14  C   UNL     1      -1.465  12.717  22.946  0.00  0.00    +0.000 A 
ATOM     15  C   UNL     1      -1.578  11.358  23.226  0.00  0.00    +0.000 A 
ATOM     16  C   UNL     1      -0.760  10.435  22.564  0.00  0.00    +0.000 A 
ENDBRANCH   9  11
ENDBRANCH   1   8
BRANCH   4  17
ATOM     17  C   UNL     1       4.865   5.782  17.881  0.00  0.00    +0.000 C 
ATOM     18  C   UNL     1       5.188   5.341  16.466  0.00  0.00    +0.000 C 
ATOM     19  C   UNL     1       5.824   6.586  16.994  0.00  0.00    +0.000 C 
BRANCH  17  20
ATOM     20  C   UNL     1       5.248   4.868  19.048  0.00  0.00    +0.000 C 
BRANCH  20  21
ATOM     21  N   UNL     1       5.429   3.440  18.878  0.00  0.00    +0.000 NA
ATOM     22  H   UNL     1       6.410   3.184  18.855  0.00  0.00    +0.000 HD
BRANCH  21  23
ATOM     23  C   UNL     1       4.681   2.661  19.842  0.00  0.00    +0.000 C 
BRANCH  23  24
ATOM     24  C   UNL     1       3.202   2.767  19.628  0.00  0.00    +0.000 A 
ATOM     25  C   UNL     1       2.327   3.060  20.673  0.00  0.00    +0.000 A 
ATOM     26  C   UNL     1       0.956   3.064  20.429  0.00  0.00    +0.000 A 
ATOM     27  C   UNL     1       0.518   2.784  19.146  0.00  0.00    +0.000 A 
ATOM     28  N   UNL     1       1.336   2.518  18.106  0.00  0.00    +0.000 NA
ATOM     29  C   UNL     1       2.660   2.518  18.372  0.00  0.00    +0.000 A 
ENDBRANCH  23  24
ENDBRANCH  21  23
ENDBRANCH  20  21
ENDBRANCH  17  20
ENDBRANCH   4  17
TORSDOF 7
ENDMDL
MODEL 2
REMARK VINA RESULT:      -8.3      2.244      4.170
REMARK  Name = 
REMARK  7 active torsions:
REMARK  status: ('A' for Active; 'I' for Inactive)
REMARK    1  A    between atoms: C_2  and  C_10
REMARK    2  A    between atoms: N_3  and  C_4
REMARK    3  A    between atoms: C_13  and  C_14
REMARK    4  A    between atoms: C_14  and  C_15
REMARK    5  A    between atoms: C_15  and  N_16
REMARK    6  A    between atoms: N_16  and  C_17
REMARK    7  A    between atoms: C_17  and  C_18
REMARK                            x       y       z     vdW  Elec       q    Type
REMARK                         _______ _______ _______ _____ _____    ______ ____
ROOT
ATOM      1  C   UNL     1       1.823   7.592  18.949  0.00  0.00    +0.000 A 
ATOM      2  C   UNL     1       1.996   6.652  17.929  0.00  0.00    +0.000 A 
ATOM      3  C   UNL     1       2.176   5.313  18.247  0.00  0.00    +0.000 A 
ATOM      4  C   UNL     1       2.212   4.884  19.586  0.00  0.00    +0.000 A 
ATOM      5  C   UNL     1       1.939   5.823  20.593  0.00  0.00    +0.000 A 
ATOM      6  C   UNL     1       1.751   7.174  20.281  0.00  0.00    +0.000 A 
ENDROOT
BRANCH   1   8
ATOM      7  O   UNL     1       2.246   9.334  17.486  0.00  0.00    +0.000 OA
ATOM      8  C   UNL     1       1.709   9.012  18.542  0.00  0.00    +0.000 C 
ATOM      9  N   UNL     1       1.083   9.861  19.437  0.00  0.00    +0.000 N 
ATOM     10  H   UNL     1       0.895   9.509  20.368  0.00  0.00    +0.000 HD
BRANCH   9  11
ATOM     11  C   UNL     1       0.819  11.232  19.216  0.00  0.00    +0.000 A 
ATOM     12  C   UNL     1       1.746  12.236  19.518  0.00  0.00    +0.000 A 
ATOM     13  C   UNL     1       1.449  13.578  19.272  0.00  0.00    +0.000 A 
ATOM     14  C   UNL     1       0.224  13.927  18.720  0.00  0.00    +0.000 A 
ATOM     15  C   UNL     1      -0.707  12.939  18.411  0.00  0.00    +0.000 A 
ATOM     16  C   UNL     1      -0.409  11.593  18.653  0.00  0.00    +0.000 A 
ENDBRANCH   9  11
ENDBRANCH   1   8
BRANCH   4  17
ATOM     17  C   UNL     1       2.813   3.518  19.890  0.00  0.00    +0.000 C 
ATOM     18  C   UNL     1       2.712   2.844  21.245  0.00  0.00    +0.000 C 
ATOM     19  C   UNL     1       1.772   2.425  20.162  0.00  0.00    +0.000 C 
BRANCH  17  20
ATOM     20  C   UNL     1       4.105   3.369  19.083  0.00  0.00    +0.000 C 
BRANCH  20  21
ATOM     21  N   UNL     1       5.383   3.833  19.585  0.00  0.00    +0.000 NA
ATOM     22  H   UNL     1       6.124   3.164  19.408  0.00  0.00    +0.000 HD
BRANCH  21  23
ATOM     23  C   UNL     1       5.721   5.163  19.119  0.00  0.00    +0.000 C 
BRANCH  23  24
ATOM     24  C   UNL     1       6.130   5.168  17.679  0.00  0.00    +0.000 A 
ATOM     25  C   UNL     1       5.294   5.660  16.678  0.00  0.00    +0.000 A 
ATOM     26  C   UNL     1       5.696   5.563  15.348  0.00  0.00    +0.000 A 
ATOM     27  C   UNL     1       6.924   4.984  15.075  0.00  0.00    +0.000 A 
ATOM     28  N   UNL     1       7.768   4.517  16.018  0.00  0.00    +0.000 NA
ATOM     29  C   UNL     1       7.352   4.623  17.299  0.00  0.00    +0.000 A 
ENDBRANCH  23  24
ENDBRANCH  21  23
ENDBRANCH  20  21
ENDBRANCH  17  20
ENDBRANCH   4  17
TORSDOF 7
ENDMDL
MODEL 3
REMARK VINA RESULT:      -8.2      1.416      1.642
REMARK  Name = 
REMARK  7 active torsions:
REMARK  status: ('A' for Active; 'I' for Inactive)
REMARK    1  A    between atoms: C_2  and  C_10
REMARK    2  A    between atoms: N_3  and  C_4
REMARK    3  A    between atoms: C_13  and  C_14
REMARK    4  A    between atoms: C_14  and  C_15
REMARK    5  A    between atoms: C_15  and  N_16
REMARK    6  A    between atoms: N_16  and  C_17
REMARK    7  A    between atoms: C_17  and  C_18
REMARK                            x       y       z     vdW  Elec       q    Type
REMARK                         _______ _______ _______ _____ _____    ______ ____
ROOT
ATOM      1  C   UNL     1       1.831   8.014  19.960  0.00  0.00    +0.000 A 
ATOM      2  C   UNL     1       2.073   8.464  18.659  0.00  0.00    +0.000 A 
ATOM      3  C   UNL     1       2.744   7.649  17.759  0.00  0.00    +0.000 A 
ATOM      4  C   UNL     1       3.211   6.379  18.140  0.00  0.00    +0.000 A 
ATOM      5  C   UNL     1       2.876   5.902  19.417  0.00  0.00    +0.000 A 
ATOM      6  C   UNL     1       2.195   6.716  20.329  0.00  0.00    +0.000 A 
ENDROOT
BRANCH   1   8
ATOM      7  O   UNL     1       1.569   8.968  22.052  0.00  0.00    +0.000 OA
ATOM      8  C   UNL     1       1.174   8.962  20.889  0.00  0.00    +0.000 C 
ATOM      9  N   UNL     1       0.113   9.689  20.379  0.00  0.00    +0.000 N 
ATOM     10  H   UNL     1      -0.254   9.416  19.476  0.00  0.00    +0.000 HD
BRANCH   9  11
ATOM     11  C   UNL     1      -0.607  10.684  21.078  0.00  0.00    +0.000 A 
ATOM     12  C   UNL     1      -1.107  11.832  20.452  0.00  0.00    +0.000 A 
ATOM     13  C   UNL     1      -1.824  12.785  21.178  0.00  0.00    +0.000 A 
ATOM     14  C   UNL     1      -2.052  12.596  22.535  0.00  0.00    +0.000 A 
ATOM     15  C   UNL     1      -1.565  11.457  23.170  0.00  0.00    +0.000 A 
ATOM     16  C   UNL     1      -0.848  10.499  22.443  0.00  0.00    +0.000 A 
ENDBRANCH   9  11
ENDBRANCH   1   8
BRANCH   4  17
ATOM     17  C   UNL     1       4.277   5.713  17.278  0.00  0.00    +0.000 C 
ATOM     18  C   UNL     1       5.038   6.439  16.184  0.00  0.00    +0.000 C 
ATOM     19  C   UNL     1       5.694   6.251  17.514  0.00  0.00    +0.000 C 
BRANCH  17  20
ATOM     20  C   UNL     1       3.877   4.252  17.059  0.00  0.00    +0.000 C 
BRANCH  20  21
ATOM     21  N   UNL     1       4.541   3.162  17.746  0.00  0.00    +0.000 NA
ATOM     22  H   UNL     1       5.056   3.486  18.558  0.00  0.00    +0.000 HD
BRANCH  21  23
ATOM     23  C   UNL     1       3.645   2.070  18.063  0.00  0.00    +0.000 C 
BRANCH  23  24
ATOM     24  C   UNL     1       2.850   2.336  19.304  0.00  0.00    +0.000 A 
ATOM     25  C   UNL     1       1.485   2.618  19.258  0.00  0.00    +0.000 A 
ATOM     26  C   UNL     1       0.817   2.937  20.437  0.00  0.00    +0.000 A 
ATOM     27  C   UNL     1       1.541   2.952  21.617  0.00  0.00    +0.000 A 
ATOM     28  N   UNL     1       2.856   2.664  21.703  0.00  0.00    +0.000 NA
ATOM     29  C   UNL     1       3.479   2.359  20.544  0.00  0.00    +0.000 A 
ENDBRANCH  23  24
ENDBRANCH  21  23
ENDBRANCH  20  21
ENDBRANCH  17  20
ENDBRANCH   4  17
TORSDOF 7
ENDMDL
MODEL 4
REMARK VINA RESULT:      -8.2      1.639      3.766
REMARK  Name = 
REMARK  7 active torsions:
REMARK  status: ('A' for Active; 'I' for Inactive)
REMARK    1  A    between atoms: C_2  and  C_10
REMARK    2  A    between atoms: N_3  and  C_4
REMARK    3  A    between atoms: C_13  and  C_14
REMARK    4  A    between atoms: C_14  and  C_15
REMARK    5  A    between atoms: C_15  and  N_16
REMARK    6  A    between atoms: N_16  and  C_17
REMARK    7  A    between atoms: C_17  and  C_18
REMARK                            x       y       z     vdW  Elec       q    Type
REMARK                         _______ _______ _______ _____ _____    ______ ____
ROOT
ATOM      1  C   UNL     1       1.634   8.350  19.437  0.00  0.00    +0.000 A 
ATOM      2  C   UNL     1       1.501   7.477  20.521  0.00  0.00    +0.000 A 
ATOM      3  C   UNL     1       1.942   6.166  20.410  0.00  0.00    +0.000 A 
ATOM      4  C   UNL     1       2.500   5.688  19.211  0.00  0.00    +0.000 A 
ATOM      5  C   UNL     1       2.716   6.600  18.167  0.00  0.00    +0.000 A 
ATOM      6  C   UNL     1       2.279   7.925  18.273  0.00  0.00    +0.000 A 
ENDROOT
BRANCH   1   8
ATOM      7  O   UNL     1       1.582  10.606  18.923  0.00  0.00    +0.000 OA
ATOM      8  C   UNL     1       1.078   9.713  19.600  0.00  0.00    +0.000 C 
ATOM      9  N   UNL     1       0.101   9.869  20.566  0.00  0.00    +0.000 N 
ATOM     10  H   UNL     1      -0.054   9.101  21.208  0.00  0.00    +0.000 HD
BRANCH   9  11
ATOM     11  C   UNL     1      -0.597  11.067  20.838  0.00  0.00    +0.000 A 
ATOM     12  C   UNL     1      -0.403  11.804  22.013  0.00  0.00    +0.000 A 
ATOM     13  C   UNL     1      -1.105  12.990  22.236  0.00  0.00    +0.000 A 
ATOM     14  C   UNL     1      -2.006  13.451  21.285  0.00  0.00    +0.000 A 
ATOM     15  C   UNL     1      -2.206  12.732  20.109  0.00  0.00    +0.000 A 
ATOM     16  C   UNL     1      -1.500  11.544  19.883  0.00  0.00    +0.000 A 
ENDBRANCH   9  11
ENDBRANCH   1   8
BRANCH   4  17
ATOM     17  C   UNL     1       2.578   4.180  19.003  0.00  0.00    +0.000 C 
ATOM     18  C   UNL     1       1.359   3.277  18.975  0.00  0.00    +0.000 C 
ATOM     19  C   UNL     1       1.969   3.702  17.679  0.00  0.00    +0.000 C 
BRANCH  17  20
ATOM     20  C   UNL     1       3.865   3.669  19.655  0.00  0.00    +0.000 C 
BRANCH  20  21
ATOM     21  N   UNL     1       5.063   3.400  18.884  0.00  0.00    +0.000 NA
ATOM     22  H   UNL     1       4.867   2.832  18.067  0.00  0.00    +0.000 HD
BRANCH  21  23
ATOM     23  C   UNL     1       5.798   4.603  18.552  0.00  0.00    +0.000 C 
BRANCH  23  24
ATOM     24  C   UNL     1       6.064   4.713  17.082  0.00  0.00    +0.000 A 
ATOM     25  C   UNL     1       5.184   4.193  16.134  0.00  0.00    +0.000 A 
ATOM     26  C   UNL     1       5.524   4.254  14.785  0.00  0.00    +0.000 A 
ATOM     27  C   UNL     1       6.730   4.841  14.440  0.00  0.00    +0.000 A 
ATOM     28  N   UNL     1       7.596   5.373  15.327  0.00  0.00    +0.000 NA
ATOM     29  C   UNL     1       7.240   5.299  16.628  0.00  0.00    +0.000 A 
ENDBRANCH  23  24
ENDBRANCH  21  23
ENDBRANCH  20  21
ENDBRANCH  17  20
ENDBRANCH   4  17
TORSDOF 7
ENDMDL
MODEL 5
REMARK VINA RESULT:      -8.2      1.751      2.222
REMARK  Name = 
REMARK  7 active torsions:
REMARK  status: ('A' for Active; 'I' for Inactive)
REMARK    1  A    between atoms: C_2  and  C_10
REMARK    2  A    between atoms: N_3  and  C_4
REMARK    3  A    between atoms: C_13  and  C_14
REMARK    4  A    between atoms: C_14  and  C_15
REMARK    5  A    between atoms: C_15  and  N_16
REMARK    6  A    between atoms: N_16  and  C_17
REMARK    7  A    between atoms: C_17  and  C_18
REMARK                            x       y       z     vdW  Elec       q    Type
REMARK                         _______ _______ _______ _____ _____    ______ ____
ROOT
ATOM      1  C   UNL     1       2.541   7.996  18.384  0.00  0.00    +0.000 A 
ATOM      2  C   UNL     1       3.455   7.858  17.335  0.00  0.00    +0.000 A 
ATOM      3  C   UNL     1       4.337   6.787  17.323  0.00  0.00    +0.000 A 
ATOM      4  C   UNL     1       4.345   5.843  18.366  0.00  0.00    +0.000 A 
ATOM      5  C   UNL     1       3.358   5.940  19.359  0.00  0.00    +0.000 A 
ATOM      6  C   UNL     1       2.462   7.014  19.375  0.00  0.00    +0.000 A 
ENDROOT
BRANCH   1   8
ATOM      7  O   UNL     1       1.958  10.077  17.556  0.00  0.00    +0.000 OA
ATOM      8  C   UNL     1       1.679   9.200  18.371  0.00  0.00    +0.000 C 
ATOM      9  N   UNL     1       0.694   9.264  19.339  0.00  0.00    +0.000 N 
ATOM     10  H   UNL     1       0.726   8.584  20.089  0.00  0.00    +0.000 HD
BRANCH   9  11
ATOM     11  C   UNL     1      -0.267  10.293  19.463  0.00  0.00    +0.000 A 
ATOM     12  C   UNL     1      -0.197  11.275  20.457  0.00  0.00    +0.000 A 
ATOM     13  C   UNL     1      -1.163  12.281  20.535  0.00  0.00    +0.000 A 
ATOM     14  C   UNL     1      -2.204  12.315  19.617  0.00  0.00    +0.000 A 
ATOM     15  C   UNL     1      -2.284  11.348  18.619  0.00  0.00    +0.000 A 
ATOM     16  C   UNL     1      -1.315  10.340  18.538  0.00  0.00    +0.000 A 
ENDBRANCH   9  11
ENDBRANCH   1   8
BRANCH   4  17
ATOM     17  C   UNL     1       5.571   4.952  18.522  0.00  0.00    +0.000 C 
ATOM     18  C   UNL     1       6.873   5.186  17.779  0.00  0.00    +0.000 C 
ATOM     19  C   UNL     1       6.762   5.644  19.197  0.00  0.00    +0.000 C 
BRANCH  17  20
ATOM     20  C   UNL     1       5.097   3.515  18.752  0.00  0.00    +0.000 C 
BRANCH  20  21
ATOM     21  N   UNL     1       4.392   2.766  17.731  0.00  0.00    +0.000 NA
ATOM     22  H   UNL     1       5.024   2.402  17.026  0.00  0.00    +0.000 HD
BRANCH  21  23
ATOM     23  C   UNL     1       3.534   1.737  18.282  0.00  0.00    +0.000 C 
BRANCH  23  24
ATOM     24  C   UNL     1       2.734   2.235  19.446  0.00  0.00    +0.000 A 
ATOM     25  C   UNL     1       1.476   2.813  19.282  0.00  0.00    +0.000 A 
ATOM     26  C   UNL     1       0.815   3.331  20.393  0.00  0.00    +0.000 A 
ATOM     27  C   UNL     1       1.439   3.241  21.626  0.00  0.00    +0.000 A 
ATOM     28  N   UNL     1       2.645   2.670  21.827  0.00  0.00    +0.000 NA
ATOM     29  C   UNL     1       3.263   2.177  20.731  0.00  0.00    +0.000 A 
ENDBRANCH  23  24
ENDBRANCH  21  23
ENDBRANCH  20  21
ENDBRANCH  17  20
ENDBRANCH   4  17
TORSDOF 7
ENDMDL
MODEL 6
REMARK VINA RESULT:      -8.2      0.661      1.344
REMARK  Name = 
REMARK  7 active torsions:
REMARK  status: ('A' for Active; 'I' for Inactive)
REMARK    1  A    between atoms: C_2  and  C_10
REMARK    2  A    between atoms: N_3  and  C_4
REMARK    3  A    between atoms: C_13  and  C_14
REMARK    4  A    between atoms: C_14  and  C_15
REMARK    5  A    between atoms: C_15  and  N_16
REMARK    6  A    between atoms: N_16  and  C_17
REMARK    7  A    between atoms: C_17  and  C_18
REMARK                            x       y       z     vdW  Elec       q    Type
REMARK                         _______ _______ _______ _____ _____    ______ ____
ROOT
ATOM      1  C   UNL     1       1.591   8.480  19.295  0.00  0.00    +0.000 A 
ATOM      2  C   UNL     1       2.108   8.582  18.000  0.00  0.00    +0.000 A 
ATOM      3  C   UNL     1       3.005   7.631  17.538  0.00  0.00    +0.000 A 
ATOM      4  C   UNL     1       3.428   6.571  18.361  0.00  0.00    +0.000 A 
ATOM      5  C   UNL     1       2.826   6.427  19.621  0.00  0.00    +0.000 A 
ATOM      6  C   UNL     1       1.916   7.379  20.092  0.00  0.00    +0.000 A 
ENDROOT
BRANCH   1   8
ATOM      7  O   UNL     1      -0.116   9.999  18.933  0.00  0.00    +0.000 OA
ATOM      8  C   UNL     1       0.694   9.567  19.749  0.00  0.00    +0.000 C 
ATOM      9  N   UNL     1       0.915  10.057  21.023  0.00  0.00    +0.000 N 
ATOM     10  H   UNL     1       1.762   9.770  21.499  0.00  0.00    +0.000 HD
BRANCH   9  11
ATOM     11  C   UNL     1       0.137  11.047  21.666  0.00  0.00    +0.000 A 
ATOM     12  C   UNL     1      -0.856  10.737  22.602  0.00  0.00    +0.000 A 
ATOM     13  C   UNL     1      -1.593  11.748  23.222  0.00  0.00    +0.000 A 
ATOM     14  C   UNL     1      -1.340  13.078  22.915  0.00  0.00    +0.000 A 
ATOM     15  C   UNL     1      -0.352  13.403  21.989  0.00  0.00    +0.000 A 
ATOM     16  C   UNL     1       0.390  12.390  21.369  0.00  0.00    +0.000 A 
ENDBRANCH   9  11
ENDBRANCH   1   8
BRANCH   4  17
ATOM     17  C   UNL     1       4.693   5.816  17.972  0.00  0.00    +0.000 C 
ATOM     18  C   UNL     1       5.011   5.396  16.550  0.00  0.00    +0.000 C 
ATOM     19  C   UNL     1       5.658   6.627  17.098  0.00  0.00    +0.000 C 
BRANCH  17  20
ATOM     20  C   UNL     1       5.068   4.879  19.123  0.00  0.00    +0.000 C 
BRANCH  20  21
ATOM     21  N   UNL     1       5.385   3.482  18.904  0.00  0.00    +0.000 NA
ATOM     22  H   UNL     1       6.386   3.324  18.863  0.00  0.00    +0.000 HD
BRANCH  21  23
ATOM     23  C   UNL     1       4.729   2.603  19.850  0.00  0.00    +0.000 C 
BRANCH  23  24
ATOM     24  C   UNL     1       3.239   2.755  19.821  0.00  0.00    +0.000 A 
ATOM     25  C   UNL     1       2.521   2.744  18.626  0.00  0.00    +0.000 A 
ATOM     26  C   UNL     1       1.148   2.972  18.656  0.00  0.00    +0.000 A 
ATOM     27  C   UNL     1       0.548   3.193  19.884  0.00  0.00    +0.000 A 
ATOM     28  N   UNL     1       1.206   3.189  21.062  0.00  0.00    +0.000 NA
ATOM     29  C   UNL     1       2.537   2.967  21.002  0.00  0.00    +0.000 A 
ENDBRANCH  23  24
ENDBRANCH  21  23
ENDBRANCH  20  21
ENDBRANCH  17  20
ENDBRANCH   4  17
TORSDOF 7
ENDMDL
MODEL 7
REMARK VINA RESULT:      -8.1      1.358      1.713
REMARK  Name = 
REMARK  7 active torsions:
REMARK  status: ('A' for Active; 'I' for Inactive)
REMARK    1  A    between atoms: C_2  and  C_10
REMARK    2  A    between atoms: N_3  and  C_4
REMARK    3  A    between atoms: C_13  and  C_14
REMARK    4  A    between atoms: C_14  and  C_15
REMARK    5  A    between atoms: C_15  and  N_16
REMARK    6  A    between atoms: N_16  and  C_17
REMARK    7  A    between atoms: C_17  and  C_18
REMARK                            x       y       z     vdW  Elec       q    Type
REMARK                         _______ _______ _______ _____ _____    ______ ____
ROOT
ATOM      1  C   UNL     1       2.103   8.318  18.846  0.00  0.00    +0.000 A 
ATOM      2  C   UNL     1       2.779   8.329  17.623  0.00  0.00    +0.000 A 
ATOM      3  C   UNL     1       3.628   7.282  17.293  0.00  0.00    +0.000 A 
ATOM      4  C   UNL     1       3.843   6.214  18.183  0.00  0.00    +0.000 A 
ATOM      5  C   UNL     1       3.084   6.169  19.363  0.00  0.00    +0.000 A 
ATOM      6  C   UNL     1       2.222   7.217  19.700  0.00  0.00    +0.000 A 
ENDROOT
BRANCH   1   8
ATOM      7  O   UNL     1       1.336  10.453  18.393  0.00  0.00    +0.000 OA
ATOM      8  C   UNL     1       1.270   9.500  19.165  0.00  0.00    +0.000 C 
ATOM      9  N   UNL     1       0.562   9.453  20.352  0.00  0.00    +0.000 N 
ATOM     10  H   UNL     1       0.781   8.708  21.002  0.00  0.00    +0.000 HD
BRANCH   9  11
ATOM     11  C   UNL     1      -0.333  10.446  20.810  0.00  0.00    +0.000 A 
ATOM     12  C   UNL     1      -1.236  11.097  19.962  0.00  0.00    +0.000 A 
ATOM     13  C   UNL     1      -2.112  12.064  20.459  0.00  0.00    +0.000 A 
ATOM     14  C   UNL     1      -2.096  12.384  21.810  0.00  0.00    +0.000 A 
ATOM     15  C   UNL     1      -1.208  11.741  22.668  0.00  0.00    +0.000 A 
ATOM     16  C   UNL     1      -0.330  10.770  22.171  0.00  0.00    +0.000 A 
ENDBRANCH   9  11
ENDBRANCH   1   8
BRANCH   4  17
ATOM     17  C   UNL     1       5.066   5.331  17.968  0.00  0.00    +0.000 C 
ATOM     18  C   UNL     1       6.486   5.864  17.940  0.00  0.00    +0.000 C 
ATOM     19  C   UNL     1       5.982   5.226  19.194  0.00  0.00    +0.000 C 
BRANCH  17  20
ATOM     20  C   UNL     1       4.681   4.198  17.014  0.00  0.00    +0.000 C 
BRANCH  20  21
ATOM     21  N   UNL     1       3.419   3.492  17.129  0.00  0.00    +0.000 NA
ATOM     22  H   UNL     1       3.026   3.273  16.220  0.00  0.00    +0.000 HD
BRANCH  21  23
ATOM     23  C   UNL     1       3.503   2.328  17.986  0.00  0.00    +0.000 C 
BRANCH  23  24
ATOM     24  C   UNL     1       2.772   2.525  19.278  0.00  0.00    +0.000 A 
ATOM     25  C   UNL     1       1.418   2.854  19.315  0.00  0.00    +0.000 A 
ATOM     26  C   UNL     1       0.812   3.105  20.543  0.00  0.00    +0.000 A 
ATOM     27  C   UNL     1       1.587   3.009  21.687  0.00  0.00    +0.000 A 
ATOM     28  N   UNL     1       2.893   2.673  21.692  0.00  0.00    +0.000 NA
ATOM     29  C   UNL     1       3.455   2.436  20.486  0.00  0.00    +0.000 A 
ENDBRANCH  23  24
ENDBRANCH  21  23
ENDBRANCH  20  21
ENDBRANCH  17  20
ENDBRANCH   4  17
TORSDOF 7
ENDMDL
MODEL 8
REMARK VINA RESULT:      -8.1      2.101      4.231
REMARK  Name = 
REMARK  7 active torsions:
REMARK  status: ('A' for Active; 'I' for Inactive)
REMARK    1  A    between atoms: C_2  and  C_10
REMARK    2  A    between atoms: N_3  and  C_4
REMARK    3  A    between atoms: C_13  and  C_14
REMARK    4  A    between atoms: C_14  and  C_15
REMARK    5  A    between atoms: C_15  and  N_16
REMARK    6  A    between atoms: N_16  and  C_17
REMARK    7  A    between atoms: C_17  and  C_18
REMARK                            x       y       z     vdW  Elec       q    Type
REMARK                         _______ _______ _______ _____ _____    ______ ____
ROOT
ATOM      1  C   UNL     1       1.666   7.989  19.869  0.00  0.00    +0.000 A 
ATOM      2  C   UNL     1       1.325   7.097  20.890  0.00  0.00    +0.000 A 
ATOM      3  C   UNL     1       1.652   5.754  20.771  0.00  0.00    +0.000 A 
ATOM      4  C   UNL     1       2.304   5.265  19.625  0.00  0.00    +0.000 A 
ATOM      5  C   UNL     1       2.727   6.188  18.655  0.00  0.00    +0.000 A 
ATOM      6  C   UNL     1       2.405   7.544  18.770  0.00  0.00    +0.000 A 
ENDROOT
BRANCH   1   8
ATOM      7  O   UNL     1       0.912   9.756  21.160  0.00  0.00    +0.000 OA
ATOM      8  C   UNL     1       1.223   9.394  20.028  0.00  0.00    +0.000 C 
ATOM      9  N   UNL     1       1.116  10.141  18.870  0.00  0.00    +0.000 N 
ATOM     10  H   UNL     1       1.179   9.652  17.985  0.00  0.00    +0.000 HD
BRANCH   9  11
ATOM     11  C   UNL     1       0.770  11.510  18.808  0.00  0.00    +0.000 A 
ATOM     12  C   UNL     1      -0.546  11.963  18.955  0.00  0.00    +0.000 A 
ATOM     13  C   UNL     1      -0.842  13.327  18.899  0.00  0.00    +0.000 A 
ATOM     14  C   UNL     1       0.177  14.249  18.700  0.00  0.00    +0.000 A 
ATOM     15  C   UNL     1       1.491  13.814  18.558  0.00  0.00    +0.000 A 
ATOM     16  C   UNL     1       1.790  12.448  18.616  0.00  0.00    +0.000 A 
ENDBRANCH   9  11
ENDBRANCH   1   8
BRANCH   4  17
ATOM     17  C   UNL     1       2.267   3.765  19.358  0.00  0.00    +0.000 C 
ATOM     18  C   UNL     1       1.010   2.925  19.487  0.00  0.00    +0.000 C 
ATOM     19  C   UNL     1       1.440   3.371  18.127  0.00  0.00    +0.000 C 
BRANCH  17  20
ATOM     20  C   UNL     1       3.606   3.165  19.791  0.00  0.00    +0.000 C 
BRANCH  20  21
ATOM     21  N   UNL     1       4.702   2.978  18.860  0.00  0.00    +0.000 NA
ATOM     22  H   UNL     1       4.384   2.596  17.976  0.00  0.00    +0.000 HD
BRANCH  21  23
ATOM     23  C   UNL     1       5.500   4.174  18.685  0.00  0.00    +0.000 C 
BRANCH  23  24
ATOM     24  C   UNL     1       5.887   4.390  17.255  0.00  0.00    +0.000 A 
ATOM     25  C   UNL     1       4.958   4.295  16.219  0.00  0.00    +0.000 A 
ATOM     26  C   UNL     1       5.393   4.425  14.903  0.00  0.00    +0.000 A 
ATOM     27  C   UNL     1       6.740   4.653  14.677  0.00  0.00    +0.000 A 
ATOM     28  N   UNL     1       7.663   4.772  15.654  0.00  0.00    +0.000 NA
ATOM     29  C   UNL     1       7.213   4.640  16.921  0.00  0.00    +0.000 A 
ENDBRANCH  23  24
ENDBRANCH  21  23
ENDBRANCH  20  21
ENDBRANCH  17  20
ENDBRANCH   4  17
TORSDOF 7
ENDMDL
MODEL 9
REMARK VINA RESULT:      -8.1      2.223      4.323
REMARK  Name = 
REMARK  7 active torsions:
REMARK  status: ('A' for Active; 'I' for Inactive)
REMARK    1  A    between atoms: C_2  and  C_10
REMARK    2  A    between atoms: N_3  and  C_4
REMARK    3  A    between atoms: C_13  and  C_14
REMARK    4  A    between atoms: C_14  and  C_15
REMARK    5  A    between atoms: C_15  and  N_16
REMARK    6  A    between atoms: N_16  and  C_17
REMARK    7  A    between atoms: C_17  and  C_18
REMARK                            x       y       z     vdW  Elec       q    Type
REMARK                         _______ _______ _______ _____ _____    ______ ____
ROOT
ATOM      1  C   UNL     1       2.269   7.387  19.249  0.00  0.00    +0.000 A 
ATOM      2  C   UNL     1       2.178   6.180  19.949  0.00  0.00    +0.000 A 
ATOM      3  C   UNL     1       2.744   5.030  19.418  0.00  0.00    +0.000 A 
ATOM      4  C   UNL     1       3.390   5.049  18.169  0.00  0.00    +0.000 A 
ATOM      5  C   UNL     1       3.558   6.285  17.526  0.00  0.00    +0.000 A 
ATOM      6  C   UNL     1       2.996   7.451  18.057  0.00  0.00    +0.000 A 
ENDROOT
BRANCH   1   8
ATOM      7  O   UNL     1       1.474   8.586  21.062  0.00  0.00    +0.000 OA
ATOM      8  C   UNL     1       1.582   8.559  19.839  0.00  0.00    +0.000 C 
ATOM      9  N   UNL     1       1.046   9.472  18.949  0.00  0.00    +0.000 N 
ATOM     10  H   UNL     1       1.005   9.208  17.971  0.00  0.00    +0.000 HD
BRANCH   9  11
ATOM     11  C   UNL     1       0.407  10.681  19.302  0.00  0.00    +0.000 A 
ATOM     12  C   UNL     1      -0.982  10.789  19.438  0.00  0.00    +0.000 A 
ATOM     13  C   UNL     1      -1.572  12.002  19.801  0.00  0.00    +0.000 A 
ATOM     14  C   UNL     1      -0.777  13.116  20.035  0.00  0.00    +0.000 A 
ATOM     15  C   UNL     1       0.606  13.023  19.909  0.00  0.00    +0.000 A 
ATOM     16  C   UNL     1       1.199  11.807  19.548  0.00  0.00    +0.000 A 
ENDBRANCH   9  11
ENDBRANCH   1   8
BRANCH   4  17
ATOM     17  C   UNL     1       3.617   3.723  17.454  0.00  0.00    +0.000 C 
ATOM     18  C   UNL     1       3.756   2.397  18.179  0.00  0.00    +0.000 C 
ATOM     19  C   UNL     1       2.439   2.746  17.565  0.00  0.00    +0.000 C 
BRANCH  17  20
ATOM     20  C   UNL     1       4.476   3.983  16.215  0.00  0.00    +0.000 C 
BRANCH  20  21
ATOM     21  N   UNL     1       5.784   3.381  16.046  0.00  0.00    +0.000 NA
ATOM     22  H   UNL     1       5.758   2.598  15.403  0.00  0.00    +0.000 HD
BRANCH  21  23
ATOM     23  C   UNL     1       6.805   4.347  15.693  0.00  0.00    +0.000 C 
BRANCH  23  24
ATOM     24  C   UNL     1       7.197   5.203  16.858  0.00  0.00    +0.000 A 
ATOM     25  C   UNL     1       7.216   6.595  16.774  0.00  0.00    +0.000 A 
ATOM     26  C   UNL     1       7.667   7.335  17.864  0.00  0.00    +0.000 A 
ATOM     27  C   UNL     1       8.074   6.650  18.997  0.00  0.00    +0.000 A 
ATOM     28  N   UNL     1       8.049   5.307  19.122  0.00  0.00    +0.000 NA
ATOM     29  C   UNL     1       7.608   4.615  18.049  0.00  0.00    +0.000 A 
ENDBRANCH  23  24
ENDBRANCH  21  23
ENDBRANCH  20  21
ENDBRANCH  17  20
ENDBRANCH   4  17
TORSDOF 7
ENDMDL
