MODEL 1
REMARK VINA RESULT:      -8.0      0.000      0.000
REMARK  Name = 
REMARK  7 active torsions:
REMARK  status: ('A' for Active; 'I' for Inactive)
REMARK    1  A    between atoms: C_1  and  C_2
REMARK    2  A    between atoms: C_5  and  O_6
REMARK    3  A    between atoms: C_8  and  N_9
REMARK    4  A    between atoms: C_12  and  C_13
REMARK    5  A    between atoms: C_13  and  C_14
REMARK    6  A    between atoms: C_14  and  C_15
REMARK    7  A    between atoms: C_15  and  C_16
REMARK                            x       y       z     vdW  Elec       q    Type
REMARK                         _______ _______ _______ _____ _____    ______ ____
ROOT
ATOM      1  N   UNL     1       2.065   8.405  20.438  0.00  0.00    +0.000 N 
ATOM      2  C   UNL     1       0.980   9.306  20.425  0.00  0.00    +0.000 A 
ATOM      3  C   UNL     1       0.767  10.064  21.554  0.00  0.00    +0.000 A 
ATOM      4  C   UNL     1      -0.457  10.675  21.700  0.00  0.00    +0.000 A 
ATOM      5  N   UNL     1      -1.322  10.716  20.674  0.00  0.00    +0.000 NA
ATOM      6  C   UNL     1      -0.984  10.075  19.539  0.00  0.00    +0.000 A 
ATOM      7  N   UNL     1      -1.834  10.191  18.414  0.00  0.00    +0.000 N 
ATOM      8  C   UNL     1      -1.663   9.521  17.224  0.00  0.00    +0.000 A 
ATOM      9  N   UNL     1      -2.592   9.816  16.340  0.00  0.00    +0.000 NA
ATOM     10  C   UNL     1      -3.396  10.733  16.970  0.00  0.00    +0.000 A 
ATOM     11  C   UNL     1      -4.532  11.393  16.485  0.00  0.00    +0.000 A 
ATOM     12  C   UNL     1      -5.185  12.323  17.303  0.00  0.00    +0.000 A 
ATOM     13  C   UNL     1      -4.713  12.591  18.587  0.00  0.00    +0.000 A 
ATOM     14  C   UNL     1      -3.587  11.933  19.095  0.00  0.00    +0.000 A 
ATOM     15  C   UNL     1      -2.951  11.000  18.265  0.00  0.00    +0.000 A 
ATOM     16  N   UNL     1       0.118   9.320  19.402  0.00  0.00    +0.000 NA
ATOM     17  H   UNL     1       2.955   8.854  20.597  0.00  0.00    +0.000 HD
ENDROOT
BRANCH   1  24
ATOM     18  C   UNL     1       3.107   8.054  17.695  0.00  0.00    +0.000 C 
ATOM     19  C   UNL     1       2.551   6.931  18.527  0.00  0.00    +0.000 A 
ATOM     20  C   UNL     1       2.466   5.648  17.952  0.00  0.00    +0.000 A 
ATOM     21  C   UNL     1       2.010   4.555  18.692  0.00  0.00    +0.000 A 
ATOM     22  C   UNL     1       1.661   4.735  20.017  0.00  0.00    +0.000 A 
ATOM     23  C   UNL     1       1.712   5.997  20.592  0.00  0.00    +0.000 A 
ATOM     24  C   UNL     1       2.100   7.125  19.847  0.00  0.00    +0.000 A 
BRANCH  22  25
ATOM     25  O   UNL     1       1.252   3.701  20.804  0.00  0.00    +0.000 OA
ATOM     26  H   UNL     1       0.864   3.016  20.235  0.00  0.00    +0.000 HD
ENDBRANCH  22  25
ENDBRANCH   1  24
BRANCH   4  27
ATOM     27  C   UNL     1      -1.008  11.175  23.019  0.00  0.00    +0.000 C 
BRANCH  27  28
ATOM     28  C   UNL     1      -1.677  12.550  23.060  0.00  0.00    +0.000 C 
BRANCH  28  29
ATOM     29  C   UNL     1      -3.214  12.527  23.078  0.00  0.00    +0.000 C 
BRANCH  29  30
ATOM     30  C   UNL     1      -3.848  12.884  24.440  0.00  0.00    +0.000 C 
ATOM     31  C   UNL     1      -5.291  12.392  24.655  0.00  0.00    +0.000 C 
ATOM     32  C   UNL     1      -6.323  13.185  23.857  0.00  0.00    +0.000 C 
ATOM     33  N   UNL     1      -6.246  14.615  24.150  0.00  0.00    +0.000 NA
ATOM     34  C   UNL     1      -4.912  15.145  23.864  0.00  0.00    +0.000 C 
ATOM     35  C   UNL     1      -3.813  14.413  24.645  0.00  0.00    +0.000 C 
ATOM     36  H   UNL     1      -6.444  14.756  25.142  0.00  0.00    +0.000 HD
ENDBRANCH  29  30
ENDBRANCH  28  29
ENDBRANCH  27  28
ENDBRANCH   4  27
TORSDOF 6
ENDMDL
MODEL 2
REMARK VINA RESULT:      -7.9      8.043     11.036
REMARK  Name = 
REMARK  7 active torsions:
REMARK  status: ('A' for Active; 'I' for Inactive)
REMARK    1  A    between atoms: C_1  and  C_2
REMARK    2  A    between atoms: C_5  and  O_6
REMARK    3  A    between atoms: C_8  and  N_9
REMARK    4  A    between atoms: C_12  and  C_13
REMARK    5  A    between atoms: C_13  and  C_14
REMARK    6  A    between atoms: C_14  and  C_15
REMARK    7  A    between atoms: C_15  and  C_16
REMARK                            x       y       z     vdW  Elec       q    Type
REMARK                         _______ _______ _______ _____ _____    ______ ____
ROOT
ATOM      1  N   UNL     1       4.971   4.183  19.884  0.00  0.00    +0.000 N 
ATOM      2  C   UNL     1       5.827   4.628  18.856  0.00  0.00    +0.000 A 
ATOM      3  C   UNL     1       6.824   5.514  19.195  0.00  0.00    +0.000 A 
ATOM      4  C   UNL     1       7.433   6.219  18.182  0.00  0.00    +0.000 A 
ATOM      5  N   UNL     1       7.219   5.886  16.899  0.00  0.00    +0.000 NA
ATOM      6  C   UNL     1       6.337   4.902  16.643  0.00  0.00    +0.000 A 
ATOM      7  N   UNL     1       6.172   4.468  15.306  0.00  0.00    +0.000 N 
ATOM      8  C   UNL     1       5.245   3.541  14.886  0.00  0.00    +0.000 A 
ATOM      9  N   UNL     1       5.311   3.312  13.592  0.00  0.00    +0.000 NA
ATOM     10  C   UNL     1       6.337   4.108  13.147  0.00  0.00    +0.000 A 
ATOM     11  C   UNL     1       6.847   4.249  11.850  0.00  0.00    +0.000 A 
ATOM     12  C   UNL     1       7.932   5.106  11.631  0.00  0.00    +0.000 A 
ATOM     13  C   UNL     1       8.500   5.814  12.690  0.00  0.00    +0.000 A 
ATOM     14  C   UNL     1       7.998   5.696  13.990  0.00  0.00    +0.000 A 
ATOM     15  C   UNL     1       6.906   4.839  14.189  0.00  0.00    +0.000 A 
ATOM     16  N   UNL     1       5.587   4.300  17.581  0.00  0.00    +0.000 NA
ATOM     17  H   UNL     1       5.459   3.719  20.637  0.00  0.00    +0.000 HD
ENDROOT
BRANCH   1  24
ATOM     18  C   UNL     1       3.020   6.398  20.022  0.00  0.00    +0.000 C 
ATOM     19  C   UNL     1       2.633   4.952  19.878  0.00  0.00    +0.000 A 
ATOM     20  C   UNL     1       1.264   4.622  19.865  0.00  0.00    +0.000 A 
ATOM     21  C   UNL     1       0.840   3.305  19.680  0.00  0.00    +0.000 A 
ATOM     22  C   UNL     1       1.784   2.314  19.481  0.00  0.00    +0.000 A 
ATOM     23  C   UNL     1       3.138   2.616  19.518  0.00  0.00    +0.000 A 
ATOM     24  C   UNL     1       3.589   3.924  19.774  0.00  0.00    +0.000 A 
BRANCH  22  25
ATOM     25  O   UNL     1       1.435   1.018  19.250  0.00  0.00    +0.000 OA
ATOM     26  H   UNL     1       0.911   0.701  20.004  0.00  0.00    +0.000 HD
ENDBRANCH  22  25
ENDBRANCH   1  24
BRANCH   4  27
ATOM     27  C   UNL     1       8.219   7.497  18.387  0.00  0.00    +0.000 C 
BRANCH  27  28
ATOM     28  C   UNL     1       7.923   8.692  17.478  0.00  0.00    +0.000 C 
BRANCH  28  29
ATOM     29  C   UNL     1       8.131  10.070  18.126  0.00  0.00    +0.000 C 
BRANCH  29  30
ATOM     30  C   UNL     1       9.529  10.288  18.745  0.00  0.00    +0.000 C 
ATOM     31  C   UNL     1       9.544  10.820  20.190  0.00  0.00    +0.000 C 
ATOM     32  C   UNL     1       9.163  12.295  20.293  0.00  0.00    +0.000 C 
ATOM     33  N   UNL     1      10.019  13.132  19.455  0.00  0.00    +0.000 NA
ATOM     34  C   UNL     1       9.955  12.720  18.052  0.00  0.00    +0.000 C 
ATOM     35  C   UNL     1      10.347  11.249  17.857  0.00  0.00    +0.000 C 
ATOM     36  H   UNL     1      10.984  13.037  19.777  0.00  0.00    +0.000 HD
ENDBRANCH  29  30
ENDBRANCH  28  29
ENDBRANCH  27  28
ENDBRANCH   4  27
TORSDOF 6
ENDMDL
MODEL 3
REMARK VINA RESULT:      -7.7      0.681      1.146
REMARK  Name = 
REMARK  7 active torsions:
REMARK  status: ('A' for Active; 'I' for Inactive)
REMARK    1  A    between atoms: C_1  and  C_2
REMARK    2  A    between atoms: C_5  and  O_6
REMARK    3  A    between atoms: C_8  and  N_9
REMARK    4  A    between atoms: C_12  and  C_13
REMARK    5  A    between atoms: C_13  and  C_14
REMARK    6  A    between atoms: C_14  and  C_15
REMARK    7  A    between atoms: C_15  and  C_16
REMARK                            x       y       z     vdW  Elec       q    Type
REMARK                         _______ _______ _______ _____ _____    ______ ____
ROOT
ATOM      1  N   UNL     1       2.066   8.381  20.427  0.00  0.00    +0.000 N 
ATOM      2  C   UNL     1       0.979   9.281  20.425  0.00  0.00    +0.000 A 
ATOM      3  C   UNL     1       0.763  10.022  21.564  0.00  0.00    +0.000 A 
ATOM      4  C   UNL     1      -0.463  10.629  21.717  0.00  0.00    +0.000 A 
ATOM      5  N   UNL     1      -1.326  10.683  20.690  0.00  0.00    +0.000 NA
ATOM      6  C   UNL     1      -0.985  10.059  19.547  0.00  0.00    +0.000 A 
ATOM      7  N   UNL     1      -1.834  10.188  18.422  0.00  0.00    +0.000 N 
ATOM      8  C   UNL     1      -1.660   9.534  17.224  0.00  0.00    +0.000 A 
ATOM      9  N   UNL     1      -2.589   9.840  16.343  0.00  0.00    +0.000 NA
ATOM     10  C   UNL     1      -3.395  10.747  16.985  0.00  0.00    +0.000 A 
ATOM     11  C   UNL     1      -4.532  11.411  16.506  0.00  0.00    +0.000 A 
ATOM     12  C   UNL     1      -5.188  12.328  17.336  0.00  0.00    +0.000 A 
ATOM     13  C   UNL     1      -4.718  12.580  18.625  0.00  0.00    +0.000 A 
ATOM     14  C   UNL     1      -3.592  11.917  19.125  0.00  0.00    +0.000 A 
ATOM     15  C   UNL     1      -2.952  10.996  18.283  0.00  0.00    +0.000 A 
ATOM     16  N   UNL     1       0.118   9.307  19.401  0.00  0.00    +0.000 NA
ATOM     17  H   UNL     1       2.955   8.830  20.594  0.00  0.00    +0.000 HD
ENDROOT
BRANCH   1  24
ATOM     18  C   UNL     1       3.109   8.071  17.680  0.00  0.00    +0.000 C 
ATOM     19  C   UNL     1       2.556   6.936  18.496  0.00  0.00    +0.000 A 
ATOM     20  C   UNL     1       2.474   5.661  17.903  0.00  0.00    +0.000 A 
ATOM     21  C   UNL     1       2.021   4.556  18.628  0.00  0.00    +0.000 A 
ATOM     22  C   UNL     1       1.671   4.717  19.956  0.00  0.00    +0.000 A 
ATOM     23  C   UNL     1       1.719   5.970  20.548  0.00  0.00    +0.000 A 
ATOM     24  C   UNL     1       2.104   7.110  19.818  0.00  0.00    +0.000 A 
BRANCH  22  25
ATOM     25  O   UNL     1       1.264   3.671  20.728  0.00  0.00    +0.000 OA
ATOM     26  H   UNL     1       1.908   3.550  21.445  0.00  0.00    +0.000 HD
ENDBRANCH  22  25
ENDBRANCH   1  24
BRANCH   4  27
ATOM     27  C   UNL     1      -1.017  11.109  23.042  0.00  0.00    +0.000 C 
BRANCH  27  28
ATOM     28  C   UNL     1      -1.729  12.462  23.091  0.00  0.00    +0.000 C 
BRANCH  28  29
ATOM     29  C   UNL     1      -3.237  12.394  23.381  0.00  0.00    +0.000 C 
BRANCH  29  30
ATOM     30  C   UNL     1      -4.132  13.014  22.286  0.00  0.00    +0.000 C 
ATOM     31  C   UNL     1      -3.758  14.442  21.846  0.00  0.00    +0.000 C 
ATOM     32  C   UNL     1      -4.120  15.505  22.879  0.00  0.00    +0.000 C 
ATOM     33  N   UNL     1      -5.539  15.457  23.227  0.00  0.00    +0.000 NA
ATOM     34  C   UNL     1      -5.914  14.141  23.745  0.00  0.00    +0.000 C 
ATOM     35  C   UNL     1      -5.603  13.012  22.753  0.00  0.00    +0.000 C 
ATOM     36  H   UNL     1      -6.087  15.643  22.385  0.00  0.00    +0.000 HD
ENDBRANCH  29  30
ENDBRANCH  28  29
ENDBRANCH  27  28
ENDBRANCH   4  27
TORSDOF 6
ENDMDL
MODEL 4
REMARK VINA RESULT:      -7.7      8.387     11.105
REMARK  Name = 
REMARK  7 active torsions:
REMARK  status: ('A' for Active; 'I' for Inactive)
REMARK    1  A    between atoms: C_1  and  C_2
REMARK    2  A    between atoms: C_5  and  O_6
REMARK    3  A    between atoms: C_8  and  N_9
REMARK    4  A    between atoms: C_12  and  C_13
REMARK    5  A    between atoms: C_13  and  C_14
REMARK    6  A    between atoms: C_14  and  C_15
REMARK    7  A    between atoms: C_15  and  C_16
REMARK                            x       y       z     vdW  Elec       q    Type
REMARK                         _______ _______ _______ _____ _____    ______ ____
ROOT
ATOM      1  N   UNL     1       5.144   4.091  19.960  0.00  0.00    +0.000 N 
ATOM      2  C   UNL     1       5.962   4.565  18.913  0.00  0.00    +0.000 A 
ATOM      3  C   UNL     1       6.942   5.477  19.233  0.00  0.00    +0.000 A 
ATOM      4  C   UNL     1       7.506   6.204  18.209  0.00  0.00    +0.000 A 
ATOM      5  N   UNL     1       7.271   5.870  16.930  0.00  0.00    +0.000 NA
ATOM      6  C   UNL     1       6.410   4.863  16.690  0.00  0.00    +0.000 A 
ATOM      7  N   UNL     1       6.226   4.430  15.356  0.00  0.00    +0.000 N 
ATOM      8  C   UNL     1       5.315   3.479  14.953  0.00  0.00    +0.000 A 
ATOM      9  N   UNL     1       5.356   3.258  13.657  0.00  0.00    +0.000 NA
ATOM     10  C   UNL     1       6.348   4.084  13.192  0.00  0.00    +0.000 A 
ATOM     11  C   UNL     1       6.822   4.245  11.884  0.00  0.00    +0.000 A 
ATOM     12  C   UNL     1       7.877   5.134  11.643  0.00  0.00    +0.000 A 
ATOM     13  C   UNL     1       8.451   5.853  12.690  0.00  0.00    +0.000 A 
ATOM     14  C   UNL     1       7.983   5.716  14.002  0.00  0.00    +0.000 A 
ATOM     15  C   UNL     1       6.921   4.827  14.223  0.00  0.00    +0.000 A 
ATOM     16  N   UNL     1       5.701   4.236  17.643  0.00  0.00    +0.000 NA
ATOM     17  H   UNL     1       5.663   3.638  20.698  0.00  0.00    +0.000 HD
ENDROOT
BRANCH   1  24
ATOM     18  C   UNL     1       4.241   1.415  19.090  0.00  0.00    +0.000 C 
ATOM     19  C   UNL     1       3.306   2.542  19.430  0.00  0.00    +0.000 A 
ATOM     20  C   UNL     1       1.921   2.337  19.272  0.00  0.00    +0.000 A 
ATOM     21  C   UNL     1       1.000   3.326  19.624  0.00  0.00    +0.000 A 
ATOM     22  C   UNL     1       1.458   4.516  20.158  0.00  0.00    +0.000 A 
ATOM     23  C   UNL     1       2.819   4.747  20.294  0.00  0.00    +0.000 A 
ATOM     24  C   UNL     1       3.769   3.793  19.882  0.00  0.00    +0.000 A 
BRANCH  22  25
ATOM     25  O   UNL     1       0.609   5.502  20.561  0.00  0.00    +0.000 OA
ATOM     26  H   UNL     1       0.036   5.739  19.814  0.00  0.00    +0.000 HD
ENDBRANCH  22  25
ENDBRANCH   1  24
BRANCH   4  27
ATOM     27  C   UNL     1       8.259   7.503  18.401  0.00  0.00    +0.000 C 
BRANCH  27  28
ATOM     28  C   UNL     1       7.883   8.703  17.531  0.00  0.00    +0.000 C 
BRANCH  28  29
ATOM     29  C   UNL     1       8.112  10.077  18.181  0.00  0.00    +0.000 C 
BRANCH  29  30
ATOM     30  C   UNL     1       9.499  10.257  18.836  0.00  0.00    +0.000 C 
ATOM     31  C   UNL     1       9.495  10.864  20.252  0.00  0.00    +0.000 C 
ATOM     32  C   UNL     1       9.187  12.359  20.267  0.00  0.00    +0.000 C 
ATOM     33  N   UNL     1      10.112  13.107  19.417  0.00  0.00    +0.000 NA
ATOM     34  C   UNL     1      10.072  12.625  18.036  0.00  0.00    +0.000 C 
ATOM     35  C   UNL     1      10.394  11.128  17.930  0.00  0.00    +0.000 C 
ATOM     36  H   UNL     1      11.059  12.981  19.777  0.00  0.00    +0.000 HD
ENDBRANCH  29  30
ENDBRANCH  28  29
ENDBRANCH  27  28
ENDBRANCH   4  27
TORSDOF 6
ENDMDL
MODEL 5
REMARK VINA RESULT:      -7.3      1.638      2.213
REMARK  Name = 
REMARK  7 active torsions:
REMARK  status: ('A' for Active; 'I' for Inactive)
REMARK    1  A    between atoms: C_1  and  C_2
REMARK    2  A    between atoms: C_5  and  O_6
REMARK    3  A    between atoms: C_8  and  N_9
REMARK    4  A    between atoms: C_12  and  C_13
REMARK    5  A    between atoms: C_13  and  C_14
REMARK    6  A    between atoms: C_14  and  C_15
REMARK    7  A    between atoms: C_15  and  C_16
REMARK                            x       y       z     vdW  Elec       q    Type
REMARK                         _______ _______ _______ _____ _____    ______ ____
ROOT
ATOM      1  N   UNL     1       2.034   8.395  20.488  0.00  0.00    +0.000 N 
ATOM      2  C   UNL     1       0.949   9.296  20.485  0.00  0.00    +0.000 A 
ATOM      3  C   UNL     1       0.730  10.036  21.625  0.00  0.00    +0.000 A 
ATOM      4  C   UNL     1      -0.496  10.644  21.774  0.00  0.00    +0.000 A 
ATOM      5  N   UNL     1      -1.355  10.701  20.743  0.00  0.00    +0.000 NA
ATOM      6  C   UNL     1      -1.011  10.079  19.601  0.00  0.00    +0.000 A 
ATOM      7  N   UNL     1      -1.854  10.213  18.473  0.00  0.00    +0.000 N 
ATOM      8  C   UNL     1      -1.677   9.562  17.273  0.00  0.00    +0.000 A 
ATOM      9  N   UNL     1      -2.602   9.871  16.390  0.00  0.00    +0.000 NA
ATOM     10  C   UNL     1      -3.409  10.777  17.030  0.00  0.00    +0.000 A 
ATOM     11  C   UNL     1      -4.542  11.445  16.549  0.00  0.00    +0.000 A 
ATOM     12  C   UNL     1      -5.200  12.361  17.378  0.00  0.00    +0.000 A 
ATOM     13  C   UNL     1      -4.735  12.609  18.669  0.00  0.00    +0.000 A 
ATOM     14  C   UNL     1      -3.612  11.943  19.173  0.00  0.00    +0.000 A 
ATOM     15  C   UNL     1      -2.971  11.023  18.331  0.00  0.00    +0.000 A 
ATOM     16  N   UNL     1       0.092   9.326  19.457  0.00  0.00    +0.000 NA
ATOM     17  H   UNL     1       2.923   8.841  20.660  0.00  0.00    +0.000 HD
ENDROOT
BRANCH   1  24
ATOM     18  C   UNL     1       3.070   8.092  17.738  0.00  0.00    +0.000 C 
ATOM     19  C   UNL     1       2.521   6.954  18.553  0.00  0.00    +0.000 A 
ATOM     20  C   UNL     1       2.439   5.680  17.958  0.00  0.00    +0.000 A 
ATOM     21  C   UNL     1       1.990   4.573  18.682  0.00  0.00    +0.000 A 
ATOM     22  C   UNL     1       1.644   4.731  20.011  0.00  0.00    +0.000 A 
ATOM     23  C   UNL     1       1.691   5.983  20.606  0.00  0.00    +0.000 A 
ATOM     24  C   UNL     1       2.073   7.125  19.877  0.00  0.00    +0.000 A 
BRANCH  22  25
ATOM     25  O   UNL     1       1.241   3.683  20.783  0.00  0.00    +0.000 OA
ATOM     26  H   UNL     1       1.095   2.915  20.206  0.00  0.00    +0.000 HD
ENDBRANCH  22  25
ENDBRANCH   1  24
BRANCH   4  27
ATOM     27  C   UNL     1      -1.054  11.122  23.097  0.00  0.00    +0.000 C 
BRANCH  27  28
ATOM     28  C   UNL     1      -2.171  12.167  23.087  0.00  0.00    +0.000 C 
BRANCH  28  29
ATOM     29  C   UNL     1      -1.737  13.590  23.474  0.00  0.00    +0.000 C 
BRANCH  29  30
ATOM     30  C   UNL     1      -0.762  14.259  22.481  0.00  0.00    +0.000 C 
ATOM     31  C   UNL     1      -0.327  15.693  22.835  0.00  0.00    +0.000 C 
ATOM     32  C   UNL     1      -1.424  16.730  22.607  0.00  0.00    +0.000 C 
ATOM     33  N   UNL     1      -1.919  16.696  21.232  0.00  0.00    +0.000 NA
ATOM     34  C   UNL     1      -2.435  15.370  20.887  0.00  0.00    +0.000 C 
ATOM     35  C   UNL     1      -1.384  14.268  21.068  0.00  0.00    +0.000 C 
ATOM     36  H   UNL     1      -1.146  16.916  20.602  0.00  0.00    +0.000 HD
ENDBRANCH  29  30
ENDBRANCH  28  29
ENDBRANCH  27  28
ENDBRANCH   4  27
TORSDOF 6
ENDMDL
MODEL 6
REMARK VINA RESULT:      -7.3      1.066      1.291
REMARK  Name = 
REMARK  7 active torsions:
REMARK  status: ('A' for Active; 'I' for Inactive)
REMARK    1  A    between atoms: C_1  and  C_2
REMARK    2  A    between atoms: C_5  and  O_6
REMARK    3  A    between atoms: C_8  and  N_9
REMARK    4  A    between atoms: C_12  and  C_13
REMARK    5  A    between atoms: C_13  and  C_14
REMARK    6  A    between atoms: C_14  and  C_15
REMARK    7  A    between atoms: C_15  and  C_16
REMARK                            x       y       z     vdW  Elec       q    Type
REMARK                         _______ _______ _______ _____ _____    ______ ____
ROOT
ATOM      1  N   UNL     1       1.997   8.644  20.477  0.00  0.00    +0.000 N 
ATOM      2  C   UNL     1       0.891   9.520  20.462  0.00  0.00    +0.000 A 
ATOM      3  C   UNL     1       0.673  10.291  21.582  0.00  0.00    +0.000 A 
ATOM      4  C   UNL     1      -0.564  10.877  21.732  0.00  0.00    +0.000 A 
ATOM      5  N   UNL     1      -1.440  10.881  20.714  0.00  0.00    +0.000 NA
ATOM      6  C   UNL     1      -1.100  10.230  19.586  0.00  0.00    +0.000 A 
ATOM      7  N   UNL     1      -1.964  10.308  18.469  0.00  0.00    +0.000 N 
ATOM      8  C   UNL     1      -1.791   9.622  17.288  0.00  0.00    +0.000 A 
ATOM      9  N   UNL     1      -2.736   9.882  16.410  0.00  0.00    +0.000 NA
ATOM     10  C   UNL     1      -3.554  10.790  17.035  0.00  0.00    +0.000 A 
ATOM     11  C   UNL     1      -4.710  11.416  16.551  0.00  0.00    +0.000 A 
ATOM     12  C   UNL     1      -5.375  12.344  17.362  0.00  0.00    +0.000 A 
ATOM     13  C   UNL     1      -4.896  12.644  18.636  0.00  0.00    +0.000 A 
ATOM     14  C   UNL     1      -3.750  12.020  19.142  0.00  0.00    +0.000 A 
ATOM     15  C   UNL     1      -3.101  11.088  18.320  0.00  0.00    +0.000 A 
ATOM     16  N   UNL     1       0.018   9.498  19.448  0.00  0.00    +0.000 NA
ATOM     17  H   UNL     1       2.878   9.116  20.620  0.00  0.00    +0.000 HD
ENDROOT
BRANCH   1  24
ATOM     18  C   UNL     1       3.002   8.275  17.723  0.00  0.00    +0.000 C 
ATOM     19  C   UNL     1       2.489   7.153  18.582  0.00  0.00    +0.000 A 
ATOM     20  C   UNL     1       2.427   5.859  18.029  0.00  0.00    +0.000 A 
ATOM     21  C   UNL     1       2.012   4.766  18.794  0.00  0.00    +0.000 A 
ATOM     22  C   UNL     1       1.680   4.959  20.123  0.00  0.00    +0.000 A 
ATOM     23  C   UNL     1       1.708   6.231  20.676  0.00  0.00    +0.000 A 
ATOM     24  C   UNL     1       2.055   7.357  19.906  0.00  0.00    +0.000 A 
BRANCH  22  25
ATOM     25  O   UNL     1       1.311   3.928  20.933  0.00  0.00    +0.000 OA
ATOM     26  H   UNL     1       0.728   4.276  21.627  0.00  0.00    +0.000 HD
ENDBRANCH  22  25
ENDBRANCH   1  24
BRANCH   4  27
ATOM     27  C   UNL     1      -1.112  11.384  23.048  0.00  0.00    +0.000 C 
BRANCH  27  28
ATOM     28  C   UNL     1      -2.534  11.946  23.082  0.00  0.00    +0.000 C 
BRANCH  28  29
ATOM     29  C   UNL     1      -2.680  13.310  23.775  0.00  0.00    +0.000 C 
BRANCH  29  30
ATOM     30  C   UNL     1      -4.032  14.015  23.532  0.00  0.00    +0.000 C 
ATOM     31  C   UNL     1      -4.434  14.201  22.057  0.00  0.00    +0.000 C 
ATOM     32  C   UNL     1      -3.631  15.286  21.345  0.00  0.00    +0.000 C 
ATOM     33  N   UNL     1      -3.724  16.568  22.042  0.00  0.00    +0.000 NA
ATOM     34  C   UNL     1      -3.256  16.456  23.425  0.00  0.00    +0.000 C 
ATOM     35  C   UNL     1      -4.030  15.397  24.219  0.00  0.00    +0.000 C 
ATOM     36  H   UNL     1      -4.702  16.862  22.054  0.00  0.00    +0.000 HD
ENDBRANCH  29  30
ENDBRANCH  28  29
ENDBRANCH  27  28
ENDBRANCH   4  27
TORSDOF 6
ENDMDL
MODEL 7
REMARK VINA RESULT:      -7.3      4.183      9.173
REMARK  Name = 
REMARK  7 active torsions:
REMARK  status: ('A' for Active; 'I' for Inactive)
REMARK    1  A    between atoms: C_1  and  C_2
REMARK    2  A    between atoms: C_5  and  O_6
REMARK    3  A    between atoms: C_8  and  N_9
REMARK    4  A    between atoms: C_12  and  C_13
REMARK    5  A    between atoms: C_13  and  C_14
REMARK    6  A    between atoms: C_14  and  C_15
REMARK    7  A    between atoms: C_15  and  C_16
REMARK                            x       y       z     vdW  Elec       q    Type
REMARK                         _______ _______ _______ _____ _____    ______ ____
ROOT
ATOM      1  N   UNL     1      -3.052  11.295  18.559  0.00  0.00    +0.000 N 
ATOM      2  C   UNL     1      -1.663  11.505  18.441  0.00  0.00    +0.000 A 
ATOM      3  C   UNL     1      -0.855  10.394  18.350  0.00  0.00    +0.000 A 
ATOM      4  C   UNL     1       0.492  10.554  18.584  0.00  0.00    +0.000 A 
ATOM      5  N   UNL     1       1.024  11.784  18.671  0.00  0.00    +0.000 NA
ATOM      6  C   UNL     1       0.190  12.838  18.602  0.00  0.00    +0.000 A 
ATOM      7  N   UNL     1       0.740  14.141  18.590  0.00  0.00    +0.000 N 
ATOM      8  C   UNL     1       0.009  15.307  18.616  0.00  0.00    +0.000 A 
ATOM      9  N   UNL     1       0.769  16.380  18.589  0.00  0.00    +0.000 NA
ATOM     10  C   UNL     1       2.052  15.899  18.524  0.00  0.00    +0.000 A 
ATOM     11  C   UNL     1       3.259  16.608  18.460  0.00  0.00    +0.000 A 
ATOM     12  C   UNL     1       4.464  15.900  18.368  0.00  0.00    +0.000 A 
ATOM     13  C   UNL     1       4.466  14.506  18.340  0.00  0.00    +0.000 A 
ATOM     14  C   UNL     1       3.272  13.780  18.415  0.00  0.00    +0.000 A 
ATOM     15  C   UNL     1       2.076  14.505  18.515  0.00  0.00    +0.000 A 
ATOM     16  N   UNL     1      -1.148  12.736  18.548  0.00  0.00    +0.000 NA
ATOM     17  H   UNL     1      -3.445  10.775  17.788  0.00  0.00    +0.000 HD
ENDROOT
BRANCH   1  24
ATOM     18  C   UNL     1      -5.870  11.580  17.715  0.00  0.00    +0.000 C 
ATOM     19  C   UNL     1      -5.292  12.246  18.933  0.00  0.00    +0.000 A 
ATOM     20  C   UNL     1      -6.118  13.102  19.686  0.00  0.00    +0.000 A 
ATOM     21  C   UNL     1      -5.655  13.706  20.857  0.00  0.00    +0.000 A 
ATOM     22  C   UNL     1      -4.371  13.438  21.293  0.00  0.00    +0.000 A 
ATOM     23  C   UNL     1      -3.534  12.619  20.550  0.00  0.00    +0.000 A 
ATOM     24  C   UNL     1      -3.954  12.056  19.330  0.00  0.00    +0.000 A 
BRANCH  22  25
ATOM     25  O   UNL     1      -3.876  13.960  22.450  0.00  0.00    +0.000 OA
ATOM     26  H   UNL     1      -2.965  14.255  22.290  0.00  0.00    +0.000 HD
ENDBRANCH  22  25
ENDBRANCH   1  24
BRANCH   4  27
ATOM     27  C   UNL     1       1.435   9.424  18.938  0.00  0.00    +0.000 C 
BRANCH  27  28
ATOM     28  C   UNL     1       1.880   8.467  17.832  0.00  0.00    +0.000 C 
BRANCH  28  29
ATOM     29  C   UNL     1       3.188   7.710  18.111  0.00  0.00    +0.000 C 
BRANCH  29  30
ATOM     30  C   UNL     1       3.221   6.262  17.576  0.00  0.00    +0.000 C 
ATOM     31  C   UNL     1       2.204   5.292  18.208  0.00  0.00    +0.000 C 
ATOM     32  C   UNL     1       2.570   4.878  19.631  0.00  0.00    +0.000 C 
ATOM     33  N   UNL     1       3.907   4.292  19.694  0.00  0.00    +0.000 NA
ATOM     34  C   UNL     1       4.919   5.223  19.193  0.00  0.00    +0.000 C 
ATOM     35  C   UNL     1       4.637   5.674  17.754  0.00  0.00    +0.000 C 
ATOM     36  H   UNL     1       3.923   3.453  19.112  0.00  0.00    +0.000 HD
ENDBRANCH  29  30
ENDBRANCH  28  29
ENDBRANCH  27  28
ENDBRANCH   4  27
TORSDOF 6
ENDMDL
MODEL 8
REMARK VINA RESULT:      -7.3      2.925      8.422
REMARK  Name = 
REMARK  7 active torsions:
REMARK  status: ('A' for Active; 'I' for Inactive)
REMARK    1  A    between atoms: C_1  and  C_2
REMARK    2  A    between atoms: C_5  and  O_6
REMARK    3  A    between atoms: C_8  and  N_9
REMARK    4  A    between atoms: C_12  and  C_13
REMARK    5  A    between atoms: C_13  and  C_14
REMARK    6  A    between atoms: C_14  and  C_15
REMARK    7  A    between atoms: C_15  and  C_16
REMARK                            x       y       z     vdW  Elec       q    Type
REMARK                         _______ _______ _______ _____ _____    ______ ____
ROOT
ATOM      1  N   UNL     1      -0.729  11.859  22.662  0.00  0.00    +0.000 N 
ATOM      2  C   UNL     1      -0.763  11.235  21.397  0.00  0.00    +0.000 A 
ATOM      3  C   UNL     1       0.292  10.417  21.061  0.00  0.00    +0.000 A 
ATOM      4  C   UNL     1       0.455  10.087  19.735  0.00  0.00    +0.000 A 
ATOM      5  N   UNL     1      -0.509  10.365  18.842  0.00  0.00    +0.000 NA
ATOM      6  C   UNL     1      -1.590  11.042  19.273  0.00  0.00    +0.000 A 
ATOM      7  N   UNL     1      -2.661  11.256  18.374  0.00  0.00    +0.000 N 
ATOM      8  C   UNL     1      -3.782  12.006  18.646  0.00  0.00    +0.000 A 
ATOM      9  N   UNL     1      -4.627  12.035  17.638  0.00  0.00    +0.000 NA
ATOM     10  C   UNL     1      -4.044  11.257  16.670  0.00  0.00    +0.000 A 
ATOM     11  C   UNL     1      -4.519  10.934  15.392  0.00  0.00    +0.000 A 
ATOM     12  C   UNL     1      -3.761  10.086  14.575  0.00  0.00    +0.000 A 
ATOM     13  C   UNL     1      -2.547   9.568  15.024  0.00  0.00    +0.000 A 
ATOM     14  C   UNL     1      -2.050   9.889  16.292  0.00  0.00    +0.000 A 
ATOM     15  C   UNL     1      -2.818  10.745  17.094  0.00  0.00    +0.000 A 
ATOM     16  N   UNL     1      -1.721  11.538  20.514  0.00  0.00    +0.000 NA
ATOM     17  H   UNL     1      -0.678  11.204  23.429  0.00  0.00    +0.000 HD
ENDROOT
BRANCH   1  24
ATOM     18  C   UNL     1      -3.390  12.261  23.882  0.00  0.00    +0.000 C 
ATOM     19  C   UNL     1      -2.462  13.386  23.513  0.00  0.00    +0.000 A 
ATOM     20  C   UNL     1      -2.903  14.710  23.702  0.00  0.00    +0.000 A 
ATOM     21  C   UNL     1      -2.067  15.795  23.429  0.00  0.00    +0.000 A 
ATOM     22  C   UNL     1      -0.778  15.560  22.989  0.00  0.00    +0.000 A 
ATOM     23  C   UNL     1      -0.336  14.263  22.770  0.00  0.00    +0.000 A 
ATOM     24  C   UNL     1      -1.183  13.158  22.970  0.00  0.00    +0.000 A 
BRANCH  22  25
ATOM     25  O   UNL     1       0.100  16.573  22.748  0.00  0.00    +0.000 OA
ATOM     26  H   UNL     1       0.923  16.191  22.401  0.00  0.00    +0.000 HD
ENDBRANCH  22  25
ENDBRANCH   1  24
BRANCH   4  27
ATOM     27  C   UNL     1       1.748   9.573  19.138  0.00  0.00    +0.000 C 
BRANCH  27  28
ATOM     28  C   UNL     1       1.678   8.656  17.916  0.00  0.00    +0.000 C 
BRANCH  28  29
ATOM     29  C   UNL     1       2.696   7.504  17.906  0.00  0.00    +0.000 C 
BRANCH  29  30
ATOM     30  C   UNL     1       2.298   6.284  18.763  0.00  0.00    +0.000 C 
ATOM     31  C   UNL     1       3.291   5.894  19.874  0.00  0.00    +0.000 C 
ATOM     32  C   UNL     1       4.559   5.230  19.343  0.00  0.00    +0.000 C 
ATOM     33  N   UNL     1       4.250   4.055  18.530  0.00  0.00    +0.000 NA
ATOM     34  C   UNL     1       3.384   4.402  17.401  0.00  0.00    +0.000 C 
ATOM     35  C   UNL     1       2.073   5.059  17.852  0.00  0.00    +0.000 C 
ATOM     36  H   UNL     1       3.762   3.373  19.114  0.00  0.00    +0.000 HD
ENDBRANCH  29  30
ENDBRANCH  28  29
ENDBRANCH  27  28
ENDBRANCH   4  27
TORSDOF 6
ENDMDL
MODEL 9
REMARK VINA RESULT:      -7.2      4.182      9.255
REMARK  Name = 
REMARK  7 active torsions:
REMARK  status: ('A' for Active; 'I' for Inactive)
REMARK    1  A    between atoms: C_1  and  C_2
REMARK    2  A    between atoms: C_5  and  O_6
REMARK    3  A    between atoms: C_8  and  N_9
REMARK    4  A    between atoms: C_12  and  C_13
REMARK    5  A    between atoms: C_13  and  C_14
REMARK    6  A    between atoms: C_14  and  C_15
REMARK    7  A    between atoms: C_15  and  C_16
REMARK                            x       y       z     vdW  Elec       q    Type
REMARK                         _______ _______ _______ _____ _____    ______ ____
ROOT
ATOM      1  N   UNL     1      -3.333  11.476  18.613  0.00  0.00    +0.000 N 
ATOM      2  C   UNL     1      -1.938  11.652  18.493  0.00  0.00    +0.000 A 
ATOM      3  C   UNL     1      -1.159  10.522  18.387  0.00  0.00    +0.000 A 
ATOM      4  C   UNL     1       0.192  10.646  18.619  0.00  0.00    +0.000 A 
ATOM      5  N   UNL     1       0.755  11.861  18.718  0.00  0.00    +0.000 NA
ATOM      6  C   UNL     1      -0.053  12.936  18.664  0.00  0.00    +0.000 A 
ATOM      7  N   UNL     1       0.530  14.225  18.665  0.00  0.00    +0.000 N 
ATOM      8  C   UNL     1      -0.171  15.409  18.706  0.00  0.00    +0.000 A 
ATOM      9  N   UNL     1       0.616  16.463  18.689  0.00  0.00    +0.000 NA
ATOM     10  C   UNL     1       1.886  15.950  18.615  0.00  0.00    +0.000 A 
ATOM     11  C   UNL     1       3.111  16.629  18.556  0.00  0.00    +0.000 A 
ATOM     12  C   UNL     1       4.297  15.892  18.452  0.00  0.00    +0.000 A 
ATOM     13  C   UNL     1       4.264  14.499  18.408  0.00  0.00    +0.000 A 
ATOM     14  C   UNL     1       3.052  13.802  18.478  0.00  0.00    +0.000 A 
ATOM     15  C   UNL     1       1.875  14.556  18.590  0.00  0.00    +0.000 A 
ATOM     16  N   UNL     1      -1.393  12.868  18.613  0.00  0.00    +0.000 NA
ATOM     17  H   UNL     1      -3.740  10.975  17.837  0.00  0.00    +0.000 HD
ENDROOT
BRANCH   1  24
ATOM     18  C   UNL     1      -5.945  12.326  17.524  0.00  0.00    +0.000 C 
ATOM     19  C   UNL     1      -5.446  12.707  18.891  0.00  0.00    +0.000 A 
ATOM     20  C   UNL     1      -6.237  13.565  19.679  0.00  0.00    +0.000 A 
ATOM     21  C   UNL     1      -5.853  13.911  20.977  0.00  0.00    +0.000 A 
ATOM     22  C   UNL     1      -4.689  13.381  21.501  0.00  0.00    +0.000 A 
ATOM     23  C   UNL     1      -3.883  12.556  20.729  0.00  0.00    +0.000 A 
ATOM     24  C   UNL     1      -4.213  12.251  19.395  0.00  0.00    +0.000 A 
BRANCH  22  25
ATOM     25  O   UNL     1      -4.283  13.643  22.774  0.00  0.00    +0.000 OA
ATOM     26  H   UNL     1      -5.004  14.101  23.238  0.00  0.00    +0.000 HD
ENDBRANCH  22  25
ENDBRANCH   1  24
BRANCH   4  27
ATOM     27  C   UNL     1       1.107   9.488  18.958  0.00  0.00    +0.000 C 
BRANCH  27  28
ATOM     28  C   UNL     1       2.227   9.130  17.979  0.00  0.00    +0.000 C 
BRANCH  28  29
ATOM     29  C   UNL     1       2.292   7.647  17.578  0.00  0.00    +0.000 C 
BRANCH  29  30
ATOM     30  C   UNL     1       3.099   6.753  18.544  0.00  0.00    +0.000 C 
ATOM     31  C   UNL     1       4.439   6.223  18.001  0.00  0.00    +0.000 C 
ATOM     32  C   UNL     1       4.274   5.117  16.962  0.00  0.00    +0.000 C 
ATOM     33  N   UNL     1       3.483   4.004  17.481  0.00  0.00    +0.000 NA
ATOM     34  C   UNL     1       2.159   4.451  17.917  0.00  0.00    +0.000 C 
ATOM     35  C   UNL     1       2.236   5.551  18.984  0.00  0.00    +0.000 C 
ATOM     36  H   UNL     1       3.971   3.604  18.285  0.00  0.00    +0.000 HD
ENDBRANCH  29  30
ENDBRANCH  28  29
ENDBRANCH  27  28
ENDBRANCH   4  27
TORSDOF 6
ENDMDL
