MODEL 1
REMARK VINA RESULT:      -6.3      0.000      0.000
REMARK  Name = 
REMARK  7 active torsions:
REMARK  status: ('A' for Active; 'I' for Inactive)
REMARK    1  A    between atoms: C_1  and  N_2
REMARK    2  A    between atoms: C_5  and  C_6
REMARK    3  A    between atoms: C_13  and  C_14
REMARK    4  A    between atoms: C_14  and  S_15
REMARK    5  A    between atoms: S_15  and  C_16
REMARK    6  A    between atoms: C_16  and  C_17
REMARK    7  A    between atoms: C_17  and  O_18
REMARK                            x       y       z     vdW  Elec       q    Type
REMARK                         _______ _______ _______ _____ _____    ______ ____
ROOT
ATOM      1  C   UNL     1       6.278   4.020  16.019  0.00  0.00    +0.000 C 
ATOM      2  N   UNL     1       5.439   4.867  16.866  0.00  0.00    +0.000 NA
ATOM      3  C   UNL     1       5.490   6.259  16.418  0.00  0.00    +0.000 C 
ATOM      4  C   UNL     1       4.665   7.153  17.341  0.00  0.00    +0.000 C 
ATOM      5  C   UNL     1       3.204   6.663  17.450  0.00  0.00    +0.000 C 
ATOM      6  C   UNL     1       3.191   5.173  17.879  0.00  0.00    +0.000 C 
ATOM      7  C   UNL     1       4.060   4.361  16.893  0.00  0.00    +0.000 C 
ENDROOT
BRANCH   5   8
ATOM      8  C   UNL     1       2.428   7.589  18.381  0.00  0.00    +0.000 A 
ATOM      9  C   UNL     1       2.328   7.287  19.753  0.00  0.00    +0.000 A 
ATOM     10  C   UNL     1       1.580   8.104  20.606  0.00  0.00    +0.000 A 
ATOM     11  C   UNL     1       0.925   9.221  20.102  0.00  0.00    +0.000 A 
ATOM     12 CL   UNL     1      -0.015  10.214  21.145  0.00  0.00    +0.000 Cl
ATOM     13  C   UNL     1       1.025   9.544  18.750  0.00  0.00    +0.000 A 
ATOM     14  C   UNL     1       1.777   8.733  17.900  0.00  0.00    +0.000 A 
ENDBRANCH   5   8
BRANCH   6  15
ATOM     15  C   UNL     1       1.771   4.584  17.967  0.00  0.00    +0.000 C 
BRANCH  15  16
ATOM     16  S   UNL     1       1.706   2.795  18.393  0.00  0.00    +0.000 S 
BRANCH  16  17
ATOM     17  C   UNL     1       2.798   2.759  19.868  0.00  0.00    +0.000 C 
BRANCH  17  18
ATOM     18  C   UNL     1       4.042   1.916  19.588  0.00  0.00    +0.000 C 
BRANCH  18  19
ATOM     19  O   UNL     1       5.243   2.664  19.755  0.00  0.00    +0.000 OA
ATOM     20  H   UNL     1       5.809   2.137  20.350  0.00  0.00    +0.000 HD
ENDBRANCH  18  19
ENDBRANCH  17  18
ENDBRANCH  16  17
ENDBRANCH  15  16
ENDBRANCH   6  15
TORSDOF 6
ENDMDL
MODEL 2
REMARK VINA RESULT:      -6.2      2.228      3.351
REMARK  Name = 
REMARK  7 active torsions:
REMARK  status: ('A' for Active; 'I' for Inactive)
REMARK    1  A    between atoms: C_1  and  N_2
REMARK    2  A    between atoms: C_5  and  C_6
REMARK    3  A    between atoms: C_13  and  C_14
REMARK    4  A    between atoms: C_14  and  S_15
REMARK    5  A    between atoms: S_15  and  C_16
REMARK    6  A    between atoms: C_16  and  C_17
REMARK    7  A    between atoms: C_17  and  O_18
REMARK                            x       y       z     vdW  Elec       q    Type
REMARK                         _______ _______ _______ _____ _____    ______ ____
ROOT
ATOM      1  C   UNL     1       3.504   1.817  18.054  0.00  0.00    +0.000 C 
ATOM      2  N   UNL     1       3.006   3.192  18.099  0.00  0.00    +0.000 NA
ATOM      3  C   UNL     1       2.374   3.471  19.388  0.00  0.00    +0.000 C 
ATOM      4  C   UNL     1       1.798   4.885  19.412  0.00  0.00    +0.000 C 
ATOM      5  C   UNL     1       2.876   5.943  19.087  0.00  0.00    +0.000 C 
ATOM      6  C   UNL     1       3.557   5.587  17.740  0.00  0.00    +0.000 C 
ATOM      7  C   UNL     1       4.092   4.140  17.816  0.00  0.00    +0.000 C 
ENDROOT
BRANCH   5   8
ATOM      8  C   UNL     1       2.248   7.333  19.123  0.00  0.00    +0.000 A 
ATOM      9  C   UNL     1       1.785   7.865  20.341  0.00  0.00    +0.000 A 
ATOM     10  C   UNL     1       1.166   9.118  20.377  0.00  0.00    +0.000 A 
ATOM     11  C   UNL     1       1.001   9.847  19.206  0.00  0.00    +0.000 A 
ATOM     12 CL   UNL     1       0.220  11.378  19.244  0.00  0.00    +0.000 Cl
ATOM     13  C   UNL     1       1.468   9.343  17.993  0.00  0.00    +0.000 A 
ATOM     14  C   UNL     1       2.092   8.096  17.957  0.00  0.00    +0.000 A 
ENDBRANCH   5   8
BRANCH   6  15
ATOM     15  C   UNL     1       4.684   6.566  17.358  0.00  0.00    +0.000 C 
BRANCH  15  16
ATOM     16  S   UNL     1       6.271   5.764  16.885  0.00  0.00    +0.000 S 
BRANCH  16  17
ATOM     17  C   UNL     1       7.411   6.525  18.104  0.00  0.00    +0.000 C 
BRANCH  17  18
ATOM     18  C   UNL     1       8.058   5.447  18.973  0.00  0.00    +0.000 C 
BRANCH  18  19
ATOM     19  O   UNL     1       7.736   5.607  20.351  0.00  0.00    +0.000 OA
ATOM     20  H   UNL     1       6.764   5.683  20.394  0.00  0.00    +0.000 HD
ENDBRANCH  18  19
ENDBRANCH  17  18
ENDBRANCH  16  17
ENDBRANCH  15  16
ENDBRANCH   6  15
TORSDOF 6
ENDMDL
MODEL 3
REMARK VINA RESULT:      -6.2      2.123      3.500
REMARK  Name = 
REMARK  7 active torsions:
REMARK  status: ('A' for Active; 'I' for Inactive)
REMARK    1  A    between atoms: C_1  and  N_2
REMARK    2  A    between atoms: C_5  and  C_6
REMARK    3  A    between atoms: C_13  and  C_14
REMARK    4  A    between atoms: C_14  and  S_15
REMARK    5  A    between atoms: S_15  and  C_16
REMARK    6  A    between atoms: C_16  and  C_17
REMARK    7  A    between atoms: C_17  and  O_18
REMARK                            x       y       z     vdW  Elec       q    Type
REMARK                         _______ _______ _______ _____ _____    ______ ____
ROOT
ATOM      1  C   UNL     1       3.328   1.607  18.945  0.00  0.00    +0.000 C 
ATOM      2  N   UNL     1       2.886   2.994  18.803  0.00  0.00    +0.000 NA
ATOM      3  C   UNL     1       2.153   3.428  19.992  0.00  0.00    +0.000 C 
ATOM      4  C   UNL     1       1.636   4.854  19.816  0.00  0.00    +0.000 C 
ATOM      5  C   UNL     1       2.782   5.836  19.487  0.00  0.00    +0.000 C 
ATOM      6  C   UNL     1       3.567   5.318  18.253  0.00  0.00    +0.000 C 
ATOM      7  C   UNL     1       4.031   3.871  18.528  0.00  0.00    +0.000 C 
ENDROOT
BRANCH   5   8
ATOM      8  C   UNL     1       2.213   7.242  19.322  0.00  0.00    +0.000 A 
ATOM      9  C   UNL     1       1.687   7.925  20.435  0.00  0.00    +0.000 A 
ATOM     10  C   UNL     1       1.120   9.194  20.285  0.00  0.00    +0.000 A 
ATOM     11  C   UNL     1       1.070   9.790  19.031  0.00  0.00    +0.000 A 
ATOM     12 CL   UNL     1       0.352  11.341  18.841  0.00  0.00    +0.000 Cl
ATOM     13  C   UNL     1       1.599   9.136  17.920  0.00  0.00    +0.000 A 
ATOM     14  C   UNL     1       2.171   7.872  18.070  0.00  0.00    +0.000 A 
ENDBRANCH   5   8
BRANCH   6  15
ATOM     15  C   UNL     1       4.763   6.214  17.880  0.00  0.00    +0.000 C 
BRANCH  15  16
ATOM     16  S   UNL     1       5.342   6.039  16.143  0.00  0.00    +0.000 S 
BRANCH  16  17
ATOM     17  C   UNL     1       7.147   5.839  16.406  0.00  0.00    +0.000 C 
BRANCH  17  18
ATOM     18  C   UNL     1       7.418   5.214  17.775  0.00  0.00    +0.000 C 
BRANCH  18  19
ATOM     19  O   UNL     1       8.156   4.000  17.671  0.00  0.00    +0.000 OA
ATOM     20  H   UNL     1       9.098   4.255  17.679  0.00  0.00    +0.000 HD
ENDBRANCH  18  19
ENDBRANCH  17  18
ENDBRANCH  16  17
ENDBRANCH  15  16
ENDBRANCH   6  15
TORSDOF 6
ENDMDL
MODEL 4
REMARK VINA RESULT:      -6.2      2.283      3.555
REMARK  Name = 
REMARK  7 active torsions:
REMARK  status: ('A' for Active; 'I' for Inactive)
REMARK    1  A    between atoms: C_1  and  N_2
REMARK    2  A    between atoms: C_5  and  C_6
REMARK    3  A    between atoms: C_13  and  C_14
REMARK    4  A    between atoms: C_14  and  S_15
REMARK    5  A    between atoms: S_15  and  C_16
REMARK    6  A    between atoms: C_16  and  C_17
REMARK    7  A    between atoms: C_17  and  O_18
REMARK                            x       y       z     vdW  Elec       q    Type
REMARK                         _______ _______ _______ _____ _____    ______ ____
ROOT
ATOM      1  C   UNL     1       3.655   1.475  18.832  0.00  0.00    +0.000 C 
ATOM      2  N   UNL     1       3.149   2.841  18.703  0.00  0.00    +0.000 NA
ATOM      3  C   UNL     1       2.430   3.243  19.912  0.00  0.00    +0.000 C 
ATOM      4  C   UNL     1       1.846   4.644  19.753  0.00  0.00    +0.000 C 
ATOM      5  C   UNL     1       2.938   5.677  19.394  0.00  0.00    +0.000 C 
ATOM      6  C   UNL     1       3.711   5.194  18.138  0.00  0.00    +0.000 C 
ATOM      7  C   UNL     1       4.246   3.769  18.398  0.00  0.00    +0.000 C 
ENDROOT
BRANCH   5   8
ATOM      8  C   UNL     1       2.303   7.056  19.245  0.00  0.00    +0.000 A 
ATOM      9  C   UNL     1       2.230   7.665  17.978  0.00  0.00    +0.000 A 
ATOM     10  C   UNL     1       1.692   8.948  17.839  0.00  0.00    +0.000 A 
ATOM     11  C   UNL     1       1.228   9.633  18.956  0.00  0.00    +0.000 A 
ATOM     12 CL   UNL     1       0.587  11.220  18.790  0.00  0.00    +0.000 Cl
ATOM     13  C   UNL     1       1.277   9.039  20.216  0.00  0.00    +0.000 A 
ATOM     14  C   UNL     1       1.808   7.756  20.354  0.00  0.00    +0.000 A 
ENDBRANCH   5   8
BRANCH   6  15
ATOM     15  C   UNL     1       4.856   6.142  17.734  0.00  0.00    +0.000 C 
BRANCH  15  16
ATOM     16  S   UNL     1       6.319   5.307  16.993  0.00  0.00    +0.000 S 
BRANCH  16  17
ATOM     17  C   UNL     1       7.630   5.811  18.174  0.00  0.00    +0.000 C 
BRANCH  17  18
ATOM     18  C   UNL     1       7.139   5.654  19.613  0.00  0.00    +0.000 C 
BRANCH  18  19
ATOM     19  O   UNL     1       8.196   5.310  20.504  0.00  0.00    +0.000 OA
ATOM     20  H   UNL     1       7.953   5.690  21.369  0.00  0.00    +0.000 HD
ENDBRANCH  18  19
ENDBRANCH  17  18
ENDBRANCH  16  17
ENDBRANCH  15  16
ENDBRANCH   6  15
TORSDOF 6
ENDMDL
MODEL 5
REMARK VINA RESULT:      -6.1      1.195      1.718
REMARK  Name = 
REMARK  7 active torsions:
REMARK  status: ('A' for Active; 'I' for Inactive)
REMARK    1  A    between atoms: C_1  and  N_2
REMARK    2  A    between atoms: C_5  and  C_6
REMARK    3  A    between atoms: C_13  and  C_14
REMARK    4  A    between atoms: C_14  and  S_15
REMARK    5  A    between atoms: S_15  and  C_16
REMARK    6  A    between atoms: C_16  and  C_17
REMARK    7  A    between atoms: C_17  and  O_18
REMARK                            x       y       z     vdW  Elec       q    Type
REMARK                         _______ _______ _______ _____ _____    ______ ____
ROOT
ATOM      1  C   UNL     1       6.870   4.318  16.372  0.00  0.00    +0.000 C 
ATOM      2  N   UNL     1       5.918   5.126  17.134  0.00  0.00    +0.000 NA
ATOM      3  C   UNL     1       5.733   6.435  16.507  0.00  0.00    +0.000 C 
ATOM      4  C   UNL     1       4.789   7.302  17.337  0.00  0.00    +0.000 C 
ATOM      5  C   UNL     1       3.430   6.603  17.565  0.00  0.00    +0.000 C 
ATOM      6  C   UNL     1       3.668   5.201  18.183  0.00  0.00    +0.000 C 
ATOM      7  C   UNL     1       4.641   4.414  17.278  0.00  0.00    +0.000 C 
ENDROOT
BRANCH   5   8
ATOM      8  C   UNL     1       2.528   7.509  18.398  0.00  0.00    +0.000 A 
ATOM      9  C   UNL     1       1.902   8.621  17.801  0.00  0.00    +0.000 A 
ATOM     10  C   UNL     1       1.112   9.484  18.566  0.00  0.00    +0.000 A 
ATOM     11  C   UNL     1       0.941   9.250  19.926  0.00  0.00    +0.000 A 
ATOM     12 CL   UNL     1      -0.012  10.323  20.873  0.00  0.00    +0.000 Cl
ATOM     13  C   UNL     1       1.539   8.146  20.529  0.00  0.00    +0.000 A 
ATOM     14  C   UNL     1       2.323   7.281  19.765  0.00  0.00    +0.000 A 
ENDBRANCH   5   8
BRANCH   6  15
ATOM     15  C   UNL     1       2.364   4.409  18.401  0.00  0.00    +0.000 C 
BRANCH  15  16
ATOM     16  S   UNL     1       2.598   2.606  18.679  0.00  0.00    +0.000 S 
BRANCH  16  17
ATOM     17  C   UNL     1       3.159   2.603  20.426  0.00  0.00    +0.000 C 
BRANCH  17  18
ATOM     18  C   UNL     1       2.167   3.365  21.305  0.00  0.00    +0.000 C 
BRANCH  18  19
ATOM     19  O   UNL     1       1.489   2.504  22.214  0.00  0.00    +0.000 OA
ATOM     20  H   UNL     1       0.722   3.009  22.544  0.00  0.00    +0.000 HD
ENDBRANCH  18  19
ENDBRANCH  17  18
ENDBRANCH  16  17
ENDBRANCH  15  16
ENDBRANCH   6  15
TORSDOF 6
ENDMDL
MODEL 6
REMARK VINA RESULT:      -6.1      2.365      3.700
REMARK  Name = 
REMARK  7 active torsions:
REMARK  status: ('A' for Active; 'I' for Inactive)
REMARK    1  A    between atoms: C_1  and  N_2
REMARK    2  A    between atoms: C_5  and  C_6
REMARK    3  A    between atoms: C_13  and  C_14
REMARK    4  A    between atoms: C_14  and  S_15
REMARK    5  A    between atoms: S_15  and  C_16
REMARK    6  A    between atoms: C_16  and  C_17
REMARK    7  A    between atoms: C_17  and  O_18
REMARK                            x       y       z     vdW  Elec       q    Type
REMARK                         _______ _______ _______ _____ _____    ______ ____
ROOT
ATOM      1  C   UNL     1       3.688   1.715  18.779  0.00  0.00    +0.000 C 
ATOM      2  N   UNL     1       3.155   3.073  18.685  0.00  0.00    +0.000 NA
ATOM      3  C   UNL     1       2.523   3.469  19.943  0.00  0.00    +0.000 C 
ATOM      4  C   UNL     1       1.910   4.863  19.823  0.00  0.00    +0.000 C 
ATOM      5  C   UNL     1       2.958   5.908  19.381  0.00  0.00    +0.000 C 
ATOM      6  C   UNL     1       3.641   5.431  18.073  0.00  0.00    +0.000 C 
ATOM      7  C   UNL     1       4.214   4.014  18.296  0.00  0.00    +0.000 C 
ENDROOT
BRANCH   5   8
ATOM      8  C   UNL     1       2.295   7.278  19.277  0.00  0.00    +0.000 A 
ATOM      9  C   UNL     1       1.699   7.860  20.412  0.00  0.00    +0.000 A 
ATOM     10  C   UNL     1       1.047   9.093  20.317  0.00  0.00    +0.000 A 
ATOM     11  C   UNL     1       0.982   9.753  19.095  0.00  0.00    +0.000 A 
ATOM     12 CL   UNL     1       0.161  11.259  18.971  0.00  0.00    +0.000 Cl
ATOM     13  C   UNL     1       1.580   9.200  17.965  0.00  0.00    +0.000 A 
ATOM     14  C   UNL     1       2.236   7.972  18.061  0.00  0.00    +0.000 A 
ENDBRANCH   5   8
BRANCH   6  15
ATOM     15  C   UNL     1       4.740   6.393  17.582  0.00  0.00    +0.000 C 
BRANCH  15  16
ATOM     16  S   UNL     1       6.209   5.568  16.842  0.00  0.00    +0.000 S 
BRANCH  16  17
ATOM     17  C   UNL     1       5.532   5.074  15.210  0.00  0.00    +0.000 C 
BRANCH  17  18
ATOM     18  C   UNL     1       6.668   4.789  14.227  0.00  0.00    +0.000 C 
BRANCH  18  19
ATOM     19  O   UNL     1       7.897   5.373  14.647  0.00  0.00    +0.000 OA
ATOM     20  H   UNL     1       7.746   5.698  15.555  0.00  0.00    +0.000 HD
ENDBRANCH  18  19
ENDBRANCH  17  18
ENDBRANCH  16  17
ENDBRANCH  15  16
ENDBRANCH   6  15
TORSDOF 6
ENDMDL
MODEL 7
REMARK VINA RESULT:      -6.1      2.446      3.785
REMARK  Name = 
REMARK  7 active torsions:
REMARK  status: ('A' for Active; 'I' for Inactive)
REMARK    1  A    between atoms: C_1  and  N_2
REMARK    2  A    between atoms: C_5  and  C_6
REMARK    3  A    between atoms: C_13  and  C_14
REMARK    4  A    between atoms: C_14  and  S_15
REMARK    5  A    between atoms: S_15  and  C_16
REMARK    6  A    between atoms: C_16  and  C_17
REMARK    7  A    between atoms: C_17  and  O_18
REMARK                            x       y       z     vdW  Elec       q    Type
REMARK                         _______ _______ _______ _____ _____    ______ ____
ROOT
ATOM      1  C   UNL     1       3.802   1.335  18.101  0.00  0.00    +0.000 C 
ATOM      2  N   UNL     1       3.431   2.750  18.076  0.00  0.00    +0.000 NA
ATOM      3  C   UNL     1       2.131   2.956  18.713  0.00  0.00    +0.000 C 
ATOM      4  C   UNL     1       1.715   4.423  18.630  0.00  0.00    +0.000 C 
ATOM      5  C   UNL     1       2.784   5.351  19.249  0.00  0.00    +0.000 C 
ATOM      6  C   UNL     1       4.157   5.071  18.585  0.00  0.00    +0.000 C 
ATOM      7  C   UNL     1       4.476   3.565  18.712  0.00  0.00    +0.000 C 
ENDROOT
BRANCH   5   8
ATOM      8  C   UNL     1       2.320   6.801  19.139  0.00  0.00    +0.000 A 
ATOM      9  C   UNL     1       2.461   7.495  17.923  0.00  0.00    +0.000 A 
ATOM     10  C   UNL     1       2.082   8.838  17.826  0.00  0.00    +0.000 A 
ATOM     11  C   UNL     1       1.565   9.497  18.934  0.00  0.00    +0.000 A 
ATOM     12 CL   UNL     1       1.120  11.155  18.823  0.00  0.00    +0.000 Cl
ATOM     13  C   UNL     1       1.403   8.821  20.142  0.00  0.00    +0.000 A 
ATOM     14  C   UNL     1       1.775   7.479  20.238  0.00  0.00    +0.000 A 
ENDBRANCH   5   8
BRANCH   6  15
ATOM     15  C   UNL     1       5.297   5.922  19.176  0.00  0.00    +0.000 C 
BRANCH  15  16
ATOM     16  S   UNL     1       6.987   5.402  18.668  0.00  0.00    +0.000 S 
BRANCH  16  17
ATOM     17  C   UNL     1       7.036   6.045  16.950  0.00  0.00    +0.000 C 
BRANCH  17  18
ATOM     18  C   UNL     1       7.004   4.891  15.949  0.00  0.00    +0.000 C 
BRANCH  18  19
ATOM     19  O   UNL     1       7.519   5.272  14.677  0.00  0.00    +0.000 OA
ATOM     20  H   UNL     1       8.040   4.512  14.358  0.00  0.00    +0.000 HD
ENDBRANCH  18  19
ENDBRANCH  17  18
ENDBRANCH  16  17
ENDBRANCH  15  16
ENDBRANCH   6  15
TORSDOF 6
ENDMDL
MODEL 8
REMARK VINA RESULT:      -6.1      2.419      3.733
REMARK  Name = 
REMARK  7 active torsions:
REMARK  status: ('A' for Active; 'I' for Inactive)
REMARK    1  A    between atoms: C_1  and  N_2
REMARK    2  A    between atoms: C_5  and  C_6
REMARK    3  A    between atoms: C_13  and  C_14
REMARK    4  A    between atoms: C_14  and  S_15
REMARK    5  A    between atoms: S_15  and  C_16
REMARK    6  A    between atoms: C_16  and  C_17
REMARK    7  A    between atoms: C_17  and  O_18
REMARK                            x       y       z     vdW  Elec       q    Type
REMARK                         _______ _______ _______ _____ _____    ______ ____
ROOT
ATOM      1  C   UNL     1       3.641   1.381  18.518  0.00  0.00    +0.000 C 
ATOM      2  N   UNL     1       3.246   2.787  18.442  0.00  0.00    +0.000 NA
ATOM      3  C   UNL     1       2.080   3.043  19.288  0.00  0.00    +0.000 C 
ATOM      4  C   UNL     1       1.629   4.496  19.158  0.00  0.00    +0.000 C 
ATOM      5  C   UNL     1       2.775   5.479  19.488  0.00  0.00    +0.000 C 
ATOM      6  C   UNL     1       4.009   5.145  18.608  0.00  0.00    +0.000 C 
ATOM      7  C   UNL     1       4.373   3.657  18.802  0.00  0.00    +0.000 C 
ENDROOT
BRANCH   5   8
ATOM      8  C   UNL     1       2.272   6.912  19.343  0.00  0.00    +0.000 A 
ATOM      9  C   UNL     1       1.716   7.578  20.451  0.00  0.00    +0.000 A 
ATOM     10  C   UNL     1       1.209   8.874  20.316  0.00  0.00    +0.000 A 
ATOM     11  C   UNL     1       1.249   9.513  19.083  0.00  0.00    +0.000 A 
ATOM     12 CL   UNL     1       0.605  11.098  18.910  0.00  0.00    +0.000 Cl
ATOM     13  C   UNL     1       1.810   8.874  17.979  0.00  0.00    +0.000 A 
ATOM     14  C   UNL     1       2.322   7.583  18.114  0.00  0.00    +0.000 A 
ENDBRANCH   5   8
BRANCH   6  15
ATOM     15  C   UNL     1       5.221   6.048  18.905  0.00  0.00    +0.000 C 
BRANCH  15  16
ATOM     16  S   UNL     1       6.857   5.246  18.646  0.00  0.00    +0.000 S 
BRANCH  16  17
ATOM     17  C   UNL     1       7.394   6.067  17.095  0.00  0.00    +0.000 C 
BRANCH  17  18
ATOM     18  C   UNL     1       6.778   5.370  15.883  0.00  0.00    +0.000 C 
BRANCH  18  19
ATOM     19  O   UNL     1       7.681   5.312  14.783  0.00  0.00    +0.000 OA
ATOM     20  H   UNL     1       8.517   5.704  15.099  0.00  0.00    +0.000 HD
ENDBRANCH  18  19
ENDBRANCH  17  18
ENDBRANCH  16  17
ENDBRANCH  15  16
ENDBRANCH   6  15
TORSDOF 6
ENDMDL
MODEL 9
REMARK VINA RESULT:      -6.1      1.679      2.115
REMARK  Name = 
REMARK  7 active torsions:
REMARK  status: ('A' for Active; 'I' for Inactive)
REMARK    1  A    between atoms: C_1  and  N_2
REMARK    2  A    between atoms: C_5  and  C_6
REMARK    3  A    between atoms: C_13  and  C_14
REMARK    4  A    between atoms: C_14  and  S_15
REMARK    5  A    between atoms: S_15  and  C_16
REMARK    6  A    between atoms: C_16  and  C_17
REMARK    7  A    between atoms: C_17  and  O_18
REMARK                            x       y       z     vdW  Elec       q    Type
REMARK                         _______ _______ _______ _____ _____    ______ ____
ROOT
ATOM      1  C   UNL     1       7.268   4.503  17.057  0.00  0.00    +0.000 C 
ATOM      2  N   UNL     1       6.257   5.404  17.612  0.00  0.00    +0.000 NA
ATOM      3  C   UNL     1       5.605   6.167  16.548  0.00  0.00    +0.000 C 
ATOM      4  C   UNL     1       4.595   7.152  17.132  0.00  0.00    +0.000 C 
ATOM      5  C   UNL     1       3.550   6.437  18.017  0.00  0.00    +0.000 C 
ATOM      6  C   UNL     1       4.279   5.600  19.101  0.00  0.00    +0.000 C 
ATOM      7  C   UNL     1       5.280   4.650  18.409  0.00  0.00    +0.000 C 
ENDROOT
BRANCH   5   8
ATOM      8  C   UNL     1       2.570   7.465  18.574  0.00  0.00    +0.000 A 
ATOM      9  C   UNL     1       2.100   8.508  17.753  0.00  0.00    +0.000 A 
ATOM     10  C   UNL     1       1.239   9.481  18.267  0.00  0.00    +0.000 A 
ATOM     11  C   UNL     1       0.842   9.427  19.598  0.00  0.00    +0.000 A 
ATOM     12 CL   UNL     1      -0.199  10.636  20.238  0.00  0.00    +0.000 Cl
ATOM     13  C   UNL     1       1.284   8.393  20.421  0.00  0.00    +0.000 A 
ATOM     14  C   UNL     1       2.139   7.418  19.907  0.00  0.00    +0.000 A 
ENDBRANCH   5   8
BRANCH   6  15
ATOM     15  C   UNL     1       3.312   4.811  20.003  0.00  0.00    +0.000 C 
BRANCH  15  16
ATOM     16  S   UNL     1       3.252   3.003  19.670  0.00  0.00    +0.000 S 
BRANCH  16  17
ATOM     17  C   UNL     1       2.007   2.949  18.323  0.00  0.00    +0.000 C 
BRANCH  17  18
ATOM     18  C   UNL     1       0.640   2.549  18.878  0.00  0.00    +0.000 C 
BRANCH  18  19
ATOM     19  O   UNL     1       0.460   2.986  20.222  0.00  0.00    +0.000 OA
ATOM     20  H   UNL     1       0.617   2.204  20.784  0.00  0.00    +0.000 HD
ENDBRANCH  18  19
ENDBRANCH  17  18
ENDBRANCH  16  17
ENDBRANCH  15  16
ENDBRANCH   6  15
TORSDOF 6
ENDMDL
