MODEL 1
REMARK VINA RESULT:      -8.3      0.000      0.000
REMARK  Name = 
REMARK  5 active torsions:
REMARK  status: ('A' for Active; 'I' for Inactive)
REMARK    1  A    between atoms: C_2  and  C_10
REMARK    2  A    between atoms: N_3  and  C_4
REMARK    3  A    between atoms: N_17  and  C_18
REMARK    4  A    between atoms: C_18  and  C_19
REMARK    5  A    between atoms: C_24  and  C_25
REMARK                            x       y       z     vdW  Elec       q    Type
REMARK                         _______ _______ _______ _____ _____    ______ ____
ROOT
ATOM      1  C   UNL     1       0.943   9.058  21.018  0.00  0.00    +0.000 C 
ATOM      2  C   UNL     1       0.179   8.362  21.870  0.00  0.00    +0.000 C 
ATOM      3  O   UNL     1      -0.501   9.054  22.815  0.00  0.00    +0.000 OA
ATOM      4  C   UNL     1      -0.449  10.302  22.280  0.00  0.00    +0.000 C 
ATOM      5  N   UNL     1      -1.273  11.091  22.828  0.00  0.00    +0.000 NA
ATOM      6  C   UNL     1      -1.854  12.140  22.202  0.00  0.00    +0.000 C 
ATOM      7  O   UNL     1      -2.827  12.705  22.693  0.00  0.00    +0.000 OA
ATOM      8  N   UNL     1      -1.412  12.431  20.926  0.00  0.00    +0.000 N 
ATOM      9  C   UNL     1      -0.016  12.862  20.844  0.00  0.00    +0.000 C 
ATOM     10  C   UNL     1       1.062  11.721  20.987  0.00  0.00    +0.000 C 
ATOM     11  N   UNL     1       0.472  10.380  21.197  0.00  0.00    +0.000 N 
ENDROOT
BRANCH   1  13
ATOM     12  O   UNL     1       1.958   8.363  18.893  0.00  0.00    +0.000 OA
ATOM     13  C   UNL     1       1.703   8.105  20.050  0.00  0.00    +0.000 C 
ATOM     14  N   UNL     1       1.946   6.873  20.747  0.00  0.00    +0.000 N 
ATOM     15  H   UNL     1       1.851   6.955  21.752  0.00  0.00    +0.000 HD
BRANCH  14  16
ATOM     16  C   UNL     1       2.030   5.487  20.399  0.00  0.00    +0.000 A 
ATOM     17  C   UNL     1       1.071   4.492  20.511  0.00  0.00    +0.000 A 
ATOM     18  C   UNL     1       1.357   3.194  20.012  0.00  0.00    +0.000 A 
ATOM     19  C   UNL     1       2.600   2.907  19.465  0.00  0.00    +0.000 A 
ATOM     20  N   UNL     1       3.579   3.827  19.397  0.00  0.00    +0.000 NA
ATOM     21  C   UNL     1       3.263   5.063  19.853  0.00  0.00    +0.000 A 
ENDBRANCH  14  16
ENDBRANCH   1  13
BRANCH   8  22
ATOM     22  C   UNL     1      -2.422  12.952  20.010  0.00  0.00    +0.000 C 
BRANCH  22  23
ATOM     23  C   UNL     1      -2.775  11.911  18.952  0.00  0.00    +0.000 A 
ATOM     24  C   UNL     1      -1.725  11.300  18.226  0.00  0.00    +0.000 A 
ATOM     25  C   UNL     1      -1.974  10.314  17.267  0.00  0.00    +0.000 A 
ATOM     26  C   UNL     1      -3.277   9.910  17.014  0.00  0.00    +0.000 A 
ATOM     27  C   UNL     1      -4.329  10.522  17.691  0.00  0.00    +0.000 A 
ATOM     28  C   UNL     1      -4.103  11.544  18.642  0.00  0.00    +0.000 A 
BRANCH  28  29
ATOM     29  C   UNL     1      -5.335  12.169  19.251  0.00  0.00    +0.000 C 
ATOM     30  F   UNL     1      -5.482  13.505  19.048  0.00  0.00    +0.000 F 
ATOM     31  F   UNL     1      -6.484  11.612  18.776  0.00  0.00    +0.000 F 
ATOM     32  F   UNL     1      -5.376  12.007  20.604  0.00  0.00    +0.000 F 
ENDBRANCH  28  29
ENDBRANCH  22  23
ENDBRANCH   8  22
TORSDOF 5
ENDMDL
MODEL 2
REMARK VINA RESULT:      -8.0      5.373      9.772
REMARK  Name = 
REMARK  5 active torsions:
REMARK  status: ('A' for Active; 'I' for Inactive)
REMARK    1  A    between atoms: C_2  and  C_10
REMARK    2  A    between atoms: N_3  and  C_4
REMARK    3  A    between atoms: N_17  and  C_18
REMARK    4  A    between atoms: C_18  and  C_19
REMARK    5  A    between atoms: C_24  and  C_25
REMARK                            x       y       z     vdW  Elec       q    Type
REMARK                         _______ _______ _______ _____ _____    ______ ____
ROOT
ATOM      1  C   UNL     1       1.864   7.372  18.972  0.00  0.00    +0.000 C 
ATOM      2  C   UNL     1       1.960   7.485  20.303  0.00  0.00    +0.000 C 
ATOM      3  O   UNL     1       1.915   6.347  21.037  0.00  0.00    +0.000 OA
ATOM      4  C   UNL     1       2.185   5.431  20.070  0.00  0.00    +0.000 C 
ATOM      5  N   UNL     1       2.495   4.304  20.555  0.00  0.00    +0.000 NA
ATOM      6  C   UNL     1       3.325   3.419  19.955  0.00  0.00    +0.000 C 
ATOM      7  O   UNL     1       3.791   2.472  20.579  0.00  0.00    +0.000 OA
ATOM      8  N   UNL     1       3.748   3.726  18.675  0.00  0.00    +0.000 N 
ATOM      9  C   UNL     1       2.685   3.760  17.670  0.00  0.00    +0.000 C 
ATOM     10  C   UNL     1       1.756   5.033  17.698  0.00  0.00    +0.000 C 
ATOM     11  N   UNL     1       2.113   5.995  18.765  0.00  0.00    +0.000 N 
ENDROOT
BRANCH   1  13
ATOM     12  O   UNL     1       2.448   9.041  17.268  0.00  0.00    +0.000 OA
ATOM     13  C   UNL     1       1.862   8.775  18.295  0.00  0.00    +0.000 C 
ATOM     14  N   UNL     1       1.134   9.673  19.148  0.00  0.00    +0.000 N 
ATOM     15  H   UNL     1       0.552   9.199  19.827  0.00  0.00    +0.000 HD
BRANCH  14  16
ATOM     16  C   UNL     1       1.202  11.063  19.483  0.00  0.00    +0.000 A 
ATOM     17  C   UNL     1       1.520  12.147  18.678  0.00  0.00    +0.000 A 
ATOM     18  C   UNL     1       1.435  13.458  19.216  0.00  0.00    +0.000 A 
ATOM     19  C   UNL     1       1.089  13.654  20.546  0.00  0.00    +0.000 A 
ATOM     20  N   UNL     1       0.836  12.626  21.375  0.00  0.00    +0.000 NA
ATOM     21  C   UNL     1       0.896  11.390  20.823  0.00  0.00    +0.000 A 
ENDBRANCH  14  16
ENDBRANCH   1  13
BRANCH   8  22
ATOM     22  C   UNL     1       5.100   3.295  18.336  0.00  0.00    +0.000 C 
BRANCH  22  23
ATOM     23  C   UNL     1       6.017   4.500  18.149  0.00  0.00    +0.000 A 
ATOM     24  C   UNL     1       6.501   5.168  19.300  0.00  0.00    +0.000 A 
ATOM     25  C   UNL     1       7.371   6.258  19.202  0.00  0.00    +0.000 A 
ATOM     26  C   UNL     1       7.783   6.703  17.954  0.00  0.00    +0.000 A 
ATOM     27  C   UNL     1       7.292   6.084  16.808  0.00  0.00    +0.000 A 
ATOM     28  C   UNL     1       6.386   5.001  16.882  0.00  0.00    +0.000 A 
BRANCH  28  29
ATOM     29  C   UNL     1       5.879   4.467  15.562  0.00  0.00    +0.000 C 
ATOM     30  F   UNL     1       4.552   4.642  15.325  0.00  0.00    +0.000 F 
ATOM     31  F   UNL     1       6.506   5.044  14.499  0.00  0.00    +0.000 F 
ATOM     32  F   UNL     1       6.091   3.127  15.437  0.00  0.00    +0.000 F 
ENDBRANCH  28  29
ENDBRANCH  22  23
ENDBRANCH   8  22
TORSDOF 5
ENDMDL
MODEL 3
REMARK VINA RESULT:      -7.8      1.022      1.209
REMARK  Name = 
REMARK  5 active torsions:
REMARK  status: ('A' for Active; 'I' for Inactive)
REMARK    1  A    between atoms: C_2  and  C_10
REMARK    2  A    between atoms: N_3  and  C_4
REMARK    3  A    between atoms: N_17  and  C_18
REMARK    4  A    between atoms: C_18  and  C_19
REMARK    5  A    between atoms: C_24  and  C_25
REMARK                            x       y       z     vdW  Elec       q    Type
REMARK                         _______ _______ _______ _____ _____    ______ ____
ROOT
ATOM      1  C   UNL     1       1.242   9.158  20.217  0.00  0.00    +0.000 C 
ATOM      2  C   UNL     1       0.664   8.274  21.040  0.00  0.00    +0.000 C 
ATOM      3  O   UNL     1       0.091   8.748  22.172  0.00  0.00    +0.000 OA
ATOM      4  C   UNL     1      -0.022  10.062  21.849  0.00  0.00    +0.000 C 
ATOM      5  N   UNL     1      -0.804  10.680  22.629  0.00  0.00    +0.000 NA
ATOM      6  C   UNL     1      -1.542  11.757  22.272  0.00  0.00    +0.000 C 
ATOM      7  O   UNL     1      -2.465  12.149  22.979  0.00  0.00    +0.000 OA
ATOM      8  N   UNL     1      -1.319  12.278  21.012  0.00  0.00    +0.000 N 
ATOM      9  C   UNL     1       0.016  12.841  20.809  0.00  0.00    +0.000 C 
ATOM     10  C   UNL     1       1.177  11.794  20.610  0.00  0.00    +0.000 C 
ATOM     11  N   UNL     1       0.716  10.389  20.675  0.00  0.00    +0.000 N 
ENDROOT
BRANCH   1  13
ATOM     12  O   UNL     1       1.832   8.814  17.859  0.00  0.00    +0.000 OA
ATOM     13  C   UNL     1       1.908   8.437  19.008  0.00  0.00    +0.000 C 
ATOM     14  N   UNL     1       2.523   7.235  19.498  0.00  0.00    +0.000 N 
ATOM     15  H   UNL     1       2.656   7.232  20.502  0.00  0.00    +0.000 HD
BRANCH  14  16
ATOM     16  C   UNL     1       2.767   5.919  18.993  0.00  0.00    +0.000 A 
ATOM     17  C   UNL     1       2.052   5.191  18.053  0.00  0.00    +0.000 A 
ATOM     18  C   UNL     1       2.540   3.924  17.639  0.00  0.00    +0.000 A 
ATOM     19  C   UNL     1       3.691   3.393  18.204  0.00  0.00    +0.000 A 
ATOM     20  N   UNL     1       4.377   4.038  19.165  0.00  0.00    +0.000 NA
ATOM     21  C   UNL     1       3.902   5.258  19.514  0.00  0.00    +0.000 A 
ENDBRANCH  14  16
ENDBRANCH   1  13
BRANCH   8  22
ATOM     22  C   UNL     1      -2.490  12.841  20.345  0.00  0.00    +0.000 C 
BRANCH  22  23
ATOM     23  C   UNL     1      -2.896  11.976  19.155  0.00  0.00    +0.000 A 
ATOM     24  C   UNL     1      -1.877  11.412  18.349  0.00  0.00    +0.000 A 
ATOM     25  C   UNL     1      -2.177  10.582  17.265  0.00  0.00    +0.000 A 
ATOM     26  C   UNL     1      -3.500  10.291  16.962  0.00  0.00    +0.000 A 
ATOM     27  C   UNL     1      -4.519  10.864  17.719  0.00  0.00    +0.000 A 
ATOM     28  C   UNL     1      -4.240  11.731  18.800  0.00  0.00    +0.000 A 
BRANCH  28  29
ATOM     29  C   UNL     1      -5.439  12.336  19.493  0.00  0.00    +0.000 C 
ATOM     30  F   UNL     1      -6.651  11.986  18.989  0.00  0.00    +0.000 F 
ATOM     31  F   UNL     1      -5.495  11.999  20.812  0.00  0.00    +0.000 F 
ATOM     32  F   UNL     1      -5.416  13.698  19.458  0.00  0.00    +0.000 F 
ENDBRANCH  28  29
ENDBRANCH  22  23
ENDBRANCH   8  22
TORSDOF 5
ENDMDL
MODEL 4
REMARK VINA RESULT:      -7.8      5.385      9.825
REMARK  Name = 
REMARK  5 active torsions:
REMARK  status: ('A' for Active; 'I' for Inactive)
REMARK    1  A    between atoms: C_2  and  C_10
REMARK    2  A    between atoms: N_3  and  C_4
REMARK    3  A    between atoms: N_17  and  C_18
REMARK    4  A    between atoms: C_18  and  C_19
REMARK    5  A    between atoms: C_24  and  C_25
REMARK                            x       y       z     vdW  Elec       q    Type
REMARK                         _______ _______ _______ _____ _____    ______ ____
ROOT
ATOM      1  C   UNL     1       1.864   7.390  18.764  0.00  0.00    +0.000 C 
ATOM      2  C   UNL     1       1.950   7.593  20.084  0.00  0.00    +0.000 C 
ATOM      3  O   UNL     1       1.896   6.509  20.894  0.00  0.00    +0.000 OA
ATOM      4  C   UNL     1       2.169   5.527  19.995  0.00  0.00    +0.000 C 
ATOM      5  N   UNL     1       2.471   4.435  20.558  0.00  0.00    +0.000 NA
ATOM      6  C   UNL     1       3.302   3.508  20.027  0.00  0.00    +0.000 C 
ATOM      7  O   UNL     1       3.760   2.604  20.718  0.00  0.00    +0.000 OA
ATOM      8  N   UNL     1       3.735   3.725  18.733  0.00  0.00    +0.000 N 
ATOM      9  C   UNL     1       2.680   3.694  17.719  0.00  0.00    +0.000 C 
ATOM     10  C   UNL     1       1.757   4.968  17.652  0.00  0.00    +0.000 C 
ATOM     11  N   UNL     1       2.109   6.000  18.653  0.00  0.00    +0.000 N 
ENDROOT
BRANCH   1  13
ATOM     12  O   UNL     1       2.694   9.048  17.154  0.00  0.00    +0.000 OA
ATOM     13  C   UNL     1       1.873   8.742  17.992  0.00  0.00    +0.000 C 
ATOM     14  N   UNL     1       0.813   9.556  18.521  0.00  0.00    +0.000 N 
ATOM     15  H   UNL     1       0.126   9.029  19.045  0.00  0.00    +0.000 HD
BRANCH  14  16
ATOM     16  C   UNL     1       0.593  10.953  18.736  0.00  0.00    +0.000 A 
ATOM     17  C   UNL     1       1.509  11.954  19.022  0.00  0.00    +0.000 A 
ATOM     18  C   UNL     1       1.062  13.299  19.108  0.00  0.00    +0.000 A 
ATOM     19  C   UNL     1      -0.283  13.606  18.959  0.00  0.00    +0.000 A 
ATOM     20  N   UNL     1      -1.211  12.657  18.744  0.00  0.00    +0.000 NA
ATOM     21  C   UNL     1      -0.748  11.388  18.637  0.00  0.00    +0.000 A 
ENDBRANCH  14  16
ENDBRANCH   1  13
BRANCH   8  22
ATOM     22  C   UNL     1       5.089   3.267  18.435  0.00  0.00    +0.000 C 
BRANCH  22  23
ATOM     23  C   UNL     1       6.023   4.454  18.221  0.00  0.00    +0.000 A 
ATOM     24  C   UNL     1       6.522   5.136  19.357  0.00  0.00    +0.000 A 
ATOM     25  C   UNL     1       7.408   6.210  19.235  0.00  0.00    +0.000 A 
ATOM     26  C   UNL     1       7.822   6.626  17.978  0.00  0.00    +0.000 A 
ATOM     27  C   UNL     1       7.315   5.994  16.845  0.00  0.00    +0.000 A 
ATOM     28  C   UNL     1       6.393   4.926  16.943  0.00  0.00    +0.000 A 
BRANCH  28  29
ATOM     29  C   UNL     1       5.872   4.376  15.636  0.00  0.00    +0.000 C 
ATOM     30  F   UNL     1       5.860   3.021  15.529  0.00  0.00    +0.000 F 
ATOM     31  F   UNL     1       4.588   4.761  15.391  0.00  0.00    +0.000 F 
ATOM     32  F   UNL     1       6.601   4.812  14.570  0.00  0.00    +0.000 F 
ENDBRANCH  28  29
ENDBRANCH  22  23
ENDBRANCH   8  22
TORSDOF 5
ENDMDL
MODEL 5
REMARK VINA RESULT:      -7.7      1.324      1.584
REMARK  Name = 
REMARK  5 active torsions:
REMARK  status: ('A' for Active; 'I' for Inactive)
REMARK    1  A    between atoms: C_2  and  C_10
REMARK    2  A    between atoms: N_3  and  C_4
REMARK    3  A    between atoms: N_17  and  C_18
REMARK    4  A    between atoms: C_18  and  C_19
REMARK    5  A    between atoms: C_24  and  C_25
REMARK                            x       y       z     vdW  Elec       q    Type
REMARK                         _______ _______ _______ _____ _____    ______ ____
ROOT
ATOM      1  C   UNL     1       1.604   9.001  19.756  0.00  0.00    +0.000 C 
ATOM      2  C   UNL     1       1.211   8.117  20.682  0.00  0.00    +0.000 C 
ATOM      3  O   UNL     1       0.720   8.602  21.848  0.00  0.00    +0.000 OA
ATOM      4  C   UNL     1       0.441   9.879  21.475  0.00  0.00    +0.000 C 
ATOM      5  N   UNL     1      -0.310  10.465  22.308  0.00  0.00    +0.000 NA
ATOM      6  C   UNL     1      -1.188  11.444  21.985  0.00  0.00    +0.000 C 
ATOM      7  O   UNL     1      -2.063  11.788  22.773  0.00  0.00    +0.000 OA
ATOM      8  N   UNL     1      -1.157  11.908  20.684  0.00  0.00    +0.000 N 
ATOM      9  C   UNL     1       0.085  12.581  20.303  0.00  0.00    +0.000 C 
ATOM     10  C   UNL     1       1.317  11.639  20.024  0.00  0.00    +0.000 C 
ATOM     11  N   UNL     1       1.010  10.203  20.211  0.00  0.00    +0.000 N 
ENDROOT
BRANCH   1  13
ATOM     12  O   UNL     1       2.195   8.723  17.389  0.00  0.00    +0.000 OA
ATOM     13  C   UNL     1       2.204   8.276  18.516  0.00  0.00    +0.000 C 
ATOM     14  N   UNL     1       2.664   6.984  18.943  0.00  0.00    +0.000 N 
ATOM     15  H   UNL     1       2.776   6.909  19.947  0.00  0.00    +0.000 HD
BRANCH  14  16
ATOM     16  C   UNL     1       2.761   5.678  18.365  0.00  0.00    +0.000 A 
ATOM     17  C   UNL     1       3.700   5.178  17.476  0.00  0.00    +0.000 A 
ATOM     18  C   UNL     1       3.643   3.808  17.106  0.00  0.00    +0.000 A 
ATOM     19  C   UNL     1       2.629   2.990  17.585  0.00  0.00    +0.000 A 
ATOM     20  N   UNL     1       1.663   3.453  18.397  0.00  0.00    +0.000 NA
ATOM     21  C   UNL     1       1.764   4.756  18.756  0.00  0.00    +0.000 A 
ENDBRANCH  14  16
ENDBRANCH   1  13
BRANCH   8  22
ATOM     22  C   UNL     1      -2.444  12.316  20.128  0.00  0.00    +0.000 C 
BRANCH  22  23
ATOM     23  C   UNL     1      -2.761  11.516  18.868  0.00  0.00    +0.000 A 
ATOM     24  C   UNL     1      -1.709  10.822  18.224  0.00  0.00    +0.000 A 
ATOM     25  C   UNL     1      -1.935  10.043  17.085  0.00  0.00    +0.000 A 
ATOM     26  C   UNL     1      -3.216   9.933  16.566  0.00  0.00    +0.000 A 
ATOM     27  C   UNL     1      -4.260  10.636  17.162  0.00  0.00    +0.000 A 
ATOM     28  C   UNL     1      -4.050  11.455  18.295  0.00  0.00    +0.000 A 
BRANCH  28  29
ATOM     29  C   UNL     1      -5.255  12.215  18.799  0.00  0.00    +0.000 C 
ATOM     30  F   UNL     1      -4.989  13.370  19.463  0.00  0.00    +0.000 F 
ATOM     31  F   UNL     1      -6.096  12.573  17.790  0.00  0.00    +0.000 F 
ATOM     32  F   UNL     1      -6.004  11.471  19.662  0.00  0.00    +0.000 F 
ENDBRANCH  28  29
ENDBRANCH  22  23
ENDBRANCH   8  22
TORSDOF 5
ENDMDL
MODEL 6
REMARK VINA RESULT:      -7.7      4.733      7.831
REMARK  Name = 
REMARK  5 active torsions:
REMARK  status: ('A' for Active; 'I' for Inactive)
REMARK    1  A    between atoms: C_2  and  C_10
REMARK    2  A    between atoms: N_3  and  C_4
REMARK    3  A    between atoms: N_17  and  C_18
REMARK    4  A    between atoms: C_18  and  C_19
REMARK    5  A    between atoms: C_24  and  C_25
REMARK                            x       y       z     vdW  Elec       q    Type
REMARK                         _______ _______ _______ _____ _____    ______ ____
ROOT
ATOM      1  C   UNL     1       4.629   3.622  17.448  0.00  0.00    +0.000 C 
ATOM      2  C   UNL     1       3.676   3.523  16.513  0.00  0.00    +0.000 C 
ATOM      3  O   UNL     1       2.435   3.156  16.913  0.00  0.00    +0.000 OA
ATOM      4  C   UNL     1       2.533   3.405  18.245  0.00  0.00    +0.000 C 
ATOM      5  N   UNL     1       1.400   3.424  18.810  0.00  0.00    +0.000 NA
ATOM      6  C   UNL     1       1.108   4.164  19.905  0.00  0.00    +0.000 C 
ATOM      7  O   UNL     1      -0.056   4.345  20.250  0.00  0.00    +0.000 OA
ATOM      8  N   UNL     1       2.157   4.835  20.506  0.00  0.00    +0.000 N 
ATOM      9  C   UNL     1       3.186   3.970  21.084  0.00  0.00    +0.000 C 
ATOM     10  C   UNL     1       4.171   3.296  20.055  0.00  0.00    +0.000 C 
ATOM     11  N   UNL     1       3.877   3.647  18.647  0.00  0.00    +0.000 N 
ENDROOT
BRANCH   1  13
ATOM     12  O   UNL     1       6.880   4.599  17.371  0.00  0.00    +0.000 OA
ATOM     13  C   UNL     1       6.001   3.983  16.807  0.00  0.00    +0.000 C 
ATOM     14  N   UNL     1       5.977   3.541  15.441  0.00  0.00    +0.000 N 
ATOM     15  H   UNL     1       5.247   2.866  15.250  0.00  0.00    +0.000 HD
BRANCH  14  16
ATOM     16  C   UNL     1       6.535   3.987  14.201  0.00  0.00    +0.000 A 
ATOM     17  C   UNL     1       6.300   3.526  12.914  0.00  0.00    +0.000 A 
ATOM     18  C   UNL     1       6.910   4.190  11.817  0.00  0.00    +0.000 A 
ATOM     19  C   UNL     1       7.774   5.255  12.030  0.00  0.00    +0.000 A 
ATOM     20  N   UNL     1       8.078   5.691  13.266  0.00  0.00    +0.000 NA
ATOM     21  C   UNL     1       7.455   5.056  14.288  0.00  0.00    +0.000 A 
ENDBRANCH  14  16
ENDBRANCH   1  13
BRANCH   8  22
ATOM     22  C   UNL     1       1.822   6.123  21.106  0.00  0.00    +0.000 C 
BRANCH  22  23
ATOM     23  C   UNL     1       1.871   7.231  20.058  0.00  0.00    +0.000 A 
ATOM     24  C   UNL     1       2.688   7.047  18.916  0.00  0.00    +0.000 A 
ATOM     25  C   UNL     1       2.753   8.006  17.901  0.00  0.00    +0.000 A 
ATOM     26  C   UNL     1       2.000   9.168  17.998  0.00  0.00    +0.000 A 
ATOM     27  C   UNL     1       1.218   9.386  19.129  0.00  0.00    +0.000 A 
ATOM     28  C   UNL     1       1.161   8.445  20.183  0.00  0.00    +0.000 A 
BRANCH  28  29
ATOM     29  C   UNL     1       0.327   8.837  21.380  0.00  0.00    +0.000 C 
ATOM     30  F   UNL     1      -0.744   8.042  21.639  0.00  0.00    +0.000 F 
ATOM     31  F   UNL     1       1.052   8.838  22.534  0.00  0.00    +0.000 F 
ATOM     32  F   UNL     1      -0.182  10.095  21.259  0.00  0.00    +0.000 F 
ENDBRANCH  28  29
ENDBRANCH  22  23
ENDBRANCH   8  22
TORSDOF 5
ENDMDL
MODEL 7
REMARK VINA RESULT:      -7.6      5.381      9.757
REMARK  Name = 
REMARK  5 active torsions:
REMARK  status: ('A' for Active; 'I' for Inactive)
REMARK    1  A    between atoms: C_2  and  C_10
REMARK    2  A    between atoms: N_3  and  C_4
REMARK    3  A    between atoms: N_17  and  C_18
REMARK    4  A    between atoms: C_18  and  C_19
REMARK    5  A    between atoms: C_24  and  C_25
REMARK                            x       y       z     vdW  Elec       q    Type
REMARK                         _______ _______ _______ _____ _____    ______ ____
ROOT
ATOM      1  C   UNL     1       1.852   7.314  19.012  0.00  0.00    +0.000 C 
ATOM      2  C   UNL     1       1.971   7.406  20.342  0.00  0.00    +0.000 C 
ATOM      3  O   UNL     1       1.959   6.255  21.057  0.00  0.00    +0.000 OA
ATOM      4  C   UNL     1       2.225   5.360  20.070  0.00  0.00    +0.000 C 
ATOM      5  N   UNL     1       2.563   4.231  20.530  0.00  0.00    +0.000 NA
ATOM      6  C   UNL     1       3.396   3.370  19.899  0.00  0.00    +0.000 C 
ATOM      7  O   UNL     1       3.890   2.420  20.498  0.00  0.00    +0.000 OA
ATOM      8  N   UNL     1       3.789   3.706  18.617  0.00  0.00    +0.000 N 
ATOM      9  C   UNL     1       2.707   3.738  17.633  0.00  0.00    +0.000 C 
ATOM     10  C   UNL     1       1.759   4.994  17.699  0.00  0.00    +0.000 C 
ATOM     11  N   UNL     1       2.119   5.944  18.776  0.00  0.00    +0.000 N 
ENDROOT
BRANCH   1  13
ATOM     12  O   UNL     1       2.413   9.033  17.350  0.00  0.00    +0.000 OA
ATOM     13  C   UNL     1       1.813   8.727  18.359  0.00  0.00    +0.000 C 
ATOM     14  N   UNL     1       1.035   9.583  19.210  0.00  0.00    +0.000 N 
ATOM     15  H   UNL     1       0.455   9.076  19.867  0.00  0.00    +0.000 HD
BRANCH  14  16
ATOM     16  C   UNL     1       1.044  10.968  19.570  0.00  0.00    +0.000 A 
ATOM     17  C   UNL     1       0.884  11.554  20.817  0.00  0.00    +0.000 A 
ATOM     18  C   UNL     1       1.022  12.961  20.944  0.00  0.00    +0.000 A 
ATOM     19  C   UNL     1       1.262  13.750  19.827  0.00  0.00    +0.000 A 
ATOM     20  N   UNL     1       1.359  13.227  18.592  0.00  0.00    +0.000 NA
ATOM     21  C   UNL     1       1.254  11.878  18.510  0.00  0.00    +0.000 A 
ENDBRANCH  14  16
ENDBRANCH   1  13
BRANCH   8  22
ATOM     22  C   UNL     1       5.143   3.302  18.246  0.00  0.00    +0.000 C 
BRANCH  22  23
ATOM     23  C   UNL     1       6.050   4.523  18.122  0.00  0.00    +0.000 A 
ATOM     24  C   UNL     1       6.524   5.137  19.306  0.00  0.00    +0.000 A 
ATOM     25  C   UNL     1       7.386   6.236  19.265  0.00  0.00    +0.000 A 
ATOM     26  C   UNL     1       7.801   6.746  18.043  0.00  0.00    +0.000 A 
ATOM     27  C   UNL     1       7.319   6.180  16.866  0.00  0.00    +0.000 A 
ATOM     28  C   UNL     1       6.421   5.087  16.882  0.00  0.00    +0.000 A 
BRANCH  28  29
ATOM     29  C   UNL     1       5.924   4.615  15.536  0.00  0.00    +0.000 C 
ATOM     30  F   UNL     1       6.527   5.174  14.454  0.00  0.00    +0.000 F 
ATOM     31  F   UNL     1       6.081   3.272  15.372  0.00  0.00    +0.000 F 
ATOM     32  F   UNL     1       4.593   4.857  15.368  0.00  0.00    +0.000 F 
ENDBRANCH  28  29
ENDBRANCH  22  23
ENDBRANCH   8  22
TORSDOF 5
ENDMDL
MODEL 8
REMARK VINA RESULT:      -7.6      5.421      9.732
REMARK  Name = 
REMARK  5 active torsions:
REMARK  status: ('A' for Active; 'I' for Inactive)
REMARK    1  A    between atoms: C_2  and  C_10
REMARK    2  A    between atoms: N_3  and  C_4
REMARK    3  A    between atoms: N_17  and  C_18
REMARK    4  A    between atoms: C_18  and  C_19
REMARK    5  A    between atoms: C_24  and  C_25
REMARK                            x       y       z     vdW  Elec       q    Type
REMARK                         _______ _______ _______ _____ _____    ______ ____
ROOT
ATOM      1  C   UNL     1       1.833   7.496  18.996  0.00  0.00    +0.000 C 
ATOM      2  C   UNL     1       1.836   7.620  20.329  0.00  0.00    +0.000 C 
ATOM      3  O   UNL     1       1.750   6.487  21.067  0.00  0.00    +0.000 OA
ATOM      4  C   UNL     1       2.093   5.566  20.128  0.00  0.00    +0.000 C 
ATOM      5  N   UNL     1       2.378   4.445  20.641  0.00  0.00    +0.000 NA
ATOM      6  C   UNL     1       3.254   3.563  20.107  0.00  0.00    +0.000 C 
ATOM      7  O   UNL     1       3.685   2.624  20.768  0.00  0.00    +0.000 OA
ATOM      8  N   UNL     1       3.761   3.865  18.857  0.00  0.00    +0.000 N 
ATOM      9  C   UNL     1       2.770   3.882  17.781  0.00  0.00    +0.000 C 
ATOM     10  C   UNL     1       1.832   5.147  17.735  0.00  0.00    +0.000 C 
ATOM     11  N   UNL     1       2.106   6.120  18.816  0.00  0.00    +0.000 N 
ENDROOT
BRANCH   1  13
ATOM     12  O   UNL     1       2.479   9.145  17.294  0.00  0.00    +0.000 OA
ATOM     13  C   UNL     1       1.866   8.894  18.309  0.00  0.00    +0.000 C 
ATOM     14  N   UNL     1       1.132   9.808  19.140  0.00  0.00    +0.000 N 
ATOM     15  H   UNL     1       0.527   9.347  19.808  0.00  0.00    +0.000 HD
BRANCH  14  16
ATOM     16  C   UNL     1       1.212  11.199  19.466  0.00  0.00    +0.000 A 
ATOM     17  C   UNL     1       1.500  12.280  18.647  0.00  0.00    +0.000 A 
ATOM     18  C   UNL     1       1.435  13.593  19.182  0.00  0.00    +0.000 A 
ATOM     19  C   UNL     1       1.137  13.794  20.523  0.00  0.00    +0.000 A 
ATOM     20  N   UNL     1       0.914  12.769  21.365  0.00  0.00    +0.000 NA
ATOM     21  C   UNL     1       0.954  11.531  20.815  0.00  0.00    +0.000 A 
ENDBRANCH  14  16
ENDBRANCH   1  13
BRANCH   8  22
ATOM     22  C   UNL     1       5.138   3.442  18.614  0.00  0.00    +0.000 C 
BRANCH  22  23
ATOM     23  C   UNL     1       5.691   4.110  17.359  0.00  0.00    +0.000 A 
ATOM     24  C   UNL     1       5.264   3.635  16.096  0.00  0.00    +0.000 A 
ATOM     25  C   UNL     1       5.704   4.223  14.906  0.00  0.00    +0.000 A 
ATOM     26  C   UNL     1       6.575   5.302  14.949  0.00  0.00    +0.000 A 
ATOM     27  C   UNL     1       7.035   5.764  16.179  0.00  0.00    +0.000 A 
ATOM     28  C   UNL     1       6.629   5.165  17.394  0.00  0.00    +0.000 A 
BRANCH  28  29
ATOM     29  C   UNL     1       7.256   5.719  18.651  0.00  0.00    +0.000 C 
ATOM     30  F   UNL     1       7.759   6.978  18.554  0.00  0.00    +0.000 F 
ATOM     31  F   UNL     1       6.374   5.771  19.687  0.00  0.00    +0.000 F 
ATOM     32  F   UNL     1       8.295   4.952  19.086  0.00  0.00    +0.000 F 
ENDBRANCH  28  29
ENDBRANCH  22  23
ENDBRANCH   8  22
TORSDOF 5
ENDMDL
MODEL 9
REMARK VINA RESULT:      -7.6      5.553      9.889
REMARK  Name = 
REMARK  5 active torsions:
REMARK  status: ('A' for Active; 'I' for Inactive)
REMARK    1  A    between atoms: C_2  and  C_10
REMARK    2  A    between atoms: N_3  and  C_4
REMARK    3  A    between atoms: N_17  and  C_18
REMARK    4  A    between atoms: C_18  and  C_19
REMARK    5  A    between atoms: C_24  and  C_25
REMARK                            x       y       z     vdW  Elec       q    Type
REMARK                         _______ _______ _______ _____ _____    ______ ____
ROOT
ATOM      1  C   UNL     1       1.812   6.383  19.715  0.00  0.00    +0.000 C 
ATOM      2  C   UNL     1       2.169   6.082  20.970  0.00  0.00    +0.000 C 
ATOM      3  O   UNL     1       2.323   4.773  21.284  0.00  0.00    +0.000 OA
ATOM      4  C   UNL     1       2.431   4.241  20.039  0.00  0.00    +0.000 C 
ATOM      5  N   UNL     1       2.881   3.059  20.063  0.00  0.00    +0.000 NA
ATOM      6  C   UNL     1       3.610   2.500  19.069  0.00  0.00    +0.000 C 
ATOM      7  O   UNL     1       4.234   1.460  19.254  0.00  0.00    +0.000 OA
ATOM      8  N   UNL     1       3.753   3.237  17.908  0.00  0.00    +0.000 N 
ATOM      9  C   UNL     1       2.509   3.471  17.175  0.00  0.00    +0.000 C 
ATOM     10  C   UNL     1       1.551   4.565  17.782  0.00  0.00    +0.000 C 
ATOM     11  N   UNL     1       2.073   5.175  19.026  0.00  0.00    +0.000 N 
ENDROOT
BRANCH   1  13
ATOM     12  O   UNL     1       2.371   8.646  18.944  0.00  0.00    +0.000 OA
ATOM     13  C   UNL     1       1.613   7.918  19.548  0.00  0.00    +0.000 C 
ATOM     14  N   UNL     1       0.450   8.295  20.304  0.00  0.00    +0.000 N 
ATOM     15  H   UNL     1      -0.146   7.512  20.539  0.00  0.00    +0.000 HD
BRANCH  14  16
ATOM     16  C   UNL     1       0.028   9.442  21.047  0.00  0.00    +0.000 A 
ATOM     17  C   UNL     1      -0.443  10.663  20.588  0.00  0.00    +0.000 A 
ATOM     18  C   UNL     1      -0.891  11.630  21.526  0.00  0.00    +0.000 A 
ATOM     19  C   UNL     1      -0.810  11.381  22.889  0.00  0.00    +0.000 A 
ATOM     20  N   UNL     1      -0.300  10.236  23.375  0.00  0.00    +0.000 NA
ATOM     21  C   UNL     1       0.090   9.322  22.454  0.00  0.00    +0.000 A 
ENDBRANCH  14  16
ENDBRANCH   1  13
BRANCH   8  22
ATOM     22  C   UNL     1       5.027   3.080  17.213  0.00  0.00    +0.000 C 
BRANCH  22  23
ATOM     23  C   UNL     1       5.903   4.312  17.414  0.00  0.00    +0.000 A 
ATOM     24  C   UNL     1       6.126   4.776  18.733  0.00  0.00    +0.000 A 
ATOM     25  C   UNL     1       6.945   5.878  18.993  0.00  0.00    +0.000 A 
ATOM     26  C   UNL     1       7.567   6.540  17.944  0.00  0.00    +0.000 A 
ATOM     27  C   UNL     1       7.333   6.124  16.636  0.00  0.00    +0.000 A 
ATOM     28  C   UNL     1       6.483   5.032  16.347  0.00  0.00    +0.000 A 
BRANCH  28  29
ATOM     29  C   UNL     1       6.264   4.729  14.883  0.00  0.00    +0.000 C 
ATOM     30  F   UNL     1       7.088   5.374  14.017  0.00  0.00    +0.000 F 
ATOM     31  F   UNL     1       6.423   3.406  14.602  0.00  0.00    +0.000 F 
ATOM     32  F   UNL     1       5.002   5.045  14.479  0.00  0.00    +0.000 F 
ENDBRANCH  28  29
ENDBRANCH  22  23
ENDBRANCH   8  22
TORSDOF 5
ENDMDL
