MODEL 1
REMARK VINA RESULT:      -8.1      0.000      0.000
REMARK  Name = 
REMARK  8 active torsions:
REMARK  status: ('A' for Active; 'I' for Inactive)
REMARK    1  A    between atoms: C_1  and  O_2
REMARK    2  A    between atoms: O_2  and  C_3
REMARK    3  A    between atoms: C_10  and  C_11
REMARK    4  A    between atoms: C_12  and  C_13
REMARK    5  A    between atoms: C_16  and  O_17
REMARK    6  A    between atoms: C_18  and  O_19
REMARK    7  A    between atoms: C_23  and  O_24
REMARK    8  A    between atoms: O_24  and  C_25
REMARK                            x       y       z     vdW  Elec       q    Type
REMARK                         _______ _______ _______ _____ _____    ______ ____
ROOT
ATOM      1  C   UNL     1       2.952   4.769  17.647  0.00  0.00    +0.000 A 
ATOM      2  C   UNL     1       3.635   3.728  17.008  0.00  0.00    +0.000 A 
ATOM      3  C   UNL     1       4.976   3.869  16.672  0.00  0.00    +0.000 A 
ATOM      4  C   UNL     1       5.635   5.064  16.956  0.00  0.00    +0.000 A 
ATOM      5  C   UNL     1       7.051   5.212  16.595  0.00  0.00    +0.000 A 
ATOM      6  O   UNL     1       7.690   4.309  16.074  0.00  0.00    +0.000 OA
ATOM      7  C   UNL     1       7.676   6.511  16.881  0.00  0.00    +0.000 A 
ATOM      8  C   UNL     1       6.939   7.468  17.456  0.00  0.00    +0.000 A 
ATOM      9  O   UNL     1       5.616   7.306  17.817  0.00  0.00    +0.000 OA
ATOM     10  C   UNL     1       4.965   6.126  17.571  0.00  0.00    +0.000 A 
ATOM     11  C   UNL     1       3.611   5.990  17.930  0.00  0.00    +0.000 A 
ENDROOT
BRANCH   1  13
ATOM     12  C   UNL     1       1.238   3.562  18.762  0.00  0.00    +0.000 C 
ATOM     13  O   UNL     1       1.617   4.685  17.974  0.00  0.00    +0.000 OA
ENDBRANCH   1  13
BRANCH   8  14
ATOM     14  C   UNL     1       7.481   8.786  17.762  0.00  0.00    +0.000 C 
ATOM     15  C   UNL     1       8.556   8.994  18.539  0.00  0.00    +0.000 C 
BRANCH  15  16
ATOM     16  C   UNL     1       9.150  10.302  18.862  0.00  0.00    +0.000 A 
ATOM     17  C   UNL     1       9.641  10.620  20.137  0.00  0.00    +0.000 A 
ATOM     18  C   UNL     1      10.234  11.862  20.386  0.00  0.00    +0.000 A 
ATOM     19  C   UNL     1      10.345  12.781  19.351  0.00  0.00    +0.000 A 
ATOM     20  C   UNL     1       9.873  12.466  18.080  0.00  0.00    +0.000 A 
ATOM     21  C   UNL     1       9.279  11.236  17.828  0.00  0.00    +0.000 A 
BRANCH  19  22
ATOM     22  O   UNL     1      10.917  14.008  19.530  0.00  0.00    +0.000 OA
ATOM     23  H   UNL     1      10.210  14.675  19.523  0.00  0.00    +0.000 HD
ENDBRANCH  19  22
BRANCH  20  24
ATOM     24  O   UNL     1       9.996  13.365  17.061  0.00  0.00    +0.000 OA
ATOM     25  H   UNL     1       9.425  14.114  17.322  0.00  0.00    +0.000 HD
ENDBRANCH  20  24
ENDBRANCH  15  16
ENDBRANCH   8  14
BRANCH  11  26
ATOM     26  O   UNL     1       2.822   6.927  18.554  0.00  0.00    +0.000 OA
ATOM     27  C   UNL     1       2.437   8.101  17.855  0.00  0.00    +0.000 C 
ENDBRANCH  11  26
TORSDOF 6
ENDMDL
MODEL 2
REMARK VINA RESULT:      -8.0      0.675      1.389
REMARK  Name = 
REMARK  8 active torsions:
REMARK  status: ('A' for Active; 'I' for Inactive)
REMARK    1  A    between atoms: C_1  and  O_2
REMARK    2  A    between atoms: O_2  and  C_3
REMARK    3  A    between atoms: C_10  and  C_11
REMARK    4  A    between atoms: C_12  and  C_13
REMARK    5  A    between atoms: C_16  and  O_17
REMARK    6  A    between atoms: C_18  and  O_19
REMARK    7  A    between atoms: C_23  and  O_24
REMARK    8  A    between atoms: O_24  and  C_25
REMARK                            x       y       z     vdW  Elec       q    Type
REMARK                         _______ _______ _______ _____ _____    ______ ____
ROOT
ATOM      1  C   UNL     1       2.943   4.824  17.772  0.00  0.00    +0.000 A 
ATOM      2  C   UNL     1       3.563   3.764  17.101  0.00  0.00    +0.000 A 
ATOM      3  C   UNL     1       4.891   3.865  16.705  0.00  0.00    +0.000 A 
ATOM      4  C   UNL     1       5.600   5.037  16.963  0.00  0.00    +0.000 A 
ATOM      5  C   UNL     1       7.002   5.142  16.539  0.00  0.00    +0.000 A 
ATOM      6  O   UNL     1       7.588   4.221  15.987  0.00  0.00    +0.000 OA
ATOM      7  C   UNL     1       7.681   6.419  16.800  0.00  0.00    +0.000 A 
ATOM      8  C   UNL     1       7.001   7.397  17.410  0.00  0.00    +0.000 A 
ATOM      9  O   UNL     1       5.691   7.275  17.829  0.00  0.00    +0.000 OA
ATOM     10  C   UNL     1       4.992   6.117  17.610  0.00  0.00    +0.000 A 
ATOM     11  C   UNL     1       3.652   6.022  18.029  0.00  0.00    +0.000 A 
ENDROOT
BRANCH   1  13
ATOM     12  C   UNL     1       1.262   3.715  19.030  0.00  0.00    +0.000 C 
ATOM     13  O   UNL     1       1.622   4.781  18.159  0.00  0.00    +0.000 OA
ENDBRANCH   1  13
BRANCH   8  14
ATOM     14  C   UNL     1       7.597   8.695  17.695  0.00  0.00    +0.000 C 
ATOM     15  C   UNL     1       8.580   8.890  18.590  0.00  0.00    +0.000 C 
BRANCH  15  16
ATOM     16  C   UNL     1       9.225  10.177  18.899  0.00  0.00    +0.000 A 
ATOM     17  C   UNL     1       9.706  11.043  17.907  0.00  0.00    +0.000 A 
ATOM     18  C   UNL     1      10.275  12.275  18.247  0.00  0.00    +0.000 A 
ATOM     19  C   UNL     1      10.350  12.642  19.584  0.00  0.00    +0.000 A 
ATOM     20  C   UNL     1       9.861  11.793  20.572  0.00  0.00    +0.000 A 
ATOM     21  C   UNL     1       9.299  10.568  20.241  0.00  0.00    +0.000 A 
BRANCH  19  22
ATOM     22  O   UNL     1      10.890  13.833  19.979  0.00  0.00    +0.000 OA
ATOM     23  H   UNL     1      10.227  14.529  19.832  0.00  0.00    +0.000 HD
ENDBRANCH  19  22
BRANCH  20  24
ATOM     24  O   UNL     1       9.922  12.163  21.885  0.00  0.00    +0.000 OA
ATOM     25  H   UNL     1      10.875  12.284  22.063  0.00  0.00    +0.000 HD
ENDBRANCH  20  24
ENDBRANCH  15  16
ENDBRANCH   8  14
BRANCH  11  26
ATOM     26  O   UNL     1       2.922   6.981  18.690  0.00  0.00    +0.000 OA
ATOM     27  C   UNL     1       2.352   8.059  17.962  0.00  0.00    +0.000 C 
ENDBRANCH  11  26
TORSDOF 6
ENDMDL
MODEL 3
REMARK VINA RESULT:      -7.8      3.562      7.132
REMARK  Name = 
REMARK  8 active torsions:
REMARK  status: ('A' for Active; 'I' for Inactive)
REMARK    1  A    between atoms: C_1  and  O_2
REMARK    2  A    between atoms: O_2  and  C_3
REMARK    3  A    between atoms: C_10  and  C_11
REMARK    4  A    between atoms: C_12  and  C_13
REMARK    5  A    between atoms: C_16  and  O_17
REMARK    6  A    between atoms: C_18  and  O_19
REMARK    7  A    between atoms: C_23  and  O_24
REMARK    8  A    between atoms: O_24  and  C_25
REMARK                            x       y       z     vdW  Elec       q    Type
REMARK                         _______ _______ _______ _____ _____    ______ ____
ROOT
ATOM      1  C   UNL     1       6.463   5.030  15.547  0.00  0.00    +0.000 A 
ATOM      2  C   UNL     1       5.885   3.766  15.388  0.00  0.00    +0.000 A 
ATOM      3  C   UNL     1       4.725   3.432  16.075  0.00  0.00    +0.000 A 
ATOM      4  C   UNL     1       4.147   4.359  16.942  0.00  0.00    +0.000 A 
ATOM      5  C   UNL     1       2.923   4.001  17.670  0.00  0.00    +0.000 A 
ATOM      6  O   UNL     1       2.368   2.921  17.524  0.00  0.00    +0.000 OA
ATOM      7  C   UNL     1       2.389   5.004  18.603  0.00  0.00    +0.000 A 
ATOM      8  C   UNL     1       3.028   6.173  18.727  0.00  0.00    +0.000 A 
ATOM      9  O   UNL     1       4.161   6.507  18.014  0.00  0.00    +0.000 OA
ATOM     10  C   UNL     1       4.722   5.618  17.136  0.00  0.00    +0.000 A 
ATOM     11  C   UNL     1       5.889   5.974  16.434  0.00  0.00    +0.000 A 
ENDROOT
BRANCH   1  13
ATOM     12  C   UNL     1       7.688   5.118  13.515  0.00  0.00    +0.000 C 
ATOM     13  O   UNL     1       7.627   5.396  14.909  0.00  0.00    +0.000 OA
ENDBRANCH   1  13
BRANCH   8  14
ATOM     14  C   UNL     1       2.569   7.214  19.636  0.00  0.00    +0.000 C 
ATOM     15  C   UNL     1       1.547   8.045  19.373  0.00  0.00    +0.000 C 
BRANCH  15  16
ATOM     16  C   UNL     1       1.037   9.099  20.267  0.00  0.00    +0.000 A 
ATOM     17  C   UNL     1       0.757  10.400  19.824  0.00  0.00    +0.000 A 
ATOM     18  C   UNL     1       0.235  11.356  20.701  0.00  0.00    +0.000 A 
ATOM     19  C   UNL     1      -0.018  11.003  22.019  0.00  0.00    +0.000 A 
ATOM     20  C   UNL     1       0.244   9.709  22.461  0.00  0.00    +0.000 A 
ATOM     21  C   UNL     1       0.766   8.756  21.596  0.00  0.00    +0.000 A 
BRANCH  19  22
ATOM     22  O   UNL     1      -0.531  11.890  22.923  0.00  0.00    +0.000 OA
ATOM     23  H   UNL     1      -1.323  12.295  22.530  0.00  0.00    +0.000 HD
ENDBRANCH  19  22
BRANCH  20  24
ATOM     24  O   UNL     1      -0.019   9.360  23.754  0.00  0.00    +0.000 OA
ATOM     25  H   UNL     1      -0.808   8.786  23.699  0.00  0.00    +0.000 HD
ENDBRANCH  20  24
ENDBRANCH  15  16
ENDBRANCH   8  14
BRANCH  11  26
ATOM     26  O   UNL     1       6.561   7.171  16.498  0.00  0.00    +0.000 OA
ATOM     27  C   UNL     1       7.468   7.414  17.563  0.00  0.00    +0.000 C 
ENDBRANCH  11  26
TORSDOF 6
ENDMDL
MODEL 4
REMARK VINA RESULT:      -7.7      4.866      8.779
REMARK  Name = 
REMARK  8 active torsions:
REMARK  status: ('A' for Active; 'I' for Inactive)
REMARK    1  A    between atoms: C_1  and  O_2
REMARK    2  A    between atoms: O_2  and  C_3
REMARK    3  A    between atoms: C_10  and  C_11
REMARK    4  A    between atoms: C_12  and  C_13
REMARK    5  A    between atoms: C_16  and  O_17
REMARK    6  A    between atoms: C_18  and  O_19
REMARK    7  A    between atoms: C_23  and  O_24
REMARK    8  A    between atoms: O_24  and  C_25
REMARK                            x       y       z     vdW  Elec       q    Type
REMARK                         _______ _______ _______ _____ _____    ______ ____
ROOT
ATOM      1  C   UNL     1      -3.622  11.287  18.033  0.00  0.00    +0.000 A 
ATOM      2  C   UNL     1      -3.369  12.161  19.096  0.00  0.00    +0.000 A 
ATOM      3  C   UNL     1      -2.109  12.211  19.680  0.00  0.00    +0.000 A 
ATOM      4  C   UNL     1      -1.100  11.369  19.214  0.00  0.00    +0.000 A 
ATOM      5  C   UNL     1       0.229  11.421  19.837  0.00  0.00    +0.000 A 
ATOM      6  O   UNL     1       0.497  12.201  20.741  0.00  0.00    +0.000 OA
ATOM      7  C   UNL     1       1.237  10.478  19.331  0.00  0.00    +0.000 A 
ATOM      8  C   UNL     1       0.899   9.646  18.339  0.00  0.00    +0.000 A 
ATOM      9  O   UNL     1      -0.346   9.628  17.742  0.00  0.00    +0.000 OA
ATOM     10  C   UNL     1      -1.338  10.471  18.170  0.00  0.00    +0.000 A 
ATOM     11  C   UNL     1      -2.605  10.421  17.559  0.00  0.00    +0.000 A 
ENDROOT
BRANCH   1  13
ATOM     12  C   UNL     1      -5.963  11.022  18.327  0.00  0.00    +0.000 C 
ATOM     13  O   UNL     1      -4.861  11.183  17.441  0.00  0.00    +0.000 OA
ENDBRANCH   1  13
BRANCH   8  14
ATOM     14  C   UNL     1       1.835   8.675  17.788  0.00  0.00    +0.000 C 
ATOM     15  C   UNL     1       2.207   7.549  18.418  0.00  0.00    +0.000 C 
BRANCH  15  16
ATOM     16  C   UNL     1       3.134   6.531  17.896  0.00  0.00    +0.000 A 
ATOM     17  C   UNL     1       2.843   5.159  17.908  0.00  0.00    +0.000 A 
ATOM     18  C   UNL     1       3.738   4.233  17.363  0.00  0.00    +0.000 A 
ATOM     19  C   UNL     1       4.920   4.686  16.795  0.00  0.00    +0.000 A 
ATOM     20  C   UNL     1       5.209   6.047  16.766  0.00  0.00    +0.000 A 
ATOM     21  C   UNL     1       4.326   6.971  17.310  0.00  0.00    +0.000 A 
BRANCH  19  22
ATOM     22  O   UNL     1       5.833   3.831  16.243  0.00  0.00    +0.000 OA
ATOM     23  H   UNL     1       5.784   2.987  16.723  0.00  0.00    +0.000 HD
ENDBRANCH  19  22
BRANCH  20  24
ATOM     24  O   UNL     1       6.366   6.491  16.194  0.00  0.00    +0.000 OA
ATOM     25  H   UNL     1       6.419   6.013  15.343  0.00  0.00    +0.000 HD
ENDBRANCH  20  24
ENDBRANCH  15  16
ENDBRANCH   8  14
BRANCH  11  26
ATOM     26  O   UNL     1      -2.991   9.614  16.517  0.00  0.00    +0.000 OA
ATOM     27  C   UNL     1      -2.799  10.050  15.179  0.00  0.00    +0.000 C 
ENDBRANCH  11  26
TORSDOF 6
ENDMDL
MODEL 5
REMARK VINA RESULT:      -7.7      5.104      9.015
REMARK  Name = 
REMARK  8 active torsions:
REMARK  status: ('A' for Active; 'I' for Inactive)
REMARK    1  A    between atoms: C_1  and  O_2
REMARK    2  A    between atoms: O_2  and  C_3
REMARK    3  A    between atoms: C_10  and  C_11
REMARK    4  A    between atoms: C_12  and  C_13
REMARK    5  A    between atoms: C_16  and  O_17
REMARK    6  A    between atoms: C_18  and  O_19
REMARK    7  A    between atoms: C_23  and  O_24
REMARK    8  A    between atoms: O_24  and  C_25
REMARK                            x       y       z     vdW  Elec       q    Type
REMARK                         _______ _______ _______ _____ _____    ______ ____
ROOT
ATOM      1  C   UNL     1      -3.637  11.380  18.127  0.00  0.00    +0.000 A 
ATOM      2  C   UNL     1      -3.371  12.188  19.238  0.00  0.00    +0.000 A 
ATOM      3  C   UNL     1      -2.112  12.181  19.827  0.00  0.00    +0.000 A 
ATOM      4  C   UNL     1      -1.118  11.349  19.316  0.00  0.00    +0.000 A 
ATOM      5  C   UNL     1       0.210  11.342  19.944  0.00  0.00    +0.000 A 
ATOM      6  O   UNL     1       0.490  12.065  20.890  0.00  0.00    +0.000 OA
ATOM      7  C   UNL     1       1.202  10.410  19.387  0.00  0.00    +0.000 A 
ATOM      8  C   UNL     1       0.852   9.642  18.349  0.00  0.00    +0.000 A 
ATOM      9  O   UNL     1      -0.391   9.680  17.750  0.00  0.00    +0.000 OA
ATOM     10  C   UNL     1      -1.368  10.516  18.222  0.00  0.00    +0.000 A 
ATOM     11  C   UNL     1      -2.635  10.524  17.607  0.00  0.00    +0.000 A 
ENDROOT
BRANCH   1  13
ATOM     12  C   UNL     1      -5.955  10.924  18.360  0.00  0.00    +0.000 C 
ATOM     13  O   UNL     1      -4.875  11.332  17.527  0.00  0.00    +0.000 OA
ENDBRANCH   1  13
BRANCH   8  14
ATOM     14  C   UNL     1       1.773   8.687  17.747  0.00  0.00    +0.000 C 
ATOM     15  C   UNL     1       2.300   7.637  18.398  0.00  0.00    +0.000 C 
BRANCH  15  16
ATOM     16  C   UNL     1       3.219   6.638  17.828  0.00  0.00    +0.000 A 
ATOM     17  C   UNL     1       4.445   6.980  17.240  0.00  0.00    +0.000 A 
ATOM     18  C   UNL     1       5.303   5.992  16.748  0.00  0.00    +0.000 A 
ATOM     19  C   UNL     1       4.936   4.658  16.858  0.00  0.00    +0.000 A 
ATOM     20  C   UNL     1       3.726   4.310  17.454  0.00  0.00    +0.000 A 
ATOM     21  C   UNL     1       2.868   5.287  17.940  0.00  0.00    +0.000 A 
BRANCH  19  22
ATOM     22  O   UNL     1       5.732   3.646  16.401  0.00  0.00    +0.000 OA
ATOM     23  H   UNL     1       5.558   2.857  16.941  0.00  0.00    +0.000 HD
ENDBRANCH  19  22
BRANCH  20  24
ATOM     24  O   UNL     1       3.374   2.997  17.573  0.00  0.00    +0.000 OA
ATOM     25  H   UNL     1       4.126   2.581  18.038  0.00  0.00    +0.000 HD
ENDBRANCH  20  24
ENDBRANCH  15  16
ENDBRANCH   8  14
BRANCH  11  26
ATOM     26  O   UNL     1      -3.032   9.784  16.520  0.00  0.00    +0.000 OA
ATOM     27  C   UNL     1      -2.833  10.294  15.210  0.00  0.00    +0.000 C 
ENDBRANCH  11  26
TORSDOF 6
ENDMDL
MODEL 6
REMARK VINA RESULT:      -7.6      0.996      1.160
REMARK  Name = 
REMARK  8 active torsions:
REMARK  status: ('A' for Active; 'I' for Inactive)
REMARK    1  A    between atoms: C_1  and  O_2
REMARK    2  A    between atoms: O_2  and  C_3
REMARK    3  A    between atoms: C_10  and  C_11
REMARK    4  A    between atoms: C_12  and  C_13
REMARK    5  A    between atoms: C_16  and  O_17
REMARK    6  A    between atoms: C_18  and  O_19
REMARK    7  A    between atoms: C_23  and  O_24
REMARK    8  A    between atoms: O_24  and  C_25
REMARK                            x       y       z     vdW  Elec       q    Type
REMARK                         _______ _______ _______ _____ _____    ______ ____
ROOT
ATOM      1  C   UNL     1       2.656   4.367  18.256  0.00  0.00    +0.000 A 
ATOM      2  C   UNL     1       2.859   3.451  17.217  0.00  0.00    +0.000 A 
ATOM      3  C   UNL     1       4.032   3.482  16.473  0.00  0.00    +0.000 A 
ATOM      4  C   UNL     1       5.000   4.445  16.754  0.00  0.00    +0.000 A 
ATOM      5  C   UNL     1       6.237   4.477  15.962  0.00  0.00    +0.000 A 
ATOM      6  O   UNL     1       6.466   3.667  15.074  0.00  0.00    +0.000 OA
ATOM      7  C   UNL     1       7.199   5.543  16.277  0.00  0.00    +0.000 A 
ATOM      8  C   UNL     1       6.907   6.404  17.258  0.00  0.00    +0.000 A 
ATOM      9  O   UNL     1       5.754   6.344  18.014  0.00  0.00    +0.000 OA
ATOM     10  C   UNL     1       4.807   5.385  17.770  0.00  0.00    +0.000 A 
ATOM     11  C   UNL     1       3.630   5.355  18.541  0.00  0.00    +0.000 A 
ENDROOT
BRANCH   1  13
ATOM     12  C   UNL     1       1.121   3.161  19.608  0.00  0.00    +0.000 C 
ATOM     13  O   UNL     1       1.499   4.392  19.002  0.00  0.00    +0.000 OA
ENDBRANCH   1  13
BRANCH   8  14
ATOM     14  C   UNL     1       7.801   7.494  17.625  0.00  0.00    +0.000 C 
ATOM     15  C   UNL     1       7.401   8.761  17.823  0.00  0.00    +0.000 C 
BRANCH  15  16
ATOM     16  C   UNL     1       8.263   9.890  18.211  0.00  0.00    +0.000 A 
ATOM     17  C   UNL     1       9.231   9.795  19.221  0.00  0.00    +0.000 A 
ATOM     18  C   UNL     1      10.055  10.883  19.527  0.00  0.00    +0.000 A 
ATOM     19  C   UNL     1       9.915  12.063  18.809  0.00  0.00    +0.000 A 
ATOM     20  C   UNL     1       8.966  12.159  17.796  0.00  0.00    +0.000 A 
ATOM     21  C   UNL     1       8.142  11.084  17.491  0.00  0.00    +0.000 A 
BRANCH  19  22
ATOM     22  O   UNL     1      10.693  13.159  19.058  0.00  0.00    +0.000 OA
ATOM     23  H   UNL     1      10.112  13.879  19.357  0.00  0.00    +0.000 HD
ENDBRANCH  19  22
BRANCH  20  24
ATOM     24  O   UNL     1       8.840  13.316  17.082  0.00  0.00    +0.000 OA
ATOM     25  H   UNL     1       9.756  13.558  16.842  0.00  0.00    +0.000 HD
ENDBRANCH  20  24
ENDBRANCH  15  16
ENDBRANCH   8  14
BRANCH  11  26
ATOM     26  O   UNL     1       3.300   6.190  19.581  0.00  0.00    +0.000 OA
ATOM     27  C   UNL     1       2.571   7.381  19.324  0.00  0.00    +0.000 C 
ENDBRANCH  11  26
TORSDOF 6
ENDMDL
MODEL 7
REMARK VINA RESULT:      -7.5      3.507      7.079
REMARK  Name = 
REMARK  8 active torsions:
REMARK  status: ('A' for Active; 'I' for Inactive)
REMARK    1  A    between atoms: C_1  and  O_2
REMARK    2  A    between atoms: O_2  and  C_3
REMARK    3  A    between atoms: C_10  and  C_11
REMARK    4  A    between atoms: C_12  and  C_13
REMARK    5  A    between atoms: C_16  and  O_17
REMARK    6  A    between atoms: C_18  and  O_19
REMARK    7  A    between atoms: C_23  and  O_24
REMARK    8  A    between atoms: O_24  and  C_25
REMARK                            x       y       z     vdW  Elec       q    Type
REMARK                         _______ _______ _______ _____ _____    ______ ____
ROOT
ATOM      1  C   UNL     1       6.316   5.013  15.917  0.00  0.00    +0.000 A 
ATOM      2  C   UNL     1       5.768   3.726  15.945  0.00  0.00    +0.000 A 
ATOM      3  C   UNL     1       4.586   3.479  16.632  0.00  0.00    +0.000 A 
ATOM      4  C   UNL     1       3.955   4.520  17.311  0.00  0.00    +0.000 A 
ATOM      5  C   UNL     1       2.707   4.256  18.040  0.00  0.00    +0.000 A 
ATOM      6  O   UNL     1       2.179   3.152  18.052  0.00  0.00    +0.000 OA
ATOM      7  C   UNL     1       2.115   5.384  18.773  0.00  0.00    +0.000 A 
ATOM      8  C   UNL     1       2.727   6.573  18.728  0.00  0.00    +0.000 A 
ATOM      9  O   UNL     1       3.883   6.815  18.015  0.00  0.00    +0.000 OA
ATOM     10  C   UNL     1       4.497   5.809  17.318  0.00  0.00    +0.000 A 
ATOM     11  C   UNL     1       5.687   6.074  16.613  0.00  0.00    +0.000 A 
ENDROOT
BRANCH   1  13
ATOM     12  C   UNL     1       7.498   5.127  13.861  0.00  0.00    +0.000 C 
ATOM     13  O   UNL     1       7.499   5.299  15.273  0.00  0.00    +0.000 OA
ENDBRANCH   1  13
BRANCH   8  14
ATOM     14  C   UNL     1       2.210   7.737  19.435  0.00  0.00    +0.000 C 
ATOM     15  C   UNL     1       1.191   7.695  20.310  0.00  0.00    +0.000 C 
BRANCH  15  16
ATOM     16  C   UNL     1       0.647   8.839  21.060  0.00  0.00    +0.000 A 
ATOM     17  C   UNL     1       0.051   8.706  22.322  0.00  0.00    +0.000 A 
ATOM     18  C   UNL     1      -0.415   9.828  23.015  0.00  0.00    +0.000 A 
ATOM     19  C   UNL     1      -0.271  11.086  22.446  0.00  0.00    +0.000 A 
ATOM     20  C   UNL     1       0.333  11.226  21.200  0.00  0.00    +0.000 A 
ATOM     21  C   UNL     1       0.794  10.116  20.505  0.00  0.00    +0.000 A 
BRANCH  19  22
ATOM     22  O   UNL     1      -0.702  12.220  23.075  0.00  0.00    +0.000 OA
ATOM     23  H   UNL     1      -1.662  12.293  22.939  0.00  0.00    +0.000 HD
ENDBRANCH  19  22
BRANCH  20  24
ATOM     24  O   UNL     1       0.486  12.466  20.649  0.00  0.00    +0.000 OA
ATOM     25  H   UNL     1       1.420  12.697  20.819  0.00  0.00    +0.000 HD
ENDBRANCH  20  24
ENDBRANCH  15  16
ENDBRANCH   8  14
BRANCH  11  26
ATOM     26  O   UNL     1       6.333   7.282  16.506  0.00  0.00    +0.000 OA
ATOM     27  C   UNL     1       7.269   7.671  17.500  0.00  0.00    +0.000 C 
ENDBRANCH  11  26
TORSDOF 6
ENDMDL
MODEL 8
REMARK VINA RESULT:      -7.4      1.236      1.375
REMARK  Name = 
REMARK  8 active torsions:
REMARK  status: ('A' for Active; 'I' for Inactive)
REMARK    1  A    between atoms: C_1  and  O_2
REMARK    2  A    between atoms: O_2  and  C_3
REMARK    3  A    between atoms: C_10  and  C_11
REMARK    4  A    between atoms: C_12  and  C_13
REMARK    5  A    between atoms: C_16  and  O_17
REMARK    6  A    between atoms: C_18  and  O_19
REMARK    7  A    between atoms: C_23  and  O_24
REMARK    8  A    between atoms: O_24  and  C_25
REMARK                            x       y       z     vdW  Elec       q    Type
REMARK                         _______ _______ _______ _____ _____    ______ ____
ROOT
ATOM      1  C   UNL     1       3.081   4.707  18.212  0.00  0.00    +0.000 A 
ATOM      2  C   UNL     1       3.887   3.563  18.247  0.00  0.00    +0.000 A 
ATOM      3  C   UNL     1       5.270   3.675  18.168  0.00  0.00    +0.000 A 
ATOM      4  C   UNL     1       5.852   4.935  18.033  0.00  0.00    +0.000 A 
ATOM      5  C   UNL     1       7.313   5.049  17.945  0.00  0.00    +0.000 A 
ATOM      6  O   UNL     1       8.051   4.075  18.014  0.00  0.00    +0.000 OA
ATOM      7  C   UNL     1       7.863   6.399  17.758  0.00  0.00    +0.000 A 
ATOM      8  C   UNL     1       7.019   7.435  17.692  0.00  0.00    +0.000 A 
ATOM      9  O   UNL     1       5.648   7.317  17.806  0.00  0.00    +0.000 OA
ATOM     10  C   UNL     1       5.065   6.088  17.970  0.00  0.00    +0.000 A 
ATOM     11  C   UNL     1       3.664   5.990  18.064  0.00  0.00    +0.000 A 
ENDROOT
BRANCH   1  13
ATOM     12  C   UNL     1       1.157   3.531  18.956  0.00  0.00    +0.000 C 
ATOM     13  O   UNL     1       1.706   4.643  18.259  0.00  0.00    +0.000 OA
ENDBRANCH   1  13
BRANCH   8  14
ATOM     14  C   UNL     1       7.483   8.803  17.499  0.00  0.00    +0.000 C 
ATOM     15  C   UNL     1       8.488   9.360  18.193  0.00  0.00    +0.000 C 
BRANCH  15  16
ATOM     16  C   UNL     1       9.003  10.729  18.021  0.00  0.00    +0.000 A 
ATOM     17  C   UNL     1      10.367  11.045  18.109  0.00  0.00    +0.000 A 
ATOM     18  C   UNL     1      10.813  12.354  17.897  0.00  0.00    +0.000 A 
ATOM     19  C   UNL     1       9.891  13.343  17.585  0.00  0.00    +0.000 A 
ATOM     20  C   UNL     1       8.538  13.034  17.482  0.00  0.00    +0.000 A 
ATOM     21  C   UNL     1       8.088  11.737  17.695  0.00  0.00    +0.000 A 
BRANCH  19  22
ATOM     22  O   UNL     1      10.265  14.639  17.363  0.00  0.00    +0.000 OA
ATOM     23  H   UNL     1       9.471  15.144  17.119  0.00  0.00    +0.000 HD
ENDBRANCH  19  22
BRANCH  20  24
ATOM     24  O   UNL     1       7.635  14.005  17.161  0.00  0.00    +0.000 OA
ATOM     25  H   UNL     1       7.381  14.400  18.018  0.00  0.00    +0.000 HD
ENDBRANCH  20  24
ENDBRANCH  15  16
ENDBRANCH   8  14
BRANCH  11  26
ATOM     26  O   UNL     1       2.758   7.022  18.039  0.00  0.00    +0.000 OA
ATOM     27  C   UNL     1       2.301   7.589  19.258  0.00  0.00    +0.000 C 
ENDBRANCH  11  26
TORSDOF 6
ENDMDL
MODEL 9
REMARK VINA RESULT:      -7.4      2.414      9.244
REMARK  Name = 
REMARK  8 active torsions:
REMARK  status: ('A' for Active; 'I' for Inactive)
REMARK    1  A    between atoms: C_1  and  O_2
REMARK    2  A    between atoms: O_2  and  C_3
REMARK    3  A    between atoms: C_10  and  C_11
REMARK    4  A    between atoms: C_12  and  C_13
REMARK    5  A    between atoms: C_16  and  O_17
REMARK    6  A    between atoms: C_18  and  O_19
REMARK    7  A    between atoms: C_23  and  O_24
REMARK    8  A    between atoms: O_24  and  C_25
REMARK                            x       y       z     vdW  Elec       q    Type
REMARK                         _______ _______ _______ _____ _____    ______ ____
ROOT
ATOM      1  C   UNL     1      10.129  14.699  21.692  0.00  0.00    +0.000 A 
ATOM      2  C   UNL     1      10.817  15.316  20.641  0.00  0.00    +0.000 A 
ATOM      3  C   UNL     1      10.973  14.663  19.424  0.00  0.00    +0.000 A 
ATOM      4  C   UNL     1      10.455  13.379  19.261  0.00  0.00    +0.000 A 
ATOM      5  C   UNL     1      10.625  12.690  17.975  0.00  0.00    +0.000 A 
ATOM      6  O   UNL     1      11.184  13.214  17.021  0.00  0.00    +0.000 OA
ATOM      7  C   UNL     1      10.095  11.322  17.880  0.00  0.00    +0.000 A 
ATOM      8  C   UNL     1       9.488  10.791  18.947  0.00  0.00    +0.000 A 
ATOM      9  O   UNL     1       9.309  11.461  20.141  0.00  0.00    +0.000 OA
ATOM     10  C   UNL     1       9.786  12.735  20.305  0.00  0.00    +0.000 A 
ATOM     11  C   UNL     1       9.609  13.391  21.538  0.00  0.00    +0.000 A 
ENDROOT
BRANCH   1  13
ATOM     12  C   UNL     1       9.370  16.584  22.922  0.00  0.00    +0.000 C 
ATOM     13  O   UNL     1       9.975  15.295  22.924  0.00  0.00    +0.000 OA
ENDBRANCH   1  13
BRANCH   8  14
ATOM     14  C   UNL     1       8.946   9.439  18.938  0.00  0.00    +0.000 C 
ATOM     15  C   UNL     1       8.213   8.929  17.934  0.00  0.00    +0.000 C 
BRANCH  15  16
ATOM     16  C   UNL     1       7.661   7.566  17.872  0.00  0.00    +0.000 A 
ATOM     17  C   UNL     1       8.069   6.541  18.737  0.00  0.00    +0.000 A 
ATOM     18  C   UNL     1       7.486   5.271  18.667  0.00  0.00    +0.000 A 
ATOM     19  C   UNL     1       6.484   5.035  17.737  0.00  0.00    +0.000 A 
ATOM     20  C   UNL     1       6.064   6.052  16.885  0.00  0.00    +0.000 A 
ATOM     21  C   UNL     1       6.642   7.313  16.946  0.00  0.00    +0.000 A 
BRANCH  19  22
ATOM     22  O   UNL     1       5.873   3.818  17.622  0.00  0.00    +0.000 OA
ATOM     23  H   UNL     1       4.982   3.961  17.258  0.00  0.00    +0.000 HD
ENDBRANCH  19  22
BRANCH  20  24
ATOM     24  O   UNL     1       5.068   5.822  15.980  0.00  0.00    +0.000 OA
ATOM     25  H   UNL     1       4.371   6.467  16.210  0.00  0.00    +0.000 HD
ENDBRANCH  20  24
ENDBRANCH  15  16
ENDBRANCH   8  14
BRANCH  11  26
ATOM     26  O   UNL     1       8.962  12.905  22.649  0.00  0.00    +0.000 OA
ATOM     27  C   UNL     1       7.543  12.894  22.689  0.00  0.00    +0.000 C 
ENDBRANCH  11  26
TORSDOF 6
ENDMDL
